MODEL 1
REMARK VINA RESULT:      -6.4      0.000      0.000
REMARK  Name = 
REMARK  5 active torsions:
REMARK  status: ('A' for Active; 'I' for Inactive)
REMARK    1  A    between atoms: C_1  and  N_2
REMARK    2  A    between atoms: N_2  and  C_3
REMARK    3  A    between atoms: N_2  and  C_4
REMARK    4  A    between atoms: C_4  and  C_5
REMARK    5  A    between atoms: N_14  and  C_15
REMARK                            x       y       z     vdW  Elec       q    Type
REMARK                         _______ _______ _______ _____ _____    ______ ____
ROOT
ATOM      1  C   UNL     1      -3.791  12.933  21.673  0.00  0.00    +0.000 C 
ATOM      2  O   UNL     1      -2.754  12.274  21.825  0.00  0.00    +0.000 OA
ATOM      3  N   UNL     1      -4.480  13.025  20.447  0.00  0.00    +0.000 N 
ATOM      4  C   UNL     1      -5.549  13.945  20.264  0.00  0.00    +0.000 A 
ATOM      5  C   UNL     1      -5.305  15.333  20.313  0.00  0.00    +0.000 A 
ATOM      6  C   UNL     1      -6.367  16.234  20.188  0.00  0.00    +0.000 A 
ATOM      7  C   UNL     1      -7.670  15.771  20.015  0.00  0.00    +0.000 A 
ATOM      8  C   UNL     1      -7.916  14.402  19.972  0.00  0.00    +0.000 A 
ATOM      9  C   UNL     1      -6.859  13.502  20.090  0.00  0.00    +0.000 A 
ATOM     10  N   UNL     1      -7.142  12.126  19.969  0.00  0.00    +0.000 N 
ATOM     11  C   UNL     1      -7.561  11.329  21.116  0.00  0.00    +0.000 C 
ATOM     12  S   UNL     1      -6.676  11.415  18.538  0.00  0.00    +0.000 S 
ATOM     13  O   UNL     1      -6.984  10.002  18.630  0.00  0.00    +0.000 OA
ATOM     14  O   UNL     1      -7.191  12.219  17.450  0.00  0.00    +0.000 OA
ATOM     15  C   UNL     1      -4.916  11.547  18.423  0.00  0.00    +0.000 A 
ATOM     16  C   UNL     1      -4.398  10.775  17.359  0.00  0.00    +0.000 A 
ATOM     17  C   UNL     1      -3.031  10.726  17.117  0.00  0.00    +0.000 A 
ATOM     18 CL   UNL     1      -2.423   9.757  15.836  0.00  0.00    +0.000 Cl
ATOM     19  C   UNL     1      -2.171  11.454  17.921  0.00  0.00    +0.000 A 
ATOM     20  C   UNL     1      -2.682  12.207  18.990  0.00  0.00    +0.000 A 
ATOM     21  C   UNL     1      -4.071  12.262  19.292  0.00  0.00    +0.000 A 
ENDROOT
BRANCH   1  22
ATOM     22  C   UNL     1      -4.428  13.591  22.926  0.00  0.00    +0.000 C 
BRANCH  22  24
ATOM     23  C   UNL     1      -4.660  12.279  24.971  0.00  0.00    +0.000 C 
ATOM     24  N   UNL     1      -5.280  12.639  23.688  0.00  0.00    +0.000 NA
ATOM     25  C   UNL     1      -6.590  13.250  23.949  0.00  0.00    +0.000 C 
ENDBRANCH  22  24
ENDBRANCH   1  22
TORSDOF 2
ENDMDL
MODEL 2
REMARK VINA RESULT:      -5.9      2.061      2.434
REMARK  Name = 
REMARK  5 active torsions:
REMARK  status: ('A' for Active; 'I' for Inactive)
REMARK    1  A    between atoms: C_1  and  N_2
REMARK    2  A    between atoms: N_2  and  C_3
REMARK    3  A    between atoms: N_2  and  C_4
REMARK    4  A    between atoms: C_4  and  C_5
REMARK    5  A    between atoms: N_14  and  C_15
REMARK                            x       y       z     vdW  Elec       q    Type
REMARK                         _______ _______ _______ _____ _____    ______ ____
ROOT
ATOM      1  C   UNL     1      -4.906  12.750  21.815  0.00  0.00    +0.000 C 
ATOM      2  O   UNL     1      -4.054  12.476  22.670  0.00  0.00    +0.000 OA
ATOM      3  N   UNL     1      -4.626  12.824  20.436  0.00  0.00    +0.000 N 
ATOM      4  C   UNL     1      -5.579  13.332  19.510  0.00  0.00    +0.000 A 
ATOM      5  C   UNL     1      -5.977  14.683  19.575  0.00  0.00    +0.000 A 
ATOM      6  C   UNL     1      -6.955  15.166  18.700  0.00  0.00    +0.000 A 
ATOM      7  C   UNL     1      -7.543  14.320  17.762  0.00  0.00    +0.000 A 
ATOM      8  C   UNL     1      -7.158  12.984  17.699  0.00  0.00    +0.000 A 
ATOM      9  C   UNL     1      -6.179  12.502  18.565  0.00  0.00    +0.000 A 
ATOM     10  N   UNL     1      -5.767  11.161  18.421  0.00  0.00    +0.000 N 
ATOM     11  C   UNL     1      -6.472  10.070  19.083  0.00  0.00    +0.000 C 
ATOM     12  S   UNL     1      -4.273  10.936  17.721  0.00  0.00    +0.000 S 
ATOM     13  O   UNL     1      -3.999   9.512  17.722  0.00  0.00    +0.000 OA
ATOM     14  O   UNL     1      -4.236  11.699  16.491  0.00  0.00    +0.000 OA
ATOM     15  C   UNL     1      -3.069  11.690  18.773  0.00  0.00    +0.000 A 
ATOM     16  C   UNL     1      -1.751  11.357  18.388  0.00  0.00    +0.000 A 
ATOM     17  C   UNL     1      -0.661  11.832  19.105  0.00  0.00    +0.000 A 
ATOM     18 CL   UNL     1       0.931  11.391  18.636  0.00  0.00    +0.000 Cl
ATOM     19  C   UNL     1      -0.871  12.651  20.202  0.00  0.00    +0.000 A 
ATOM     20  C   UNL     1      -2.181  12.967  20.597  0.00  0.00    +0.000 A 
ATOM     21  C   UNL     1      -3.326  12.478  19.910  0.00  0.00    +0.000 A 
ENDROOT
BRANCH   1  22
ATOM     22  C   UNL     1      -6.380  12.900  22.275  0.00  0.00    +0.000 C 
BRANCH  22  24
ATOM     23  C   UNL     1      -6.437  15.159  23.196  0.00  0.00    +0.000 C 
ATOM     24  N   UNL     1      -6.503  13.724  23.507  0.00  0.00    +0.000 NA
ATOM     25  C   UNL     1      -7.786  13.441  24.164  0.00  0.00    +0.000 C 
ENDBRANCH  22  24
ENDBRANCH   1  22
TORSDOF 2
ENDMDL
MODEL 3
REMARK VINA RESULT:      -5.9      0.936      1.227
REMARK  Name = 
REMARK  5 active torsions:
REMARK  status: ('A' for Active; 'I' for Inactive)
REMARK    1  A    between atoms: C_1  and  N_2
REMARK    2  A    between atoms: N_2  and  C_3
REMARK    3  A    between atoms: N_2  and  C_4
REMARK    4  A    between atoms: C_4  and  C_5
REMARK    5  A    between atoms: N_14  and  C_15
REMARK                            x       y       z     vdW  Elec       q    Type
REMARK                         _______ _______ _______ _____ _____    ______ ____
ROOT
ATOM      1  C   UNL     1      -3.945  13.033  21.942  0.00  0.00    +0.000 C 
ATOM      2  O   UNL     1      -2.938  12.352  22.175  0.00  0.00    +0.000 OA
ATOM      3  N   UNL     1      -4.545  13.120  20.670  0.00  0.00    +0.000 N 
ATOM      4  C   UNL     1      -5.578  14.061  20.399  0.00  0.00    +0.000 A 
ATOM      5  C   UNL     1      -5.304  15.443  20.444  0.00  0.00    +0.000 A 
ATOM      6  C   UNL     1      -6.333  16.366  20.232  0.00  0.00    +0.000 A 
ATOM      7  C   UNL     1      -7.631  15.930  19.976  0.00  0.00    +0.000 A 
ATOM      8  C   UNL     1      -7.907  14.567  19.937  0.00  0.00    +0.000 A 
ATOM      9  C   UNL     1      -6.883  13.644  20.142  0.00  0.00    +0.000 A 
ATOM     10  N   UNL     1      -7.190  12.274  20.023  0.00  0.00    +0.000 N 
ATOM     11  C   UNL     1      -7.706  11.506  21.150  0.00  0.00    +0.000 C 
ATOM     12  S   UNL     1      -6.643  11.528  18.638  0.00  0.00    +0.000 S 
ATOM     13  O   UNL     1      -6.991  10.124  18.730  0.00  0.00    +0.000 OA
ATOM     14  O   UNL     1      -7.062  12.326  17.505  0.00  0.00    +0.000 OA
ATOM     15  C   UNL     1      -4.877  11.618  18.643  0.00  0.00    +0.000 A 
ATOM     16  C   UNL     1      -4.306  10.816  17.630  0.00  0.00    +0.000 A 
ATOM     17  C   UNL     1      -2.927  10.732  17.484  0.00  0.00    +0.000 A 
ATOM     18 CL   UNL     1      -2.255   9.728  16.263  0.00  0.00    +0.000 Cl
ATOM     19  C   UNL     1      -2.107  11.454  18.334  0.00  0.00    +0.000 A 
ATOM     20  C   UNL     1      -2.672  12.236  19.353  0.00  0.00    +0.000 A 
ATOM     21  C   UNL     1      -4.077  12.328  19.558  0.00  0.00    +0.000 A 
ENDROOT
BRANCH   1  22
ATOM     22  C   UNL     1      -4.651  13.725  23.138  0.00  0.00    +0.000 C 
BRANCH  22  24
ATOM     23  C   UNL     1      -4.721  16.016  23.977  0.00  0.00    +0.000 C 
ATOM     24  N   UNL     1      -3.860  14.865  23.674  0.00  0.00    +0.000 NA
ATOM     25  C   UNL     1      -3.171  14.452  24.904  0.00  0.00    +0.000 C 
ENDBRANCH  22  24
ENDBRANCH   1  22
TORSDOF 2
ENDMDL
MODEL 4
REMARK VINA RESULT:      -5.8      3.627      5.739
REMARK  Name = 
REMARK  5 active torsions:
REMARK  status: ('A' for Active; 'I' for Inactive)
REMARK    1  A    between atoms: C_1  and  N_2
REMARK    2  A    between atoms: N_2  and  C_3
REMARK    3  A    between atoms: N_2  and  C_4
REMARK    4  A    between atoms: C_4  and  C_5
REMARK    5  A    between atoms: N_14  and  C_15
REMARK                            x       y       z     vdW  Elec       q    Type
REMARK                         _______ _______ _______ _____ _____    ______ ____
ROOT
ATOM      1  C   UNL     1      -2.309  13.878  22.436  0.00  0.00    +0.000 C 
ATOM      2  O   UNL     1      -3.208  14.728  22.389  0.00  0.00    +0.000 OA
ATOM      3  N   UNL     1      -2.307  12.706  21.654  0.00  0.00    +0.000 N 
ATOM      4  C   UNL     1      -1.362  11.666  21.878  0.00  0.00    +0.000 A 
ATOM      5  C   UNL     1      -1.379  10.944  23.089  0.00  0.00    +0.000 A 
ATOM      6  C   UNL     1      -0.414   9.960  23.329  0.00  0.00    +0.000 A 
ATOM      7  C   UNL     1       0.566   9.685  22.379  0.00  0.00    +0.000 A 
ATOM      8  C   UNL     1       0.590  10.399  21.184  0.00  0.00    +0.000 A 
ATOM      9  C   UNL     1      -0.374  11.376  20.939  0.00  0.00    +0.000 A 
ATOM     10  N   UNL     1      -0.358  12.026  19.688  0.00  0.00    +0.000 N 
ATOM     11  C   UNL     1       0.470  13.202  19.448  0.00  0.00    +0.000 C 
ATOM     12  S   UNL     1      -1.551  11.569  18.621  0.00  0.00    +0.000 S 
ATOM     13  O   UNL     1      -1.413  12.387  17.433  0.00  0.00    +0.000 OA
ATOM     14  O   UNL     1      -1.544  10.124  18.534  0.00  0.00    +0.000 OA
ATOM     15  C   UNL     1      -3.108  11.984  19.350  0.00  0.00    +0.000 A 
ATOM     16  C   UNL     1      -4.173  11.848  18.430  0.00  0.00    +0.000 A 
ATOM     17  C   UNL     1      -5.475  12.151  18.804  0.00  0.00    +0.000 A 
ATOM     18 CL   UNL     1      -6.749  12.006  17.660  0.00  0.00    +0.000 Cl
ATOM     19  C   UNL     1      -5.733  12.579  20.095  0.00  0.00    +0.000 A 
ATOM     20  C   UNL     1      -4.673  12.732  21.004  0.00  0.00    +0.000 A 
ATOM     21  C   UNL     1      -3.321  12.462  20.656  0.00  0.00    +0.000 A 
ENDROOT
BRANCH   1  22
ATOM     22  C   UNL     1      -1.062  14.182  23.309  0.00  0.00    +0.000 C 
BRANCH  22  24
ATOM     23  C   UNL     1      -1.216  15.470  25.376  0.00  0.00    +0.000 C 
ATOM     24  N   UNL     1      -1.116  15.541  23.911  0.00  0.00    +0.000 NA
ATOM     25  C   UNL     1       0.097  16.288  23.555  0.00  0.00    +0.000 C 
ENDBRANCH  22  24
ENDBRANCH   1  22
TORSDOF 2
ENDMDL
MODEL 5
REMARK VINA RESULT:      -5.8      3.583      5.704
REMARK  Name = 
REMARK  5 active torsions:
REMARK  status: ('A' for Active; 'I' for Inactive)
REMARK    1  A    between atoms: C_1  and  N_2
REMARK    2  A    between atoms: N_2  and  C_3
REMARK    3  A    between atoms: N_2  and  C_4
REMARK    4  A    between atoms: C_4  and  C_5
REMARK    5  A    between atoms: N_14  and  C_15
REMARK                            x       y       z     vdW  Elec       q    Type
REMARK                         _______ _______ _______ _____ _____    ______ ____
ROOT
ATOM      1  C   UNL     1      -0.728  10.546  19.219  0.00  0.00    +0.000 C 
ATOM      2  O   UNL     1      -1.228   9.629  18.554  0.00  0.00    +0.000 OA
ATOM      3  N   UNL     1      -1.403  11.747  19.516  0.00  0.00    +0.000 N 
ATOM      4  C   UNL     1      -0.728  12.850  20.111  0.00  0.00    +0.000 A 
ATOM      5  C   UNL     1       0.297  13.515  19.407  0.00  0.00    +0.000 A 
ATOM      6  C   UNL     1       0.995  14.563  20.015  0.00  0.00    +0.000 A 
ATOM      7  C   UNL     1       0.687  14.956  21.316  0.00  0.00    +0.000 A 
ATOM      8  C   UNL     1      -0.319  14.298  22.016  0.00  0.00    +0.000 A 
ATOM      9  C   UNL     1      -1.022  13.258  21.410  0.00  0.00    +0.000 A 
ATOM     10  N   UNL     1      -2.081  12.666  22.128  0.00  0.00    +0.000 N 
ATOM     11  C   UNL     1      -1.852  11.572  23.064  0.00  0.00    +0.000 C 
ATOM     12  S   UNL     1      -3.614  13.070  21.619  0.00  0.00    +0.000 S 
ATOM     13  O   UNL     1      -4.555  12.317  22.423  0.00  0.00    +0.000 OA
ATOM     14  O   UNL     1      -3.692  14.513  21.538  0.00  0.00    +0.000 OA
ATOM     15  C   UNL     1      -3.793  12.499  19.955  0.00  0.00    +0.000 A 
ATOM     16  C   UNL     1      -5.131  12.588  19.508  0.00  0.00    +0.000 A 
ATOM     17  C   UNL     1      -5.483  12.165  18.234  0.00  0.00    +0.000 A 
ATOM     18 CL   UNL     1      -7.121  12.255  17.724  0.00  0.00    +0.000 Cl
ATOM     19  C   UNL     1      -4.508  11.663  17.388  0.00  0.00    +0.000 A 
ATOM     20  C   UNL     1      -3.182  11.557  17.837  0.00  0.00    +0.000 A 
ATOM     21  C   UNL     1      -2.783  11.950  19.144  0.00  0.00    +0.000 A 
ENDROOT
BRANCH   1  22
ATOM     22  C   UNL     1       0.665  10.307  19.859  0.00  0.00    +0.000 C 
BRANCH  22  24
ATOM     23  C   UNL     1       1.698   8.117  20.162  0.00  0.00    +0.000 C 
ATOM     24  N   UNL     1       0.702   9.066  20.678  0.00  0.00    +0.000 NA
ATOM     25  C   UNL     1       1.043   9.402  22.067  0.00  0.00    +0.000 C 
ENDBRANCH  22  24
ENDBRANCH   1  22
TORSDOF 2
ENDMDL
MODEL 6
REMARK VINA RESULT:      -5.8      4.455      7.097
REMARK  Name = 
REMARK  5 active torsions:
REMARK  status: ('A' for Active; 'I' for Inactive)
REMARK    1  A    between atoms: C_1  and  N_2
REMARK    2  A    between atoms: N_2  and  C_3
REMARK    3  A    between atoms: N_2  and  C_4
REMARK    4  A    between atoms: C_4  and  C_5
REMARK    5  A    between atoms: N_14  and  C_15
REMARK                            x       y       z     vdW  Elec       q    Type
REMARK                         _______ _______ _______ _____ _____    ______ ____
ROOT
ATOM      1  C   UNL     1      -0.827  12.349  18.772  0.00  0.00    +0.000 C 
ATOM      2  O   UNL     1      -0.732  13.116  17.806  0.00  0.00    +0.000 OA
ATOM      3  N   UNL     1      -0.448  12.700  20.083  0.00  0.00    +0.000 N 
ATOM      4  C   UNL     1      -0.388  11.731  21.124  0.00  0.00    +0.000 A 
ATOM      5  C   UNL     1       0.548  10.678  21.057  0.00  0.00    +0.000 A 
ATOM      6  C   UNL     1       0.566   9.697  22.054  0.00  0.00    +0.000 A 
ATOM      7  C   UNL     1      -0.335   9.749  23.114  0.00  0.00    +0.000 A 
ATOM      8  C   UNL     1      -1.265  10.783  23.180  0.00  0.00    +0.000 A 
ATOM      9  C   UNL     1      -1.282  11.766  22.193  0.00  0.00    +0.000 A 
ATOM     10  N   UNL     1      -2.191  12.834  22.335  0.00  0.00    +0.000 N 
ATOM     11  C   UNL     1      -3.563  12.740  21.849  0.00  0.00    +0.000 C 
ATOM     12  S   UNL     1      -1.529  14.290  22.796  0.00  0.00    +0.000 S 
ATOM     13  O   UNL     1      -2.598  15.269  22.821  0.00  0.00    +0.000 OA
ATOM     14  O   UNL     1      -0.707  14.058  23.965  0.00  0.00    +0.000 OA
ATOM     15  C   UNL     1      -0.404  14.793  21.528  0.00  0.00    +0.000 A 
ATOM     16  C   UNL     1       0.038  16.123  21.713  0.00  0.00    +0.000 A 
ATOM     17  C   UNL     1       0.909  16.713  20.807  0.00  0.00    +0.000 A 
ATOM     18 CL   UNL     1       1.410  18.340  21.036  0.00  0.00    +0.000 Cl
ATOM     19  C   UNL     1       1.359  15.983  19.719  0.00  0.00    +0.000 A 
ATOM     20  C   UNL     1       0.906  14.668  19.525  0.00  0.00    +0.000 A 
ATOM     21  C   UNL     1      -0.009  14.036  20.410  0.00  0.00    +0.000 A 
ENDROOT
BRANCH   1  22
ATOM     22  C   UNL     1      -1.513  10.975  18.548  0.00  0.00    +0.000 C 
BRANCH  22  24
ATOM     23  C   UNL     1      -2.934   9.760  16.980  0.00  0.00    +0.000 C 
ATOM     24  N   UNL     1      -2.651  11.064  17.595  0.00  0.00    +0.000 NA
ATOM     25  C   UNL     1      -3.853  11.525  18.303  0.00  0.00    +0.000 C 
ENDBRANCH  22  24
ENDBRANCH   1  22
TORSDOF 2
ENDMDL
MODEL 7
REMARK VINA RESULT:      -5.8      3.729      5.906
REMARK  Name = 
REMARK  5 active torsions:
REMARK  status: ('A' for Active; 'I' for Inactive)
REMARK    1  A    between atoms: C_1  and  N_2
REMARK    2  A    between atoms: N_2  and  C_3
REMARK    3  A    between atoms: N_2  and  C_4
REMARK    4  A    between atoms: C_4  and  C_5
REMARK    5  A    between atoms: N_14  and  C_15
REMARK                            x       y       z     vdW  Elec       q    Type
REMARK                         _______ _______ _______ _____ _____    ______ ____
ROOT
ATOM      1  C   UNL     1      -1.938  14.054  21.971  0.00  0.00    +0.000 C 
ATOM      2  O   UNL     1      -2.726  15.006  21.904  0.00  0.00    +0.000 OA
ATOM      3  N   UNL     1      -2.162  12.814  21.339  0.00  0.00    +0.000 N 
ATOM      4  C   UNL     1      -1.334  11.687  21.600  0.00  0.00    +0.000 A 
ATOM      5  C   UNL     1      -1.311  11.109  22.886  0.00  0.00    +0.000 A 
ATOM      6  C   UNL     1      -0.455  10.036  23.154  0.00  0.00    +0.000 A 
ATOM      7  C   UNL     1       0.379   9.532  22.159  0.00  0.00    +0.000 A 
ATOM      8  C   UNL     1       0.365  10.104  20.891  0.00  0.00    +0.000 A 
ATOM      9  C   UNL     1      -0.492  11.169  20.618  0.00  0.00    +0.000 A 
ATOM     10  N   UNL     1      -0.528  11.672  19.302  0.00  0.00    +0.000 N 
ATOM     11  C   UNL     1       0.409  12.694  18.849  0.00  0.00    +0.000 C 
ATOM     12  S   UNL     1      -1.874  11.267  18.409  0.00  0.00    +0.000 S 
ATOM     13  O   UNL     1      -1.762  11.926  17.123  0.00  0.00    +0.000 OA
ATOM     14  O   UNL     1      -2.053   9.833  18.496  0.00  0.00    +0.000 OA
ATOM     15  C   UNL     1      -3.282  11.963  19.220  0.00  0.00    +0.000 A 
ATOM     16  C   UNL     1      -4.447  11.873  18.423  0.00  0.00    +0.000 A 
ATOM     17  C   UNL     1      -5.656  12.386  18.873  0.00  0.00    +0.000 A 
ATOM     18 CL   UNL     1      -7.051  12.290  17.875  0.00  0.00    +0.000 Cl
ATOM     19  C   UNL     1      -5.722  12.980  20.122  0.00  0.00    +0.000 A 
ATOM     20  C   UNL     1      -4.562  13.087  20.907  0.00  0.00    +0.000 A 
ATOM     21  C   UNL     1      -3.297  12.603  20.473  0.00  0.00    +0.000 A 
ENDROOT
BRANCH   1  22
ATOM     22  C   UNL     1      -0.579  14.280  22.685  0.00  0.00    +0.000 C 
BRANCH  22  24
ATOM     23  C   UNL     1       0.430  16.502  22.737  0.00  0.00    +0.000 C 
ATOM     24  N   UNL     1       0.278  15.260  21.966  0.00  0.00    +0.000 NA
ATOM     25  C   UNL     1       1.608  14.678  21.737  0.00  0.00    +0.000 C 
ENDBRANCH  22  24
ENDBRANCH   1  22
TORSDOF 2
ENDMDL
MODEL 8
REMARK VINA RESULT:      -5.7      3.549      6.130
REMARK  Name = 
REMARK  5 active torsions:
REMARK  status: ('A' for Active; 'I' for Inactive)
REMARK    1  A    between atoms: C_1  and  N_2
REMARK    2  A    between atoms: N_2  and  C_3
REMARK    3  A    between atoms: N_2  and  C_4
REMARK    4  A    between atoms: C_4  and  C_5
REMARK    5  A    between atoms: N_14  and  C_15
REMARK                            x       y       z     vdW  Elec       q    Type
REMARK                         _______ _______ _______ _____ _____    ______ ____
ROOT
ATOM      1  C   UNL     1      -1.077  10.576  18.937  0.00  0.00    +0.000 C 
ATOM      2  O   UNL     1      -1.709   9.713  18.315  0.00  0.00    +0.000 OA
ATOM      3  N   UNL     1      -1.650  11.779  19.395  0.00  0.00    +0.000 N 
ATOM      4  C   UNL     1      -0.849  12.827  19.930  0.00  0.00    +0.000 A 
ATOM      5  C   UNL     1       0.079  13.498  19.107  0.00  0.00    +0.000 A 
ATOM      6  C   UNL     1       0.903  14.490  19.649  0.00  0.00    +0.000 A 
ATOM      7  C   UNL     1       0.816  14.820  20.999  0.00  0.00    +0.000 A 
ATOM      8  C   UNL     1      -0.093  14.156  21.816  0.00  0.00    +0.000 A 
ATOM      9  C   UNL     1      -0.921  13.172  21.278  0.00  0.00    +0.000 A 
ATOM     10  N   UNL     1      -1.878  12.574  22.123  0.00  0.00    +0.000 N 
ATOM     11  C   UNL     1      -1.548  11.424  22.957  0.00  0.00    +0.000 C 
ATOM     12  S   UNL     1      -3.454  13.052  21.882  0.00  0.00    +0.000 S 
ATOM     13  O   UNL     1      -4.288  12.285  22.787  0.00  0.00    +0.000 OA
ATOM     14  O   UNL     1      -3.489  14.499  21.886  0.00  0.00    +0.000 OA
ATOM     15  C   UNL     1      -3.912  12.579  20.241  0.00  0.00    +0.000 A 
ATOM     16  C   UNL     1      -5.299  12.732  20.016  0.00  0.00    +0.000 A 
ATOM     17  C   UNL     1      -5.861  12.390  18.793  0.00  0.00    +0.000 A 
ATOM     18 CL   UNL     1      -7.554  12.558  18.553  0.00  0.00    +0.000 Cl
ATOM     19  C   UNL     1      -5.050  11.906  17.781  0.00  0.00    +0.000 A 
ATOM     20  C   UNL     1      -3.675  11.735  18.010  0.00  0.00    +0.000 A 
ATOM     21  C   UNL     1      -3.062  12.044  19.256  0.00  0.00    +0.000 A 
ENDROOT
BRANCH   1  22
ATOM     22  C   UNL     1       0.389  10.260  19.337  0.00  0.00    +0.000 C 
BRANCH  22  24
ATOM     23  C   UNL     1       2.256  10.996  17.949  0.00  0.00    +0.000 C 
ATOM     24  N   UNL     1       1.240   9.955  18.157  0.00  0.00    +0.000 NA
ATOM     25  C   UNL     1       1.917   8.666  18.356  0.00  0.00    +0.000 C 
ENDBRANCH  22  24
ENDBRANCH   1  22
TORSDOF 2
ENDMDL
MODEL 9
REMARK VINA RESULT:      -5.6      4.128      5.524
REMARK  Name = 
REMARK  5 active torsions:
REMARK  status: ('A' for Active; 'I' for Inactive)
REMARK    1  A    between atoms: C_1  and  N_2
REMARK    2  A    between atoms: N_2  and  C_3
REMARK    3  A    between atoms: N_2  and  C_4
REMARK    4  A    between atoms: C_4  and  C_5
REMARK    5  A    between atoms: N_14  and  C_15
REMARK                            x       y       z     vdW  Elec       q    Type
REMARK                         _______ _______ _______ _____ _____    ______ ____
ROOT
ATOM      1  C   UNL     1      -1.452  11.490  22.897  0.00  0.00    +0.000 C 
ATOM      2  O   UNL     1      -1.574  10.421  23.507  0.00  0.00    +0.000 OA
ATOM      3  N   UNL     1      -0.580  11.666  21.804  0.00  0.00    +0.000 N 
ATOM      4  C   UNL     1      -0.324  12.955  21.258  0.00  0.00    +0.000 A 
ATOM      5  C   UNL     1       0.332  13.934  22.032  0.00  0.00    +0.000 A 
ATOM      6  C   UNL     1       0.532  15.217  21.512  0.00  0.00    +0.000 A 
ATOM      7  C   UNL     1       0.087  15.538  20.232  0.00  0.00    +0.000 A 
ATOM      8  C   UNL     1      -0.567  14.577  19.467  0.00  0.00    +0.000 A 
ATOM      9  C   UNL     1      -0.763  13.295  19.979  0.00  0.00    +0.000 A 
ATOM     10  N   UNL     1      -1.365  12.332  19.146  0.00  0.00    +0.000 N 
ATOM     11  C   UNL     1      -2.814  12.197  19.056  0.00  0.00    +0.000 C 
ATOM     12  S   UNL     1      -0.343  11.174  18.524  0.00  0.00    +0.000 S 
ATOM     13  O   UNL     1      -1.148  10.244  17.758  0.00  0.00    +0.000 OA
ATOM     14  O   UNL     1       0.786  11.851  17.920  0.00  0.00    +0.000 OA
ATOM     15  C   UNL     1       0.330  10.268  19.884  0.00  0.00    +0.000 A 
ATOM     16  C   UNL     1       1.031   9.117  19.456  0.00  0.00    +0.000 A 
ATOM     17  C   UNL     1       1.614   8.257  20.377  0.00  0.00    +0.000 A 
ATOM     18 CL   UNL     1       2.435   6.849  19.834  0.00  0.00    +0.000 Cl
ATOM     19  C   UNL     1       1.518   8.540  21.729  0.00  0.00    +0.000 A 
ATOM     20  C   UNL     1       0.806   9.673  22.157  0.00  0.00    +0.000 A 
ATOM     21  C   UNL     1       0.168  10.563  21.250  0.00  0.00    +0.000 A 
ENDROOT
BRANCH   1  22
ATOM     22  C   UNL     1      -2.399  12.660  23.278  0.00  0.00    +0.000 C 
BRANCH  22  24
ATOM     23  C   UNL     1      -4.382  12.525  24.693  0.00  0.00    +0.000 C 
ATOM     24  N   UNL     1      -3.818  12.226  23.370  0.00  0.00    +0.000 NA
ATOM     25  C   UNL     1      -4.613  12.921  22.348  0.00  0.00    +0.000 C 
ENDBRANCH  22  24
ENDBRANCH   1  22
TORSDOF 2
ENDMDL
