MODEL 1
REMARK VINA RESULT:      -7.2      0.000      0.000
REMARK  Name = 
REMARK  10 active torsions:
REMARK  status: ('A' for Active; 'I' for Inactive)
REMARK    1  A    between atoms: C_2  and  C_3
REMARK    2  A    between atoms: C_3  and  C_4
REMARK    3  A    between atoms: C_4  and  S_5
REMARK    4  A    between atoms: S_5  and  C_6
REMARK    5  A    between atoms: C_13  and  C_15
REMARK    6  A    between atoms: C_15  and  O_16
REMARK    7  A    between atoms: O_16  and  C_17
REMARK    8  A    between atoms: C_17  and  C_19
REMARK    9  A    between atoms: C_22  and  O_23
REMARK   10  A    between atoms: O_23  and  C_24
REMARK                            x       y       z     vdW  Elec       q    Type
REMARK                         _______ _______ _______ _____ _____    ______ ____
ROOT
ATOM      1  O   UNL     1       6.119   7.315  16.247  0.00  0.00    +0.000 OA
ATOM      2  C   UNL     1       6.497   6.868  17.330  0.00  0.00    +0.000 C 
ATOM      3  N   UNL     1       5.796   5.838  17.930  0.00  0.00    +0.000 N 
ATOM      4  C   UNL     1       6.075   5.168  19.113  0.00  0.00    +0.000 C 
ATOM      5  O   UNL     1       7.011   5.424  19.867  0.00  0.00    +0.000 OA
ATOM      6  H   UNL     1       5.046   5.472  17.347  0.00  0.00    +0.000 HD
ENDROOT
BRANCH   2   7
ATOM      7  C   UNL     1       7.723   7.382  18.052  0.00  0.00    +0.000 C 
BRANCH   7   8
ATOM      8  C   UNL     1       8.097   8.808  17.675  0.00  0.00    +0.000 C 
BRANCH   8   9
ATOM      9  S   UNL     1       8.967   9.540  19.114  0.00  0.00    +0.000 S 
BRANCH   9  10
ATOM     10  C   UNL     1       9.636  11.015  18.382  0.00  0.00    +0.000 A 
ATOM     11  C   UNL     1       8.763  12.042  18.011  0.00  0.00    +0.000 A 
ATOM     12  C   UNL     1       9.257  13.217  17.441  0.00  0.00    +0.000 A 
ATOM     13  C   UNL     1      10.629  13.374  17.253  0.00  0.00    +0.000 A 
ATOM     14  C   UNL     1      11.506  12.364  17.645  0.00  0.00    +0.000 A 
ATOM     15  C   UNL     1      11.012  11.189  18.212  0.00  0.00    +0.000 A 
ENDBRANCH   9  10
ENDBRANCH   8   9
ENDBRANCH   7   8
ENDBRANCH   2   7
BRANCH   4  16
ATOM     16  C   UNL     1       5.107   4.033  19.435  0.00  0.00    +0.000 C 
BRANCH  16  17
ATOM     17  O   UNL     1       3.919   4.104  18.644  0.00  0.00    +0.000 OA
BRANCH  17  18
ATOM     18  C   UNL     1       2.786   4.317  19.352  0.00  0.00    +0.000 C 
ATOM     19  O   UNL     1       2.163   3.449  19.946  0.00  0.00    +0.000 OA
BRANCH  18  20
ATOM     20  C   UNL     1       2.407   5.755  19.331  0.00  0.00    +0.000 A 
ATOM     21  C   UNL     1       1.945   6.330  20.519  0.00  0.00    +0.000 A 
ATOM     22  C   UNL     1       1.575   7.676  20.551  0.00  0.00    +0.000 A 
ATOM     23  C   UNL     1       1.678   8.469  19.406  0.00  0.00    +0.000 A 
ATOM     24  C   UNL     1       2.122   7.899  18.212  0.00  0.00    +0.000 A 
ATOM     25  C   UNL     1       2.492   6.547  18.175  0.00  0.00    +0.000 A 
BRANCH  23  26
ATOM     26  O   UNL     1       1.281   9.766  19.571  0.00  0.00    +0.000 OA
BRANCH  26  27
ATOM     27  C   UNL     1       0.006   9.954  20.160  0.00  0.00    +0.000 C 
ATOM     28  F   UNL     1      -0.072  11.218  20.643  0.00  0.00    +0.000 F 
ATOM     29  F   UNL     1      -0.913   9.858  19.166  0.00  0.00    +0.000 F 
ENDBRANCH  26  27
ENDBRANCH  23  26
ENDBRANCH  18  20
ENDBRANCH  17  18
ENDBRANCH  16  17
ENDBRANCH   4  16
TORSDOF 10
ENDMDL
MODEL 2
REMARK VINA RESULT:      -7.0      4.096      7.974
REMARK  Name = 
REMARK  10 active torsions:
REMARK  status: ('A' for Active; 'I' for Inactive)
REMARK    1  A    between atoms: C_2  and  C_3
REMARK    2  A    between atoms: C_3  and  C_4
REMARK    3  A    between atoms: C_4  and  S_5
REMARK    4  A    between atoms: S_5  and  C_6
REMARK    5  A    between atoms: C_13  and  C_15
REMARK    6  A    between atoms: C_15  and  O_16
REMARK    7  A    between atoms: O_16  and  C_17
REMARK    8  A    between atoms: C_17  and  C_19
REMARK    9  A    between atoms: C_22  and  O_23
REMARK   10  A    between atoms: O_23  and  C_24
REMARK                            x       y       z     vdW  Elec       q    Type
REMARK                         _______ _______ _______ _____ _____    ______ ____
ROOT
ATOM      1  O   UNL     1       1.606   8.272  21.122  0.00  0.00    +0.000 OA
ATOM      2  C   UNL     1       1.851   7.686  20.067  0.00  0.00    +0.000 C 
ATOM      3  N   UNL     1       1.846   6.304  20.033  0.00  0.00    +0.000 N 
ATOM      4  C   UNL     1       2.050   5.459  18.950  0.00  0.00    +0.000 C 
ATOM      5  O   UNL     1       2.317   5.825  17.808  0.00  0.00    +0.000 OA
ATOM      6  H   UNL     1       1.539   5.883  20.907  0.00  0.00    +0.000 HD
ENDROOT
BRANCH   2   7
ATOM      7  C   UNL     1       2.150   8.409  18.773  0.00  0.00    +0.000 C 
BRANCH   7   8
ATOM      8  C   UNL     1       0.904   8.894  18.046  0.00  0.00    +0.000 C 
BRANCH   8   9
ATOM      9  S   UNL     1       0.455  10.522  18.762  0.00  0.00    +0.000 S 
BRANCH   9  10
ATOM     10  C   UNL     1      -1.248  10.644  18.267  0.00  0.00    +0.000 A 
ATOM     11  C   UNL     1      -2.071  11.582  18.899  0.00  0.00    +0.000 A 
ATOM     12  C   UNL     1      -3.410  11.708  18.527  0.00  0.00    +0.000 A 
ATOM     13  C   UNL     1      -3.929  10.906  17.512  0.00  0.00    +0.000 A 
ATOM     14  C   UNL     1      -3.107   9.987  16.862  0.00  0.00    +0.000 A 
ATOM     15  C   UNL     1      -1.768   9.859  17.235  0.00  0.00    +0.000 A 
ENDBRANCH   9  10
ENDBRANCH   8   9
ENDBRANCH   7   8
ENDBRANCH   2   7
BRANCH   4  16
ATOM     16  C   UNL     1       1.906   3.976  19.276  0.00  0.00    +0.000 C 
BRANCH  16  17
ATOM     17  O   UNL     1       3.164   3.373  19.587  0.00  0.00    +0.000 OA
BRANCH  17  18
ATOM     18  C   UNL     1       3.831   2.884  18.516  0.00  0.00    +0.000 C 
ATOM     19  O   UNL     1       3.625   1.792  18.007  0.00  0.00    +0.000 OA
BRANCH  18  20
ATOM     20  C   UNL     1       4.839   3.861  18.026  0.00  0.00    +0.000 A 
ATOM     21  C   UNL     1       5.522   4.631  18.973  0.00  0.00    +0.000 A 
ATOM     22  C   UNL     1       6.477   5.564  18.564  0.00  0.00    +0.000 A 
ATOM     23  C   UNL     1       6.775   5.729  17.209  0.00  0.00    +0.000 A 
ATOM     24  C   UNL     1       6.087   4.977  16.257  0.00  0.00    +0.000 A 
ATOM     25  C   UNL     1       5.126   4.040  16.664  0.00  0.00    +0.000 A 
BRANCH  23  26
ATOM     26  O   UNL     1       7.724   6.676  16.944  0.00  0.00    +0.000 OA
BRANCH  26  27
ATOM     27  C   UNL     1       7.779   7.768  17.845  0.00  0.00    +0.000 C 
ATOM     28  F   UNL     1       8.725   7.516  18.783  0.00  0.00    +0.000 F 
ATOM     29  F   UNL     1       8.203   8.848  17.142  0.00  0.00    +0.000 F 
ENDBRANCH  26  27
ENDBRANCH  23  26
ENDBRANCH  18  20
ENDBRANCH  17  18
ENDBRANCH  16  17
ENDBRANCH   4  16
TORSDOF 10
ENDMDL
MODEL 3
REMARK VINA RESULT:      -7.0      1.442      1.948
REMARK  Name = 
REMARK  10 active torsions:
REMARK  status: ('A' for Active; 'I' for Inactive)
REMARK    1  A    between atoms: C_2  and  C_3
REMARK    2  A    between atoms: C_3  and  C_4
REMARK    3  A    between atoms: C_4  and  S_5
REMARK    4  A    between atoms: S_5  and  C_6
REMARK    5  A    between atoms: C_13  and  C_15
REMARK    6  A    between atoms: C_15  and  O_16
REMARK    7  A    between atoms: O_16  and  C_17
REMARK    8  A    between atoms: C_17  and  C_19
REMARK    9  A    between atoms: C_22  and  O_23
REMARK   10  A    between atoms: O_23  and  C_24
REMARK                            x       y       z     vdW  Elec       q    Type
REMARK                         _______ _______ _______ _____ _____    ______ ____
ROOT
ATOM      1  O   UNL     1       7.669   6.130  19.330  0.00  0.00    +0.000 OA
ATOM      2  C   UNL     1       7.285   6.231  18.165  0.00  0.00    +0.000 C 
ATOM      3  N   UNL     1       6.327   5.361  17.680  0.00  0.00    +0.000 N 
ATOM      4  C   UNL     1       5.732   5.332  16.426  0.00  0.00    +0.000 C 
ATOM      5  O   UNL     1       6.005   6.088  15.496  0.00  0.00    +0.000 OA
ATOM      6  H   UNL     1       5.949   4.743  18.394  0.00  0.00    +0.000 HD
ENDROOT
BRANCH   2   7
ATOM      7  C   UNL     1       7.803   7.289  17.216  0.00  0.00    +0.000 C 
BRANCH   7   8
ATOM      8  C   UNL     1       7.548   8.712  17.694  0.00  0.00    +0.000 C 
BRANCH   8   9
ATOM      9  S   UNL     1       8.916   9.156  18.832  0.00  0.00    +0.000 S 
BRANCH   9  10
ATOM     10  C   UNL     1       9.283  10.805  18.282  0.00  0.00    +0.000 A 
ATOM     11  C   UNL     1       8.233  11.631  17.868  0.00  0.00    +0.000 A 
ATOM     12  C   UNL     1       8.487  12.934  17.437  0.00  0.00    +0.000 A 
ATOM     13  C   UNL     1       9.793  13.421  17.432  0.00  0.00    +0.000 A 
ATOM     14  C   UNL     1      10.840  12.612  17.868  0.00  0.00    +0.000 A 
ATOM     15  C   UNL     1      10.587  11.309  18.296  0.00  0.00    +0.000 A 
ENDBRANCH   9  10
ENDBRANCH   8   9
ENDBRANCH   7   8
ENDBRANCH   2   7
BRANCH   4  16
ATOM     16  C   UNL     1       4.659   4.260  16.265  0.00  0.00    +0.000 C 
BRANCH  16  17
ATOM     17  O   UNL     1       4.096   3.875  17.521  0.00  0.00    +0.000 OA
BRANCH  17  18
ATOM     18  C   UNL     1       2.759   4.061  17.617  0.00  0.00    +0.000 C 
ATOM     19  O   UNL     1       1.920   3.386  17.040  0.00  0.00    +0.000 OA
BRANCH  18  20
ATOM     20  C   UNL     1       2.444   5.187  18.536  0.00  0.00    +0.000 A 
ATOM     21  C   UNL     1       1.978   4.876  19.818  0.00  0.00    +0.000 A 
ATOM     22  C   UNL     1       1.666   5.897  20.718  0.00  0.00    +0.000 A 
ATOM     23  C   UNL     1       1.831   7.237  20.360  0.00  0.00    +0.000 A 
ATOM     24  C   UNL     1       2.280   7.555  19.078  0.00  0.00    +0.000 A 
ATOM     25  C   UNL     1       2.592   6.534  18.170  0.00  0.00    +0.000 A 
BRANCH  23  26
ATOM     26  O   UNL     1       1.487   8.135  21.330  0.00  0.00    +0.000 OA
BRANCH  26  27
ATOM     27  C   UNL     1       0.294   8.867  21.103  0.00  0.00    +0.000 C 
ATOM     28  F   UNL     1      -0.666   8.412  21.944  0.00  0.00    +0.000 F 
ATOM     29  F   UNL     1       0.541  10.155  21.451  0.00  0.00    +0.000 F 
ENDBRANCH  26  27
ENDBRANCH  23  26
ENDBRANCH  18  20
ENDBRANCH  17  18
ENDBRANCH  16  17
ENDBRANCH   4  16
TORSDOF 10
ENDMDL
MODEL 4
REMARK VINA RESULT:      -6.9      3.606      8.616
REMARK  Name = 
REMARK  10 active torsions:
REMARK  status: ('A' for Active; 'I' for Inactive)
REMARK    1  A    between atoms: C_2  and  C_3
REMARK    2  A    between atoms: C_3  and  C_4
REMARK    3  A    between atoms: C_4  and  S_5
REMARK    4  A    between atoms: S_5  and  C_6
REMARK    5  A    between atoms: C_13  and  C_15
REMARK    6  A    between atoms: C_15  and  O_16
REMARK    7  A    between atoms: O_16  and  C_17
REMARK    8  A    between atoms: C_17  and  C_19
REMARK    9  A    between atoms: C_22  and  O_23
REMARK   10  A    between atoms: O_23  and  C_24
REMARK                            x       y       z     vdW  Elec       q    Type
REMARK                         _______ _______ _______ _____ _____    ______ ____
ROOT
ATOM      1  O   UNL     1       8.045   4.941  19.370  0.00  0.00    +0.000 OA
ATOM      2  C   UNL     1       7.830   5.876  18.600  0.00  0.00    +0.000 C 
ATOM      3  N   UNL     1       8.280   7.144  18.916  0.00  0.00    +0.000 N 
ATOM      4  C   UNL     1       8.183   8.314  18.174  0.00  0.00    +0.000 C 
ATOM      5  O   UNL     1       7.622   8.416  17.086  0.00  0.00    +0.000 OA
ATOM      6  H   UNL     1       8.851   7.168  19.758  0.00  0.00    +0.000 HD
ENDROOT
BRANCH   2   7
ATOM      7  C   UNL     1       7.098   5.710  17.287  0.00  0.00    +0.000 C 
BRANCH   7   8
ATOM      8  C   UNL     1       5.922   4.747  17.364  0.00  0.00    +0.000 C 
BRANCH   8   9
ATOM      9  S   UNL     1       4.418   5.749  17.681  0.00  0.00    +0.000 S 
BRANCH   9  10
ATOM     10  C   UNL     1       3.240   4.471  18.049  0.00  0.00    +0.000 A 
ATOM     11  C   UNL     1       2.153   4.771  18.876  0.00  0.00    +0.000 A 
ATOM     12  C   UNL     1       1.204   3.791  19.178  0.00  0.00    +0.000 A 
ATOM     13  C   UNL     1       1.333   2.511  18.642  0.00  0.00    +0.000 A 
ATOM     14  C   UNL     1       2.400   2.214  17.796  0.00  0.00    +0.000 A 
ATOM     15  C   UNL     1       3.349   3.192  17.497  0.00  0.00    +0.000 A 
ENDBRANCH   9  10
ENDBRANCH   8   9
ENDBRANCH   7   8
ENDBRANCH   2   7
BRANCH   4  16
ATOM     16  C   UNL     1       8.855   9.523  18.817  0.00  0.00    +0.000 C 
BRANCH  16  17
ATOM     17  O   UNL     1       9.295  10.470  17.842  0.00  0.00    +0.000 OA
BRANCH  17  18
ATOM     18  C   UNL     1       9.896  11.568  18.358  0.00  0.00    +0.000 C 
ATOM     19  O   UNL     1      11.059  11.615  18.730  0.00  0.00    +0.000 OA
BRANCH  18  20
ATOM     20  C   UNL     1       8.956  12.721  18.395  0.00  0.00    +0.000 A 
ATOM     21  C   UNL     1       9.032  13.594  19.485  0.00  0.00    +0.000 A 
ATOM     22  C   UNL     1       8.171  14.690  19.567  0.00  0.00    +0.000 A 
ATOM     23  C   UNL     1       7.238  14.939  18.558  0.00  0.00    +0.000 A 
ATOM     24  C   UNL     1       7.145  14.063  17.476  0.00  0.00    +0.000 A 
ATOM     25  C   UNL     1       8.006  12.960  17.390  0.00  0.00    +0.000 A 
BRANCH  23  26
ATOM     26  O   UNL     1       6.455  16.040  18.762  0.00  0.00    +0.000 OA
BRANCH  26  27
ATOM     27  C   UNL     1       5.098  15.785  19.083  0.00  0.00    +0.000 C 
ATOM     28  F   UNL     1       4.408  15.574  17.935  0.00  0.00    +0.000 F 
ATOM     29  F   UNL     1       5.063  14.622  19.780  0.00  0.00    +0.000 F 
ENDBRANCH  26  27
ENDBRANCH  23  26
ENDBRANCH  18  20
ENDBRANCH  17  18
ENDBRANCH  16  17
ENDBRANCH   4  16
TORSDOF 10
ENDMDL
MODEL 5
REMARK VINA RESULT:      -6.9      4.012      7.589
REMARK  Name = 
REMARK  10 active torsions:
REMARK  status: ('A' for Active; 'I' for Inactive)
REMARK    1  A    between atoms: C_2  and  C_3
REMARK    2  A    between atoms: C_3  and  C_4
REMARK    3  A    between atoms: C_4  and  S_5
REMARK    4  A    between atoms: S_5  and  C_6
REMARK    5  A    between atoms: C_13  and  C_15
REMARK    6  A    between atoms: C_15  and  O_16
REMARK    7  A    between atoms: O_16  and  C_17
REMARK    8  A    between atoms: C_17  and  C_19
REMARK    9  A    between atoms: C_22  and  O_23
REMARK   10  A    between atoms: O_23  and  C_24
REMARK                            x       y       z     vdW  Elec       q    Type
REMARK                         _______ _______ _______ _____ _____    ______ ____
ROOT
ATOM      1  O   UNL     1       2.132   7.790  18.113  0.00  0.00    +0.000 OA
ATOM      2  C   UNL     1       2.079   7.150  19.163  0.00  0.00    +0.000 C 
ATOM      3  N   UNL     1       2.129   5.769  19.129  0.00  0.00    +0.000 N 
ATOM      4  C   UNL     1       2.128   4.871  20.188  0.00  0.00    +0.000 C 
ATOM      5  O   UNL     1       2.041   5.177  21.374  0.00  0.00    +0.000 OA
ATOM      6  H   UNL     1       2.300   5.398  18.197  0.00  0.00    +0.000 HD
ENDROOT
BRANCH   2   7
ATOM      7  C   UNL     1       1.976   7.805  20.523  0.00  0.00    +0.000 C 
BRANCH   7   8
ATOM      8  C   UNL     1       0.607   8.408  20.805  0.00  0.00    +0.000 C 
BRANCH   8   9
ATOM      9  S   UNL     1       0.800  10.232  20.774  0.00  0.00    +0.000 S 
BRANCH   9  10
ATOM     10  C   UNL     1      -0.520  10.687  19.675  0.00  0.00    +0.000 A 
ATOM     11  C   UNL     1      -0.651  10.010  18.458  0.00  0.00    +0.000 A 
ATOM     12  C   UNL     1      -1.683  10.337  17.576  0.00  0.00    +0.000 A 
ATOM     13  C   UNL     1      -2.595  11.335  17.914  0.00  0.00    +0.000 A 
ATOM     14  C   UNL     1      -2.485  11.995  19.137  0.00  0.00    +0.000 A 
ATOM     15  C   UNL     1      -1.453  11.669  20.017  0.00  0.00    +0.000 A 
ENDBRANCH   9  10
ENDBRANCH   8   9
ENDBRANCH   7   8
ENDBRANCH   2   7
BRANCH   4  16
ATOM     16  C   UNL     1       2.259   3.409  19.770  0.00  0.00    +0.000 C 
BRANCH  16  17
ATOM     17  O   UNL     1       3.611   3.056  19.477  0.00  0.00    +0.000 OA
BRANCH  17  18
ATOM     18  C   UNL     1       3.894   2.965  18.157  0.00  0.00    +0.000 C 
ATOM     19  O   UNL     1       3.413   2.138  17.397  0.00  0.00    +0.000 OA
BRANCH  18  20
ATOM     20  C   UNL     1       4.856   4.023  17.745  0.00  0.00    +0.000 A 
ATOM     21  C   UNL     1       5.865   4.379  18.646  0.00  0.00    +0.000 A 
ATOM     22  C   UNL     1       6.791   5.367  18.308  0.00  0.00    +0.000 A 
ATOM     23  C   UNL     1       6.735   5.999  17.064  0.00  0.00    +0.000 A 
ATOM     24  C   UNL     1       5.722   5.661  16.166  0.00  0.00    +0.000 A 
ATOM     25  C   UNL     1       4.789   4.671  16.502  0.00  0.00    +0.000 A 
BRANCH  23  26
ATOM     26  O   UNL     1       7.697   6.949  16.861  0.00  0.00    +0.000 OA
BRANCH  26  27
ATOM     27  C   UNL     1       7.757   7.985  17.825  0.00  0.00    +0.000 C 
ATOM     28  F   UNL     1       8.693   7.667  18.753  0.00  0.00    +0.000 F 
ATOM     29  F   UNL     1       8.200   9.100  17.190  0.00  0.00    +0.000 F 
ENDBRANCH  26  27
ENDBRANCH  23  26
ENDBRANCH  18  20
ENDBRANCH  17  18
ENDBRANCH  16  17
ENDBRANCH   4  16
TORSDOF 10
ENDMDL
MODEL 6
REMARK VINA RESULT:      -6.9      5.773     10.640
REMARK  Name = 
REMARK  10 active torsions:
REMARK  status: ('A' for Active; 'I' for Inactive)
REMARK    1  A    between atoms: C_2  and  C_3
REMARK    2  A    between atoms: C_3  and  C_4
REMARK    3  A    between atoms: C_4  and  S_5
REMARK    4  A    between atoms: S_5  and  C_6
REMARK    5  A    between atoms: C_13  and  C_15
REMARK    6  A    between atoms: C_15  and  O_16
REMARK    7  A    between atoms: O_16  and  C_17
REMARK    8  A    between atoms: C_17  and  C_19
REMARK    9  A    between atoms: C_22  and  O_23
REMARK   10  A    between atoms: O_23  and  C_24
REMARK                            x       y       z     vdW  Elec       q    Type
REMARK                         _______ _______ _______ _____ _____    ______ ____
ROOT
ATOM      1  O   UNL     1      -2.502   9.735  15.764  0.00  0.00    +0.000 OA
ATOM      2  C   UNL     1      -2.063   9.910  16.901  0.00  0.00    +0.000 C 
ATOM      3  N   UNL     1      -0.707   9.785  17.140  0.00  0.00    +0.000 N 
ATOM      4  C   UNL     1      -0.009   9.982  18.324  0.00  0.00    +0.000 C 
ATOM      5  O   UNL     1      -0.518  10.273  19.404  0.00  0.00    +0.000 OA
ATOM      6  H   UNL     1      -0.163   9.639  16.292  0.00  0.00    +0.000 HD
ENDROOT
BRANCH   2   7
ATOM      7  C   UNL     1      -2.941  10.277  18.076  0.00  0.00    +0.000 C 
BRANCH   7   8
ATOM      8  C   UNL     1      -3.598  11.643  17.941  0.00  0.00    +0.000 C 
BRANCH   8   9
ATOM      9  S   UNL     1      -5.395  11.362  17.706  0.00  0.00    +0.000 S 
BRANCH   9  10
ATOM     10  C   UNL     1      -6.003  11.719  19.337  0.00  0.00    +0.000 A 
ATOM     11  C   UNL     1      -7.235  11.188  19.732  0.00  0.00    +0.000 A 
ATOM     12  C   UNL     1      -7.737  11.443  21.009  0.00  0.00    +0.000 A 
ATOM     13  C   UNL     1      -7.001  12.219  21.902  0.00  0.00    +0.000 A 
ATOM     14  C   UNL     1      -5.761  12.730  21.524  0.00  0.00    +0.000 A 
ATOM     15  C   UNL     1      -5.260  12.477  20.246  0.00  0.00    +0.000 A 
ENDBRANCH   9  10
ENDBRANCH   8   9
ENDBRANCH   7   8
ENDBRANCH   2   7
BRANCH   4  16
ATOM     16  C   UNL     1       1.501   9.815  18.198  0.00  0.00    +0.000 C 
BRANCH  16  17
ATOM     17  O   UNL     1       1.855   8.534  17.672  0.00  0.00    +0.000 OA
BRANCH  17  18
ATOM     18  C   UNL     1       2.335   7.664  18.591  0.00  0.00    +0.000 C 
ATOM     19  O   UNL     1       2.023   7.657  19.772  0.00  0.00    +0.000 OA
BRANCH  18  20
ATOM     20  C   UNL     1       3.281   6.699  17.967  0.00  0.00    +0.000 A 
ATOM     21  C   UNL     1       4.447   7.207  17.386  0.00  0.00    +0.000 A 
ATOM     22  C   UNL     1       5.365   6.344  16.785  0.00  0.00    +0.000 A 
ATOM     23  C   UNL     1       5.143   4.965  16.772  0.00  0.00    +0.000 A 
ATOM     24  C   UNL     1       3.974   4.453  17.336  0.00  0.00    +0.000 A 
ATOM     25  C   UNL     1       3.048   5.316  17.938  0.00  0.00    +0.000 A 
BRANCH  23  26
ATOM     26  O   UNL     1       6.116   4.234  16.151  0.00  0.00    +0.000 OA
BRANCH  26  27
ATOM     27  C   UNL     1       5.843   3.848  14.816  0.00  0.00    +0.000 C 
ATOM     28  F   UNL     1       5.061   4.792  14.237  0.00  0.00    +0.000 F 
ATOM     29  F   UNL     1       7.023   3.854  14.146  0.00  0.00    +0.000 F 
ENDBRANCH  26  27
ENDBRANCH  23  26
ENDBRANCH  18  20
ENDBRANCH  17  18
ENDBRANCH  16  17
ENDBRANCH   4  16
TORSDOF 10
ENDMDL
MODEL 7
REMARK VINA RESULT:      -6.8      4.671      7.888
REMARK  Name = 
REMARK  10 active torsions:
REMARK  status: ('A' for Active; 'I' for Inactive)
REMARK    1  A    between atoms: C_2  and  C_3
REMARK    2  A    between atoms: C_3  and  C_4
REMARK    3  A    between atoms: C_4  and  S_5
REMARK    4  A    between atoms: S_5  and  C_6
REMARK    5  A    between atoms: C_13  and  C_15
REMARK    6  A    between atoms: C_15  and  O_16
REMARK    7  A    between atoms: O_16  and  C_17
REMARK    8  A    between atoms: C_17  and  C_19
REMARK    9  A    between atoms: C_22  and  O_23
REMARK   10  A    between atoms: O_23  and  C_24
REMARK                            x       y       z     vdW  Elec       q    Type
REMARK                         _______ _______ _______ _____ _____    ______ ____
ROOT
ATOM      1  O   UNL     1       5.573   6.962  16.659  0.00  0.00    +0.000 OA
ATOM      2  C   UNL     1       4.591   6.904  17.397  0.00  0.00    +0.000 C 
ATOM      3  N   UNL     1       3.702   7.962  17.441  0.00  0.00    +0.000 N 
ATOM      4  C   UNL     1       2.522   8.079  18.164  0.00  0.00    +0.000 C 
ATOM      5  O   UNL     1       2.084   7.236  18.943  0.00  0.00    +0.000 OA
ATOM      6  H   UNL     1       3.910   8.688  16.759  0.00  0.00    +0.000 HD
ENDROOT
BRANCH   2   7
ATOM      7  C   UNL     1       4.284   5.707  18.269  0.00  0.00    +0.000 C 
BRANCH   7   8
ATOM      8  C   UNL     1       5.139   4.488  17.952  0.00  0.00    +0.000 C 
BRANCH   8   9
ATOM      9  S   UNL     1       4.978   3.328  19.363  0.00  0.00    +0.000 S 
BRANCH   9  10
ATOM     10  C   UNL     1       3.210   3.249  19.527  0.00  0.00    +0.000 A 
ATOM     11  C   UNL     1       2.476   2.514  18.590  0.00  0.00    +0.000 A 
ATOM     12  C   UNL     1       1.087   2.425  18.695  0.00  0.00    +0.000 A 
ATOM     13  C   UNL     1       0.428   3.060  19.746  0.00  0.00    +0.000 A 
ATOM     14  C   UNL     1       1.156   3.772  20.697  0.00  0.00    +0.000 A 
ATOM     15  C   UNL     1       2.545   3.863  20.591  0.00  0.00    +0.000 A 
ENDBRANCH   9  10
ENDBRANCH   8   9
ENDBRANCH   7   8
ENDBRANCH   2   7
BRANCH   4  16
ATOM     16  C   UNL     1       1.760   9.377  17.915  0.00  0.00    +0.000 C 
BRANCH  16  17
ATOM     17  O   UNL     1       0.638   9.514  18.789  0.00  0.00    +0.000 OA
BRANCH  17  18
ATOM     18  C   UNL     1       0.128  10.766  18.854  0.00  0.00    +0.000 C 
ATOM     19  O   UNL     1       0.747  11.751  19.225  0.00  0.00    +0.000 OA
BRANCH  18  20
ATOM     20  C   UNL     1      -1.287  10.788  18.393  0.00  0.00    +0.000 A 
ATOM     21  C   UNL     1      -2.148  11.730  18.964  0.00  0.00    +0.000 A 
ATOM     22  C   UNL     1      -3.485  11.790  18.567  0.00  0.00    +0.000 A 
ATOM     23  C   UNL     1      -3.976  10.926  17.585  0.00  0.00    +0.000 A 
ATOM     24  C   UNL     1      -3.126   9.973  17.022  0.00  0.00    +0.000 A 
ATOM     25  C   UNL     1      -1.783   9.908  17.419  0.00  0.00    +0.000 A 
BRANCH  23  26
ATOM     26  O   UNL     1      -5.300  11.087  17.291  0.00  0.00    +0.000 OA
BRANCH  26  27
ATOM     27  C   UNL     1      -6.181  11.125  18.400  0.00  0.00    +0.000 C 
ATOM     28  F   UNL     1      -7.383  11.597  17.989  0.00  0.00    +0.000 F 
ATOM     29  F   UNL     1      -6.379   9.844  18.800  0.00  0.00    +0.000 F 
ENDBRANCH  26  27
ENDBRANCH  23  26
ENDBRANCH  18  20
ENDBRANCH  17  18
ENDBRANCH  16  17
ENDBRANCH   4  16
TORSDOF 10
ENDMDL
MODEL 8
REMARK VINA RESULT:      -6.8      4.693      7.712
REMARK  Name = 
REMARK  10 active torsions:
REMARK  status: ('A' for Active; 'I' for Inactive)
REMARK    1  A    between atoms: C_2  and  C_3
REMARK    2  A    between atoms: C_3  and  C_4
REMARK    3  A    between atoms: C_4  and  S_5
REMARK    4  A    between atoms: S_5  and  C_6
REMARK    5  A    between atoms: C_13  and  C_15
REMARK    6  A    between atoms: C_15  and  O_16
REMARK    7  A    between atoms: O_16  and  C_17
REMARK    8  A    between atoms: C_17  and  C_19
REMARK    9  A    between atoms: C_22  and  O_23
REMARK   10  A    between atoms: O_23  and  C_24
REMARK                            x       y       z     vdW  Elec       q    Type
REMARK                         _______ _______ _______ _____ _____    ______ ____
ROOT
ATOM      1  O   UNL     1       5.576   6.790  15.920  0.00  0.00    +0.000 OA
ATOM      2  C   UNL     1       4.588   6.685  16.647  0.00  0.00    +0.000 C 
ATOM      3  N   UNL     1       3.890   7.817  17.024  0.00  0.00    +0.000 N 
ATOM      4  C   UNL     1       2.737   7.914  17.793  0.00  0.00    +0.000 C 
ATOM      5  O   UNL     1       2.153   6.967  18.313  0.00  0.00    +0.000 OA
ATOM      6  H   UNL     1       4.225   8.664  16.571  0.00  0.00    +0.000 HD
ENDROOT
BRANCH   2   7
ATOM      7  C   UNL     1       4.073   5.355  17.150  0.00  0.00    +0.000 C 
BRANCH   7   8
ATOM      8  C   UNL     1       5.177   4.357  17.469  0.00  0.00    +0.000 C 
BRANCH   8   9
ATOM      9  S   UNL     1       5.123   4.047  19.276  0.00  0.00    +0.000 S 
BRANCH   9  10
ATOM     10  C   UNL     1       3.412   3.619  19.489  0.00  0.00    +0.000 A 
ATOM     11  C   UNL     1       2.887   2.546  18.763  0.00  0.00    +0.000 A 
ATOM     12  C   UNL     1       1.548   2.180  18.914  0.00  0.00    +0.000 A 
ATOM     13  C   UNL     1       0.732   2.878  19.802  0.00  0.00    +0.000 A 
ATOM     14  C   UNL     1       1.257   3.933  20.547  0.00  0.00    +0.000 A 
ATOM     15  C   UNL     1       2.594   4.300  20.395  0.00  0.00    +0.000 A 
ENDBRANCH   9  10
ENDBRANCH   8   9
ENDBRANCH   7   8
ENDBRANCH   2   7
BRANCH   4  16
ATOM     16  C   UNL     1       2.207   9.335  17.953  0.00  0.00    +0.000 C 
BRANCH  16  17
ATOM     17  O   UNL     1       0.794   9.359  18.157  0.00  0.00    +0.000 OA
BRANCH  17  18
ATOM     18  C   UNL     1       0.338  10.460  18.799  0.00  0.00    +0.000 C 
ATOM     19  O   UNL     1       1.002  11.145  19.562  0.00  0.00    +0.000 OA
BRANCH  18  20
ATOM     20  C   UNL     1      -1.078  10.739  18.437  0.00  0.00    +0.000 A 
ATOM     21  C   UNL     1      -1.596  10.123  17.292  0.00  0.00    +0.000 A 
ATOM     22  C   UNL     1      -2.918  10.354  16.909  0.00  0.00    +0.000 A 
ATOM     23  C   UNL     1      -3.745  11.185  17.667  0.00  0.00    +0.000 A 
ATOM     24  C   UNL     1      -3.230  11.816  18.801  0.00  0.00    +0.000 A 
ATOM     25  C   UNL     1      -1.903  11.589  19.189  0.00  0.00    +0.000 A 
BRANCH  23  26
ATOM     26  O   UNL     1      -5.013  11.329  17.181  0.00  0.00    +0.000 OA
BRANCH  26  27
ATOM     27  C   UNL     1      -6.061  10.992  18.074  0.00  0.00    +0.000 C 
ATOM     28  F   UNL     1      -5.719   9.865  18.745  0.00  0.00    +0.000 F 
ATOM     29  F   UNL     1      -6.140  11.986  18.994  0.00  0.00    +0.000 F 
ENDBRANCH  26  27
ENDBRANCH  23  26
ENDBRANCH  18  20
ENDBRANCH  17  18
ENDBRANCH  16  17
ENDBRANCH   4  16
TORSDOF 10
ENDMDL
MODEL 9
REMARK VINA RESULT:      -6.8      4.736      7.368
REMARK  Name = 
REMARK  10 active torsions:
REMARK  status: ('A' for Active; 'I' for Inactive)
REMARK    1  A    between atoms: C_2  and  C_3
REMARK    2  A    between atoms: C_3  and  C_4
REMARK    3  A    between atoms: C_4  and  S_5
REMARK    4  A    between atoms: S_5  and  C_6
REMARK    5  A    between atoms: C_13  and  C_15
REMARK    6  A    between atoms: C_15  and  O_16
REMARK    7  A    between atoms: O_16  and  C_17
REMARK    8  A    between atoms: C_17  and  C_19
REMARK    9  A    between atoms: C_22  and  O_23
REMARK   10  A    between atoms: O_23  and  C_24
REMARK                            x       y       z     vdW  Elec       q    Type
REMARK                         _______ _______ _______ _____ _____    ______ ____
ROOT
ATOM      1  O   UNL     1       2.054   9.384  17.190  0.00  0.00    +0.000 OA
ATOM      2  C   UNL     1       2.498   8.504  17.926  0.00  0.00    +0.000 C 
ATOM      3  N   UNL     1       3.551   7.717  17.498  0.00  0.00    +0.000 N 
ATOM      4  C   UNL     1       4.221   6.712  18.182  0.00  0.00    +0.000 C 
ATOM      5  O   UNL     1       3.944   6.321  19.313  0.00  0.00    +0.000 OA
ATOM      6  H   UNL     1       3.934   8.014  16.603  0.00  0.00    +0.000 HD
ENDROOT
BRANCH   2   7
ATOM      7  C   UNL     1       1.955   8.238  19.312  0.00  0.00    +0.000 C 
BRANCH   7   8
ATOM      8  C   UNL     1       0.973   9.296  19.795  0.00  0.00    +0.000 C 
BRANCH   8   9
ATOM      9  S   UNL     1       0.725   9.029  21.592  0.00  0.00    +0.000 S 
BRANCH   9  10
ATOM     10  C   UNL     1      -0.136  10.520  22.033  0.00  0.00    +0.000 A 
ATOM     11  C   UNL     1      -1.083  10.475  23.061  0.00  0.00    +0.000 A 
ATOM     12  C   UNL     1      -1.771  11.630  23.438  0.00  0.00    +0.000 A 
ATOM     13  C   UNL     1      -1.504  12.838  22.795  0.00  0.00    +0.000 A 
ATOM     14  C   UNL     1      -0.543  12.894  21.788  0.00  0.00    +0.000 A 
ATOM     15  C   UNL     1       0.143  11.739  21.410  0.00  0.00    +0.000 A 
ENDBRANCH   9  10
ENDBRANCH   8   9
ENDBRANCH   7   8
ENDBRANCH   2   7
BRANCH   4  16
ATOM     16  C   UNL     1       5.384   6.097  17.411  0.00  0.00    +0.000 C 
BRANCH  16  17
ATOM     17  O   UNL     1       4.943   5.398  16.245  0.00  0.00    +0.000 OA
BRANCH  17  18
ATOM     18  C   UNL     1       5.025   4.050  16.335  0.00  0.00    +0.000 C 
ATOM     19  O   UNL     1       5.795   3.355  15.689  0.00  0.00    +0.000 OA
BRANCH  18  20
ATOM     20  C   UNL     1       4.063   3.524  17.341  0.00  0.00    +0.000 A 
ATOM     21  C   UNL     1       4.578   3.033  18.545  0.00  0.00    +0.000 A 
ATOM     22  C   UNL     1       3.717   2.527  19.521  0.00  0.00    +0.000 A 
ATOM     23  C   UNL     1       2.336   2.521  19.318  0.00  0.00    +0.000 A 
ATOM     24  C   UNL     1       1.816   2.994  18.113  0.00  0.00    +0.000 A 
ATOM     25  C   UNL     1       2.676   3.501  17.129  0.00  0.00    +0.000 A 
BRANCH  23  26
ATOM     26  O   UNL     1       1.608   1.996  20.349  0.00  0.00    +0.000 OA
BRANCH  26  27
ATOM     27  C   UNL     1       1.260   2.900  21.384  0.00  0.00    +0.000 C 
ATOM     28  F   UNL     1       2.372   3.193  22.102  0.00  0.00    +0.000 F 
ATOM     29  F   UNL     1       0.861   4.054  20.792  0.00  0.00    +0.000 F 
ENDBRANCH  26  27
ENDBRANCH  23  26
ENDBRANCH  18  20
ENDBRANCH  17  18
ENDBRANCH  16  17
ENDBRANCH   4  16
TORSDOF 10
ENDMDL
