MODEL 1
REMARK VINA RESULT:      -7.9      0.000      0.000
REMARK  Name = 
REMARK  4 active torsions:
REMARK  status: ('A' for Active; 'I' for Inactive)
REMARK    1  A    between atoms: C_2  and  C_10
REMARK    2  A    between atoms: N_3  and  C_4
REMARK    3  A    between atoms: C_12  and  C_13
REMARK    4  A    between atoms: C_19  and  O_20
REMARK                            x       y       z     vdW  Elec       q    Type
REMARK                         _______ _______ _______ _____ _____    ______ ____
ROOT
ATOM      1  C   UNL     1       5.838   4.542  17.514  0.00  0.00    +0.000 A 
ATOM      2  C   UNL     1       5.447   4.400  16.201  0.00  0.00    +0.000 A 
ATOM      3  C   UNL     1       6.628   4.470  15.419  0.00  0.00    +0.000 A 
ATOM      4  N   UNL     1       7.690   4.723  16.203  0.00  0.00    +0.000 NA
ATOM      5  N   UNL     1       7.186   4.758  17.449  0.00  0.00    +0.000 N 
ATOM      6  H   UNL     1       7.816   4.918  18.231  0.00  0.00    +0.000 HD
ENDROOT
BRANCH   3   7
ATOM      7  C   UNL     1       6.736   4.323  13.966  0.00  0.00    +0.000 A 
ATOM      8  C   UNL     1       5.883   3.431  13.297  0.00  0.00    +0.000 A 
ATOM      9  C   UNL     1       5.991   3.255  11.918  0.00  0.00    +0.000 A 
ATOM     10 CL   UNL     1       4.958   2.140  11.111  0.00  0.00    +0.000 Cl
ATOM     11  C   UNL     1       6.935   3.969  11.182  0.00  0.00    +0.000 A 
ATOM     12  C   UNL     1       7.782   4.867  11.829  0.00  0.00    +0.000 A 
ATOM     13  C   UNL     1       7.683   5.042  13.210  0.00  0.00    +0.000 A 
BRANCH  13  14
ATOM     14  O   UNL     1       8.523   5.940  13.816  0.00  0.00    +0.000 OA
ATOM     15  H   UNL     1       9.438   5.752  13.548  0.00  0.00    +0.000 HD
ENDBRANCH  13  14
ENDBRANCH   3   7
BRANCH   1  17
ATOM     16  O   UNL     1       5.500   5.137  19.726  0.00  0.00    +0.000 OA
ATOM     17  C   UNL     1       5.111   4.506  18.755  0.00  0.00    +0.000 C 
ATOM     18  N   UNL     1       4.008   3.671  18.725  0.00  0.00    +0.000 N 
ATOM     19  H   UNL     1       3.900   3.098  17.900  0.00  0.00    +0.000 HD
BRANCH  18  20
ATOM     20  C   UNL     1       3.103   3.421  19.772  0.00  0.00    +0.000 A 
ATOM     21  C   UNL     1       1.806   3.923  19.822  0.00  0.00    +0.000 A 
ATOM     22  C   UNL     1       0.999   3.646  20.925  0.00  0.00    +0.000 A 
ATOM     23  C   UNL     1       1.515   2.865  21.944  0.00  0.00    +0.000 A 
ATOM     24  N   UNL     1       2.754   2.332  21.923  0.00  0.00    +0.000 NA
ATOM     25  C   UNL     1       3.513   2.618  20.838  0.00  0.00    +0.000 A 
ENDBRANCH  18  20
ENDBRANCH   1  17
TORSDOF 4
ENDMDL
MODEL 2
REMARK VINA RESULT:      -7.6      6.210      8.293
REMARK  Name = 
REMARK  4 active torsions:
REMARK  status: ('A' for Active; 'I' for Inactive)
REMARK    1  A    between atoms: C_2  and  C_10
REMARK    2  A    between atoms: N_3  and  C_4
REMARK    3  A    between atoms: C_12  and  C_13
REMARK    4  A    between atoms: C_19  and  O_20
REMARK                            x       y       z     vdW  Elec       q    Type
REMARK                         _______ _______ _______ _____ _____    ______ ____
ROOT
ATOM      1  C   UNL     1       8.186   8.747  18.172  0.00  0.00    +0.000 A 
ATOM      2  C   UNL     1       7.196   8.156  17.420  0.00  0.00    +0.000 A 
ATOM      3  C   UNL     1       7.095   6.815  17.870  0.00  0.00    +0.000 A 
ATOM      4  N   UNL     1       8.033   6.565  18.800  0.00  0.00    +0.000 NA
ATOM      5  N   UNL     1       8.666   7.740  18.961  0.00  0.00    +0.000 N 
ATOM      6  H   UNL     1       9.418   7.805  19.643  0.00  0.00    +0.000 HD
ENDROOT
BRANCH   3   7
ATOM      7  C   UNL     1       6.149   5.797  17.410  0.00  0.00    +0.000 A 
ATOM      8  C   UNL     1       4.797   5.896  17.773  0.00  0.00    +0.000 A 
ATOM      9  C   UNL     1       3.886   4.920  17.368  0.00  0.00    +0.000 A 
ATOM     10 CL   UNL     1       2.236   5.037  17.841  0.00  0.00    +0.000 Cl
ATOM     11  C   UNL     1       4.300   3.840  16.589  0.00  0.00    +0.000 A 
ATOM     12  C   UNL     1       5.637   3.733  16.210  0.00  0.00    +0.000 A 
ATOM     13  C   UNL     1       6.554   4.703  16.618  0.00  0.00    +0.000 A 
BRANCH  13  14
ATOM     14  O   UNL     1       7.859   4.575  16.220  0.00  0.00    +0.000 OA
ATOM     15  H   UNL     1       8.355   5.366  16.490  0.00  0.00    +0.000 HD
ENDBRANCH  13  14
ENDBRANCH   3   7
BRANCH   1  17
ATOM     16  O   UNL     1       8.256  10.956  17.480  0.00  0.00    +0.000 OA
ATOM     17  C   UNL     1       8.704  10.089  18.216  0.00  0.00    +0.000 C 
ATOM     18  N   UNL     1       9.749  10.249  19.107  0.00  0.00    +0.000 N 
ATOM     19  H   UNL     1      10.111   9.407  19.533  0.00  0.00    +0.000 HD
BRANCH  18  20
ATOM     20  C   UNL     1      10.464  11.431  19.375  0.00  0.00    +0.000 A 
ATOM     21  C   UNL     1      11.676  11.764  18.779  0.00  0.00    +0.000 A 
ATOM     22  C   UNL     1      12.325  12.943  19.141  0.00  0.00    +0.000 A 
ATOM     23  C   UNL     1      11.733  13.761  20.089  0.00  0.00    +0.000 A 
ATOM     24  N   UNL     1      10.545  13.493  20.670  0.00  0.00    +0.000 NA
ATOM     25  C   UNL     1       9.940  12.340  20.295  0.00  0.00    +0.000 A 
ENDBRANCH  18  20
ENDBRANCH   1  17
TORSDOF 4
ENDMDL
MODEL 3
REMARK VINA RESULT:      -7.5      6.176      8.269
REMARK  Name = 
REMARK  4 active torsions:
REMARK  status: ('A' for Active; 'I' for Inactive)
REMARK    1  A    between atoms: C_2  and  C_10
REMARK    2  A    between atoms: N_3  and  C_4
REMARK    3  A    between atoms: C_12  and  C_13
REMARK    4  A    between atoms: C_19  and  O_20
REMARK                            x       y       z     vdW  Elec       q    Type
REMARK                         _______ _______ _______ _____ _____    ______ ____
ROOT
ATOM      1  C   UNL     1       8.204   8.701  18.213  0.00  0.00    +0.000 A 
ATOM      2  C   UNL     1       7.221   8.107  17.453  0.00  0.00    +0.000 A 
ATOM      3  C   UNL     1       7.102   6.773  17.919  0.00  0.00    +0.000 A 
ATOM      4  N   UNL     1       8.022   6.529  18.868  0.00  0.00    +0.000 NA
ATOM      5  N   UNL     1       8.663   7.701  19.023  0.00  0.00    +0.000 N 
ATOM      6  H   UNL     1       9.404   7.769  19.716  0.00  0.00    +0.000 HD
ENDROOT
BRANCH   3   7
ATOM      7  C   UNL     1       6.155   5.756  17.458  0.00  0.00    +0.000 A 
ATOM      8  C   UNL     1       4.798   5.872  17.796  0.00  0.00    +0.000 A 
ATOM      9  C   UNL     1       3.886   4.899  17.390  0.00  0.00    +0.000 A 
ATOM     10 CL   UNL     1       2.229   5.037  17.832  0.00  0.00    +0.000 Cl
ATOM     11  C   UNL     1       4.304   3.804  16.635  0.00  0.00    +0.000 A 
ATOM     12  C   UNL     1       5.646   3.679  16.280  0.00  0.00    +0.000 A 
ATOM     13  C   UNL     1       6.564   4.648  16.689  0.00  0.00    +0.000 A 
BRANCH  13  14
ATOM     14  O   UNL     1       7.875   4.502  16.316  0.00  0.00    +0.000 OA
ATOM     15  H   UNL     1       8.447   4.865  17.013  0.00  0.00    +0.000 HD
ENDBRANCH  13  14
ENDBRANCH   3   7
BRANCH   1  17
ATOM     16  O   UNL     1       8.386  10.868  17.419  0.00  0.00    +0.000 OA
ATOM     17  C   UNL     1       8.732  10.039  18.246  0.00  0.00    +0.000 C 
ATOM     18  N   UNL     1       9.668  10.238  19.245  0.00  0.00    +0.000 N 
ATOM     19  H   UNL     1       9.966   9.418  19.754  0.00  0.00    +0.000 HD
BRANCH  18  20
ATOM     20  C   UNL     1      10.364  11.427  19.533  0.00  0.00    +0.000 A 
ATOM     21  C   UNL     1       9.994  12.328  20.527  0.00  0.00    +0.000 A 
ATOM     22  C   UNL     1      10.729  13.498  20.709  0.00  0.00    +0.000 A 
ATOM     23  C   UNL     1      11.823  13.727  19.891  0.00  0.00    +0.000 A 
ATOM     24  N   UNL     1      12.235  12.868  18.936  0.00  0.00    +0.000 NA
ATOM     25  C   UNL     1      11.500  11.740  18.785  0.00  0.00    +0.000 A 
ENDBRANCH  18  20
ENDBRANCH   1  17
TORSDOF 4
ENDMDL
MODEL 4
REMARK VINA RESULT:      -7.5      0.651      1.043
REMARK  Name = 
REMARK  4 active torsions:
REMARK  status: ('A' for Active; 'I' for Inactive)
REMARK    1  A    between atoms: C_2  and  C_10
REMARK    2  A    between atoms: N_3  and  C_4
REMARK    3  A    between atoms: C_12  and  C_13
REMARK    4  A    between atoms: C_19  and  O_20
REMARK                            x       y       z     vdW  Elec       q    Type
REMARK                         _______ _______ _______ _____ _____    ______ ____
ROOT
ATOM      1  C   UNL     1       5.937   4.390  17.518  0.00  0.00    +0.000 A 
ATOM      2  C   UNL     1       5.497   4.272  16.219  0.00  0.00    +0.000 A 
ATOM      3  C   UNL     1       6.640   4.419  15.392  0.00  0.00    +0.000 A 
ATOM      4  N   UNL     1       7.722   4.695  16.140  0.00  0.00    +0.000 NA
ATOM      5  N   UNL     1       7.270   4.668  17.406  0.00  0.00    +0.000 N 
ATOM      6  H   UNL     1       7.925   4.832  18.167  0.00  0.00    +0.000 HD
ENDROOT
BRANCH   3   7
ATOM      7  C   UNL     1       6.694   4.322  13.932  0.00  0.00    +0.000 A 
ATOM      8  C   UNL     1       5.779   3.496  13.261  0.00  0.00    +0.000 A 
ATOM      9  C   UNL     1       5.833   3.368  11.873  0.00  0.00    +0.000 A 
ATOM     10 CL   UNL     1       4.723   2.333  11.062  0.00  0.00    +0.000 Cl
ATOM     11  C   UNL     1       6.786   4.065  11.132  0.00  0.00    +0.000 A 
ATOM     12  C   UNL     1       7.694   4.899  11.781  0.00  0.00    +0.000 A 
ATOM     13  C   UNL     1       7.648   5.025  13.170  0.00  0.00    +0.000 A 
BRANCH  13  14
ATOM     14  O   UNL     1       8.549   5.860  13.779  0.00  0.00    +0.000 OA
ATOM     15  H   UNL     1       8.580   5.659  14.729  0.00  0.00    +0.000 HD
ENDBRANCH  13  14
ENDBRANCH   3   7
BRANCH   1  17
ATOM     16  O   UNL     1       5.806   4.658  19.814  0.00  0.00    +0.000 OA
ATOM     17  C   UNL     1       5.264   4.282  18.786  0.00  0.00    +0.000 C 
ATOM     18  N   UNL     1       4.020   3.684  18.702  0.00  0.00    +0.000 N 
ATOM     19  H   UNL     1       3.771   3.286  17.807  0.00  0.00    +0.000 HD
BRANCH  18  20
ATOM     20  C   UNL     1       3.124   3.433  19.758  0.00  0.00    +0.000 A 
ATOM     21  C   UNL     1       3.406   2.611  20.844  0.00  0.00    +0.000 A 
ATOM     22  C   UNL     1       2.435   2.398  21.821  0.00  0.00    +0.000 A 
ATOM     23  C   UNL     1       1.208   3.024  21.683  0.00  0.00    +0.000 A 
ATOM     24  N   UNL     1       0.902   3.854  20.664  0.00  0.00    +0.000 NA
ATOM     25  C   UNL     1       1.868   4.041  19.732  0.00  0.00    +0.000 A 
ENDBRANCH  18  20
ENDBRANCH   1  17
TORSDOF 4
ENDMDL
MODEL 5
REMARK VINA RESULT:      -7.4      5.995      8.221
REMARK  Name = 
REMARK  4 active torsions:
REMARK  status: ('A' for Active; 'I' for Inactive)
REMARK    1  A    between atoms: C_2  and  C_10
REMARK    2  A    between atoms: N_3  and  C_4
REMARK    3  A    between atoms: C_12  and  C_13
REMARK    4  A    between atoms: C_19  and  O_20
REMARK                            x       y       z     vdW  Elec       q    Type
REMARK                         _______ _______ _______ _____ _____    ______ ____
ROOT
ATOM      1  C   UNL     1       8.282   8.735  18.192  0.00  0.00    +0.000 A 
ATOM      2  C   UNL     1       7.453   8.068  17.319  0.00  0.00    +0.000 A 
ATOM      3  C   UNL     1       7.342   6.740  17.804  0.00  0.00    +0.000 A 
ATOM      4  N   UNL     1       8.129   6.572  18.881  0.00  0.00    +0.000 NA
ATOM      5  N   UNL     1       8.675   7.783  19.089  0.00  0.00    +0.000 N 
ATOM      6  H   UNL     1       9.304   7.910  19.878  0.00  0.00    +0.000 HD
ENDROOT
BRANCH   3   7
ATOM      7  C   UNL     1       6.529   5.659  17.244  0.00  0.00    +0.000 A 
ATOM      8  C   UNL     1       6.721   5.272  15.908  0.00  0.00    +0.000 A 
ATOM      9  C   UNL     1       5.936   4.264  15.348  0.00  0.00    +0.000 A 
ATOM     10 CL   UNL     1       6.160   3.816  13.702  0.00  0.00    +0.000 Cl
ATOM     11  C   UNL     1       4.960   3.619  16.107  0.00  0.00    +0.000 A 
ATOM     12  C   UNL     1       4.766   3.982  17.438  0.00  0.00    +0.000 A 
ATOM     13  C   UNL     1       5.544   4.994  18.001  0.00  0.00    +0.000 A 
BRANCH  13  14
ATOM     14  O   UNL     1       5.335   5.323  19.316  0.00  0.00    +0.000 OA
ATOM     15  H   UNL     1       5.065   6.254  19.374  0.00  0.00    +0.000 HD
ENDBRANCH  13  14
ENDBRANCH   3   7
BRANCH   1  17
ATOM     16  O   UNL     1       8.208  10.962  17.560  0.00  0.00    +0.000 OA
ATOM     17  C   UNL     1       8.725  10.103  18.259  0.00  0.00    +0.000 C 
ATOM     18  N   UNL     1       9.784  10.299  19.127  0.00  0.00    +0.000 N 
ATOM     19  H   UNL     1      10.204   9.467  19.520  0.00  0.00    +0.000 HD
BRANCH  18  20
ATOM     20  C   UNL     1      10.439  11.512  19.409  0.00  0.00    +0.000 A 
ATOM     21  C   UNL     1      10.075  12.376  20.437  0.00  0.00    +0.000 A 
ATOM     22  C   UNL     1      10.765  13.574  20.611  0.00  0.00    +0.000 A 
ATOM     23  C   UNL     1      11.810  13.867  19.751  0.00  0.00    +0.000 A 
ATOM     24  N   UNL     1      12.217  13.045  18.761  0.00  0.00    +0.000 NA
ATOM     25  C   UNL     1      11.526  11.889  18.619  0.00  0.00    +0.000 A 
ENDBRANCH  18  20
ENDBRANCH   1  17
TORSDOF 4
ENDMDL
MODEL 6
REMARK VINA RESULT:      -7.4      5.507      9.060
REMARK  Name = 
REMARK  4 active torsions:
REMARK  status: ('A' for Active; 'I' for Inactive)
REMARK    1  A    between atoms: C_2  and  C_10
REMARK    2  A    between atoms: N_3  and  C_4
REMARK    3  A    between atoms: C_12  and  C_13
REMARK    4  A    between atoms: C_19  and  O_20
REMARK                            x       y       z     vdW  Elec       q    Type
REMARK                         _______ _______ _______ _____ _____    ______ ____
ROOT
ATOM      1  C   UNL     1       2.687   6.745  19.526  0.00  0.00    +0.000 A 
ATOM      2  C   UNL     1       2.163   7.963  19.154  0.00  0.00    +0.000 A 
ATOM      3  C   UNL     1       1.276   8.352  20.190  0.00  0.00    +0.000 A 
ATOM      4  N   UNL     1       1.194   7.385  21.120  0.00  0.00    +0.000 NA
ATOM      5  N   UNL     1       2.050   6.439  20.696  0.00  0.00    +0.000 N 
ATOM      6  H   UNL     1       2.177   5.602  21.259  0.00  0.00    +0.000 HD
ENDROOT
BRANCH   3   7
ATOM      7  C   UNL     1       0.512   9.599  20.277  0.00  0.00    +0.000 A 
ATOM      8  C   UNL     1      -0.164  10.076  19.144  0.00  0.00    +0.000 A 
ATOM      9  C   UNL     1      -0.872  11.276  19.200  0.00  0.00    +0.000 A 
ATOM     10 CL   UNL     1      -1.676  11.865  17.798  0.00  0.00    +0.000 Cl
ATOM     11  C   UNL     1      -0.929  12.013  20.382  0.00  0.00    +0.000 A 
ATOM     12  C   UNL     1      -0.273  11.548  21.521  0.00  0.00    +0.000 A 
ATOM     13  C   UNL     1       0.442  10.350  21.467  0.00  0.00    +0.000 A 
BRANCH  13  14
ATOM     14  O   UNL     1       1.069   9.915  22.606  0.00  0.00    +0.000 OA
ATOM     15  H   UNL     1       1.000  10.600  23.292  0.00  0.00    +0.000 HD
ENDBRANCH  13  14
ENDBRANCH   3   7
BRANCH   1  17
ATOM     16  O   UNL     1       4.074   4.891  19.508  0.00  0.00    +0.000 OA
ATOM     17  C   UNL     1       3.667   5.882  18.921  0.00  0.00    +0.000 C 
ATOM     18  N   UNL     1       4.102   6.323  17.684  0.00  0.00    +0.000 N 
ATOM     19  H   UNL     1       3.787   7.239  17.396  0.00  0.00    +0.000 HD
BRANCH  18  20
ATOM     20  C   UNL     1       5.050   5.705  16.847  0.00  0.00    +0.000 A 
ATOM     21  C   UNL     1       4.824   4.524  16.148  0.00  0.00    +0.000 A 
ATOM     22  C   UNL     1       5.843   3.972  15.374  0.00  0.00    +0.000 A 
ATOM     23  C   UNL     1       7.061   4.630  15.315  0.00  0.00    +0.000 A 
ATOM     24  N   UNL     1       7.313   5.793  15.950  0.00  0.00    +0.000 NA
ATOM     25  C   UNL     1       6.302   6.303  16.694  0.00  0.00    +0.000 A 
ENDBRANCH  18  20
ENDBRANCH   1  17
TORSDOF 4
ENDMDL
MODEL 7
REMARK VINA RESULT:      -7.3      6.164      8.283
REMARK  Name = 
REMARK  4 active torsions:
REMARK  status: ('A' for Active; 'I' for Inactive)
REMARK    1  A    between atoms: C_2  and  C_10
REMARK    2  A    between atoms: N_3  and  C_4
REMARK    3  A    between atoms: C_12  and  C_13
REMARK    4  A    between atoms: C_19  and  O_20
REMARK                            x       y       z     vdW  Elec       q    Type
REMARK                         _______ _______ _______ _____ _____    ______ ____
ROOT
ATOM      1  C   UNL     1       8.359   8.760  18.459  0.00  0.00    +0.000 A 
ATOM      2  C   UNL     1       7.409   8.349  17.551  0.00  0.00    +0.000 A 
ATOM      3  C   UNL     1       7.202   6.965  17.784  0.00  0.00    +0.000 A 
ATOM      4  N   UNL     1       8.042   6.523  18.735  0.00  0.00    +0.000 NA
ATOM      5  N   UNL     1       8.718   7.619  19.120  0.00  0.00    +0.000 N 
ATOM      6  H   UNL     1       9.411   7.536  19.860  0.00  0.00    +0.000 HD
ENDROOT
BRANCH   3   7
ATOM      7  C   UNL     1       6.248   6.087  17.103  0.00  0.00    +0.000 A 
ATOM      8  C   UNL     1       5.006   5.820  17.701  0.00  0.00    +0.000 A 
ATOM      9  C   UNL     1       4.096   4.964  17.082  0.00  0.00    +0.000 A 
ATOM     10 CL   UNL     1       2.588   4.622  17.836  0.00  0.00    +0.000 Cl
ATOM     11  C   UNL     1       4.399   4.370  15.857  0.00  0.00    +0.000 A 
ATOM     12  C   UNL     1       5.623   4.634  15.243  0.00  0.00    +0.000 A 
ATOM     13  C   UNL     1       6.539   5.485  15.863  0.00  0.00    +0.000 A 
BRANCH  13  14
ATOM     14  O   UNL     1       7.730   5.732  15.230  0.00  0.00    +0.000 OA
ATOM     15  H   UNL     1       7.601   6.432  14.567  0.00  0.00    +0.000 HD
ENDBRANCH  13  14
ENDBRANCH   3   7
BRANCH   1  17
ATOM     16  O   UNL     1       9.466  10.266  19.825  0.00  0.00    +0.000 OA
ATOM     17  C   UNL     1       8.939  10.045  18.745  0.00  0.00    +0.000 C 
ATOM     18  N   UNL     1       8.785  10.961  17.720  0.00  0.00    +0.000 N 
ATOM     19  H   UNL     1       8.194  10.680  16.950  0.00  0.00    +0.000 HD
BRANCH  18  20
ATOM     20  C   UNL     1       9.236  12.294  17.696  0.00  0.00    +0.000 A 
ATOM     21  C   UNL     1      10.534  12.675  17.372  0.00  0.00    +0.000 A 
ATOM     22  C   UNL     1      10.891  14.021  17.414  0.00  0.00    +0.000 A 
ATOM     23  C   UNL     1       9.930  14.951  17.773  0.00  0.00    +0.000 A 
ATOM     24  N   UNL     1       8.652  14.630  18.064  0.00  0.00    +0.000 NA
ATOM     25  C   UNL     1       8.337  13.313  18.013  0.00  0.00    +0.000 A 
ENDBRANCH  18  20
ENDBRANCH   1  17
TORSDOF 4
ENDMDL
MODEL 8
REMARK VINA RESULT:      -7.3      4.835      6.138
REMARK  Name = 
REMARK  4 active torsions:
REMARK  status: ('A' for Active; 'I' for Inactive)
REMARK    1  A    between atoms: C_2  and  C_10
REMARK    2  A    between atoms: N_3  and  C_4
REMARK    3  A    between atoms: C_12  and  C_13
REMARK    4  A    between atoms: C_19  and  O_20
REMARK                            x       y       z     vdW  Elec       q    Type
REMARK                         _______ _______ _______ _____ _____    ______ ____
ROOT
ATOM      1  C   UNL     1       2.453   7.406  19.452  0.00  0.00    +0.000 A 
ATOM      2  C   UNL     1       3.436   7.309  18.492  0.00  0.00    +0.000 A 
ATOM      3  C   UNL     1       4.022   6.027  18.643  0.00  0.00    +0.000 A 
ATOM      4  N   UNL     1       3.483   5.391  19.697  0.00  0.00    +0.000 NA
ATOM      5  N   UNL     1       2.547   6.240  20.158  0.00  0.00    +0.000 N 
ATOM      6  H   UNL     1       1.981   5.963  20.956  0.00  0.00    +0.000 HD
ENDROOT
BRANCH   3   7
ATOM      7  C   UNL     1       5.080   5.436  17.821  0.00  0.00    +0.000 A 
ATOM      8  C   UNL     1       4.834   5.171  16.465  0.00  0.00    +0.000 A 
ATOM      9  C   UNL     1       5.819   4.582  15.673  0.00  0.00    +0.000 A 
ATOM     10 CL   UNL     1       5.498   4.236  14.018  0.00  0.00    +0.000 Cl
ATOM     11  C   UNL     1       7.064   4.259  16.211  0.00  0.00    +0.000 A 
ATOM     12  C   UNL     1       7.330   4.527  17.553  0.00  0.00    +0.000 A 
ATOM     13  C   UNL     1       6.345   5.110  18.351  0.00  0.00    +0.000 A 
BRANCH  13  14
ATOM     14  O   UNL     1       6.639   5.370  19.664  0.00  0.00    +0.000 OA
ATOM     15  H   UNL     1       5.898   5.850  20.069  0.00  0.00    +0.000 HD
ENDBRANCH  13  14
ENDBRANCH   3   7
BRANCH   1  17
ATOM     16  O   UNL     1       0.839   8.962  18.876  0.00  0.00    +0.000 OA
ATOM     17  C   UNL     1       1.493   8.432  19.761  0.00  0.00    +0.000 C 
ATOM     18  N   UNL     1       1.447   8.759  21.104  0.00  0.00    +0.000 N 
ATOM     19  H   UNL     1       2.155   8.344  21.693  0.00  0.00    +0.000 HD
BRANCH  18  20
ATOM     20  C   UNL     1       0.620   9.718  21.718  0.00  0.00    +0.000 A 
ATOM     21  C   UNL     1      -0.342   9.421  22.678  0.00  0.00    +0.000 A 
ATOM     22  C   UNL     1      -1.138  10.440  23.198  0.00  0.00    +0.000 A 
ATOM     23  C   UNL     1      -0.938  11.733  22.745  0.00  0.00    +0.000 A 
ATOM     24  N   UNL     1       0.003  12.071  21.839  0.00  0.00    +0.000 NA
ATOM     25  C   UNL     1       0.760  11.058  21.353  0.00  0.00    +0.000 A 
ENDBRANCH  18  20
ENDBRANCH   1  17
TORSDOF 4
ENDMDL
MODEL 9
REMARK VINA RESULT:      -7.3      5.069      6.457
REMARK  Name = 
REMARK  4 active torsions:
REMARK  status: ('A' for Active; 'I' for Inactive)
REMARK    1  A    between atoms: C_2  and  C_10
REMARK    2  A    between atoms: N_3  and  C_4
REMARK    3  A    between atoms: C_12  and  C_13
REMARK    4  A    between atoms: C_19  and  O_20
REMARK                            x       y       z     vdW  Elec       q    Type
REMARK                         _______ _______ _______ _____ _____    ______ ____
ROOT
ATOM      1  C   UNL     1       2.470   7.379  19.390  0.00  0.00    +0.000 A 
ATOM      2  C   UNL     1       3.434   7.271  18.413  0.00  0.00    +0.000 A 
ATOM      3  C   UNL     1       4.080   6.025  18.622  0.00  0.00    +0.000 A 
ATOM      4  N   UNL     1       3.593   5.428  19.723  0.00  0.00    +0.000 NA
ATOM      5  N   UNL     1       2.631   6.260  20.158  0.00  0.00    +0.000 N 
ATOM      6  H   UNL     1       2.096   6.006  20.984  0.00  0.00    +0.000 HD
ENDROOT
BRANCH   3   7
ATOM      7  C   UNL     1       5.145   5.435  17.809  0.00  0.00    +0.000 A 
ATOM      8  C   UNL     1       4.907   5.160  16.452  0.00  0.00    +0.000 A 
ATOM      9  C   UNL     1       5.899   4.571  15.669  0.00  0.00    +0.000 A 
ATOM     10 CL   UNL     1       5.588   4.214  14.015  0.00  0.00    +0.000 Cl
ATOM     11  C   UNL     1       7.143   4.257  16.215  0.00  0.00    +0.000 A 
ATOM     12  C   UNL     1       7.400   4.534  17.557  0.00  0.00    +0.000 A 
ATOM     13  C   UNL     1       6.408   5.118  18.347  0.00  0.00    +0.000 A 
BRANCH  13  14
ATOM     14  O   UNL     1       6.695   5.387  19.660  0.00  0.00    +0.000 OA
ATOM     15  H   UNL     1       6.651   6.346  19.807  0.00  0.00    +0.000 HD
ENDBRANCH  13  14
ENDBRANCH   3   7
BRANCH   1  17
ATOM     16  O   UNL     1       0.864   8.380  20.724  0.00  0.00    +0.000 OA
ATOM     17  C   UNL     1       1.472   8.379  19.664  0.00  0.00    +0.000 C 
ATOM     18  N   UNL     1       1.264   9.254  18.614  0.00  0.00    +0.000 N 
ATOM     19  H   UNL     1       1.731   9.035  17.745  0.00  0.00    +0.000 HD
BRANCH  18  20
ATOM     20  C   UNL     1       0.359  10.332  18.571  0.00  0.00    +0.000 A 
ATOM     21  C   UNL     1      -0.979  10.215  18.209  0.00  0.00    +0.000 A 
ATOM     22  C   UNL     1      -1.785  11.352  18.162  0.00  0.00    +0.000 A 
ATOM     23  C   UNL     1      -1.225  12.575  18.490  0.00  0.00    +0.000 A 
ATOM     24  N   UNL     1       0.059  12.730  18.877  0.00  0.00    +0.000 NA
ATOM     25  C   UNL     1       0.815  11.606  18.913  0.00  0.00    +0.000 A 
ENDBRANCH  18  20
ENDBRANCH   1  17
TORSDOF 4
ENDMDL
