MODEL 1
REMARK VINA RESULT:      -8.4      0.000      0.000
REMARK  Name = 
REMARK  5 active torsions:
REMARK  status: ('A' for Active; 'I' for Inactive)
REMARK    1  A    between atoms: C_1  and  N_2
REMARK    2  A    between atoms: C_3  and  C_4
REMARK    3  A    between atoms: C_7  and  C_8
REMARK    4  A    between atoms: C_19  and  C_20
REMARK    5  A    between atoms: C_20  and  C_21
REMARK                            x       y       z     vdW  Elec       q    Type
REMARK                         _______ _______ _______ _____ _____    ______ ____
ROOT
ATOM      1  C   UNL     1       0.347  12.088  19.452  0.00  0.00    +0.000 C 
ATOM      2  N   UNL     1       0.198  11.411  20.711  0.00  0.00    +0.000 N 
ATOM      3  C   UNL     1       0.541  10.117  21.034  0.00  0.00    +0.000 A 
ATOM      4  N   UNL     1       0.175   9.895  22.286  0.00  0.00    +0.000 NA
ATOM      5  N   UNL     1      -0.388  11.029  22.791  0.00  0.00    +0.000 NA
ATOM      6  C   UNL     1      -0.399  11.931  21.836  0.00  0.00    +0.000 A 
ENDROOT
BRANCH   3   7
ATOM      7  C   UNL     1       1.153   9.100  20.185  0.00  0.00    +0.000 A 
ATOM      8  C   UNL     1       1.500   9.324  18.850  0.00  0.00    +0.000 A 
ATOM      9  C   UNL     1       2.120   8.314  18.100  0.00  0.00    +0.000 A 
ATOM     10  C   UNL     1       2.457   7.094  18.689  0.00  0.00    +0.000 A 
ATOM     11  C   UNL     1       2.208   6.915  20.053  0.00  0.00    +0.000 A 
ATOM     12  C   UNL     1       1.510   7.880  20.776  0.00  0.00    +0.000 A 
BRANCH  10  13
ATOM     13  C   UNL     1       3.212   6.098  17.886  0.00  0.00    +0.000 C 
ATOM     14  O   UNL     1       4.300   6.448  17.416  0.00  0.00    +0.000 OA
ATOM     15  N   UNL     1       2.734   4.812  17.714  0.00  0.00    +0.000 N 
ATOM     16  C   UNL     1       1.415   4.240  17.938  0.00  0.00    +0.000 C 
ATOM     17  C   UNL     1       1.768   2.875  18.501  0.00  0.00    +0.000 C 
ATOM     18  C   UNL     1       2.931   2.457  17.600  0.00  0.00    +0.000 C 
ATOM     19  C   UNL     1       3.642   3.770  17.264  0.00  0.00    +0.000 C 
ENDBRANCH  10  13
ENDBRANCH   3   7
BRANCH   6  20
ATOM     20  C   UNL     1      -1.232  13.220  21.958  0.00  0.00    +0.000 C 
ATOM     21  C   UNL     1      -1.006  13.977  23.307  0.00  0.00    +0.000 C 
ATOM     22  C   UNL     1      -1.068  15.286  22.492  0.00  0.00    +0.000 C 
ATOM     23  C   UNL     1      -0.610  14.471  21.265  0.00  0.00    +0.000 C 
BRANCH  20  24
ATOM     24  C   UNL     1      -2.751  12.768  21.582  0.00  0.00    +0.000 A 
ATOM     25  C   UNL     1      -3.150  12.657  20.226  0.00  0.00    +0.000 A 
ATOM     26  C   UNL     1      -4.494  12.625  19.846  0.00  0.00    +0.000 A 
ATOM     27  C   UNL     1      -5.480  12.662  20.821  0.00  0.00    +0.000 A 
ATOM     28 CL   UNL     1      -7.133  12.797  20.370  0.00  0.00    +0.000 Cl
ATOM     29  C   UNL     1      -5.130  12.643  22.167  0.00  0.00    +0.000 A 
ATOM     30  C   UNL     1      -3.781  12.674  22.538  0.00  0.00    +0.000 A 
ENDBRANCH  20  24
ENDBRANCH   6  20
TORSDOF 4
ENDMDL
MODEL 2
REMARK VINA RESULT:      -8.4      4.106     10.544
REMARK  Name = 
REMARK  5 active torsions:
REMARK  status: ('A' for Active; 'I' for Inactive)
REMARK    1  A    between atoms: C_1  and  N_2
REMARK    2  A    between atoms: C_3  and  C_4
REMARK    3  A    between atoms: C_7  and  C_8
REMARK    4  A    between atoms: C_19  and  C_20
REMARK    5  A    between atoms: C_20  and  C_21
REMARK                            x       y       z     vdW  Elec       q    Type
REMARK                         _______ _______ _______ _____ _____    ______ ____
ROOT
ATOM      1  C   UNL     1       2.325   4.944  20.291  0.00  0.00    +0.000 C 
ATOM      2  N   UNL     1       2.834   5.754  19.219  0.00  0.00    +0.000 N 
ATOM      3  C   UNL     1       2.599   7.087  18.965  0.00  0.00    +0.000 A 
ATOM      4  N   UNL     1       3.220   7.407  17.842  0.00  0.00    +0.000 NA
ATOM      5  N   UNL     1       3.870   6.309  17.365  0.00  0.00    +0.000 NA
ATOM      6  C   UNL     1       3.615   5.308  18.178  0.00  0.00    +0.000 A 
ENDROOT
BRANCH   3   7
ATOM      7  C   UNL     1       1.781   8.026  19.726  0.00  0.00    +0.000 A 
ATOM      8  C   UNL     1       1.454   7.842  21.072  0.00  0.00    +0.000 A 
ATOM      9  C   UNL     1       0.694   8.803  21.754  0.00  0.00    +0.000 A 
ATOM     10  C   UNL     1       0.305   9.985  21.121  0.00  0.00    +0.000 A 
ATOM     11  C   UNL     1       0.728  10.215  19.809  0.00  0.00    +0.000 A 
ATOM     12  C   UNL     1       1.403   9.223  19.101  0.00  0.00    +0.000 A 
BRANCH  10  13
ATOM     13  C   UNL     1      -0.403  11.022  21.916  0.00  0.00    +0.000 C 
ATOM     14  O   UNL     1      -0.358  10.927  23.148  0.00  0.00    +0.000 OA
ATOM     15  N   UNL     1      -1.045  12.078  21.299  0.00  0.00    +0.000 N 
ATOM     16  C   UNL     1      -1.448  12.280  19.915  0.00  0.00    +0.000 C 
ATOM     17  C   UNL     1      -1.155  13.757  19.726  0.00  0.00    +0.000 C 
ATOM     18  C   UNL     1      -1.665  14.347  21.042  0.00  0.00    +0.000 C 
ATOM     19  C   UNL     1      -1.392  13.255  22.079  0.00  0.00    +0.000 C 
ENDBRANCH  10  13
ENDBRANCH   3   7
BRANCH   6  20
ATOM     20  C   UNL     1       3.932   3.853  17.785  0.00  0.00    +0.000 C 
ATOM     21  C   UNL     1       4.214   2.930  19.014  0.00  0.00    +0.000 C 
ATOM     22  C   UNL     1       3.425   1.831  18.269  0.00  0.00    +0.000 C 
ATOM     23  C   UNL     1       2.683   2.958  17.523  0.00  0.00    +0.000 C 
BRANCH  20  24
ATOM     24  C   UNL     1       5.085   3.975  16.641  0.00  0.00    +0.000 A 
ATOM     25  C   UNL     1       6.378   4.447  16.975  0.00  0.00    +0.000 A 
ATOM     26  C   UNL     1       7.278   4.902  16.008  0.00  0.00    +0.000 A 
ATOM     27  C   UNL     1       6.920   4.858  14.669  0.00  0.00    +0.000 A 
ATOM     28 CL   UNL     1       7.938   5.569  13.480  0.00  0.00    +0.000 Cl
ATOM     29  C   UNL     1       5.711   4.284  14.289  0.00  0.00    +0.000 A 
ATOM     30  C   UNL     1       4.817   3.831  15.265  0.00  0.00    +0.000 A 
ENDBRANCH  20  24
ENDBRANCH   6  20
TORSDOF 4
ENDMDL
MODEL 3
REMARK VINA RESULT:      -8.4      1.314      2.003
REMARK  Name = 
REMARK  5 active torsions:
REMARK  status: ('A' for Active; 'I' for Inactive)
REMARK    1  A    between atoms: C_1  and  N_2
REMARK    2  A    between atoms: C_3  and  C_4
REMARK    3  A    between atoms: C_7  and  C_8
REMARK    4  A    between atoms: C_19  and  C_20
REMARK    5  A    between atoms: C_20  and  C_21
REMARK                            x       y       z     vdW  Elec       q    Type
REMARK                         _______ _______ _______ _____ _____    ______ ____
ROOT
ATOM      1  C   UNL     1       0.438  10.607  21.902  0.00  0.00    +0.000 C 
ATOM      2  N   UNL     1       0.154  10.979  20.544  0.00  0.00    +0.000 N 
ATOM      3  C   UNL     1       0.561  10.359  19.382  0.00  0.00    +0.000 A 
ATOM      4  N   UNL     1       0.119  11.073  18.360  0.00  0.00    +0.000 NA
ATOM      5  N   UNL     1      -0.583  12.140  18.834  0.00  0.00    +0.000 NA
ATOM      6  C   UNL     1      -0.538  12.099  20.146  0.00  0.00    +0.000 A 
ENDROOT
BRANCH   3   7
ATOM      7  C   UNL     1       1.377   9.159  19.230  0.00  0.00    +0.000 A 
ATOM      8  C   UNL     1       1.468   8.165  20.209  0.00  0.00    +0.000 A 
ATOM      9  C   UNL     1       2.242   7.018  19.982  0.00  0.00    +0.000 A 
ATOM     10  C   UNL     1       2.883   6.820  18.758  0.00  0.00    +0.000 A 
ATOM     11  C   UNL     1       2.700   7.764  17.744  0.00  0.00    +0.000 A 
ATOM     12  C   UNL     1       2.009   8.947  17.997  0.00  0.00    +0.000 A 
BRANCH  10  13
ATOM     13  C   UNL     1       3.600   5.540  18.526  0.00  0.00    +0.000 C 
ATOM     14  O   UNL     1       4.829   5.539  18.661  0.00  0.00    +0.000 OA
ATOM     15  N   UNL     1       2.910   4.382  18.217  0.00  0.00    +0.000 N 
ATOM     16  C   UNL     1       1.543   4.171  17.767  0.00  0.00    +0.000 C 
ATOM     17  C   UNL     1       1.168   2.907  18.519  0.00  0.00    +0.000 C 
ATOM     18  C   UNL     1       2.439   2.069  18.375  0.00  0.00    +0.000 C 
ATOM     19  C   UNL     1       3.573   3.097  18.369  0.00  0.00    +0.000 C 
ENDBRANCH  10  13
ENDBRANCH   3   7
BRANCH   6  20
ATOM     20  C   UNL     1      -0.961  13.306  21.003  0.00  0.00    +0.000 C 
ATOM     21  C   UNL     1       0.204  13.886  21.869  0.00  0.00    +0.000 C 
ATOM     22  C   UNL     1      -0.352  15.288  21.535  0.00  0.00    +0.000 C 
ATOM     23  C   UNL     1      -0.956  14.674  20.255  0.00  0.00    +0.000 C 
BRANCH  20  24
ATOM     24  C   UNL     1      -2.312  12.817  21.770  0.00  0.00    +0.000 A 
ATOM     25  C   UNL     1      -3.562  12.842  21.104  0.00  0.00    +0.000 A 
ATOM     26  C   UNL     1      -4.776  12.780  21.794  0.00  0.00    +0.000 A 
ATOM     27  C   UNL     1      -4.769  12.649  23.175  0.00  0.00    +0.000 A 
ATOM     28 CL   UNL     1      -6.241  12.743  24.057  0.00  0.00    +0.000 Cl
ATOM     29  C   UNL     1      -3.565  12.493  23.854  0.00  0.00    +0.000 A 
ATOM     30  C   UNL     1      -2.355  12.555  23.154  0.00  0.00    +0.000 A 
ENDBRANCH  20  24
ENDBRANCH   6  20
TORSDOF 4
ENDMDL
MODEL 4
REMARK VINA RESULT:      -8.4      2.169      3.216
REMARK  Name = 
REMARK  5 active torsions:
REMARK  status: ('A' for Active; 'I' for Inactive)
REMARK    1  A    between atoms: C_1  and  N_2
REMARK    2  A    between atoms: C_3  and  C_4
REMARK    3  A    between atoms: C_7  and  C_8
REMARK    4  A    between atoms: C_19  and  C_20
REMARK    5  A    between atoms: C_20  and  C_21
REMARK                            x       y       z     vdW  Elec       q    Type
REMARK                         _______ _______ _______ _____ _____    ______ ____
ROOT
ATOM      1  C   UNL     1      -1.082  10.971  18.555  0.00  0.00    +0.000 C 
ATOM      2  N   UNL     1      -0.326  11.127  19.767  0.00  0.00    +0.000 N 
ATOM      3  C   UNL     1       0.725  10.364  20.226  0.00  0.00    +0.000 A 
ATOM      4  N   UNL     1       1.083  10.828  21.412  0.00  0.00    +0.000 NA
ATOM      5  N   UNL     1       0.293  11.892  21.729  0.00  0.00    +0.000 NA
ATOM      6  C   UNL     1      -0.572  12.055  20.753  0.00  0.00    +0.000 A 
ENDROOT
BRANCH   3   7
ATOM      7  C   UNL     1       1.349   9.205  19.596  0.00  0.00    +0.000 A 
ATOM      8  C   UNL     1       1.851   9.220  18.291  0.00  0.00    +0.000 A 
ATOM      9  C   UNL     1       2.473   8.081  17.760  0.00  0.00    +0.000 A 
ATOM     10  C   UNL     1       2.657   6.938  18.540  0.00  0.00    +0.000 A 
ATOM     11  C   UNL     1       2.253   6.967  19.878  0.00  0.00    +0.000 A 
ATOM     12  C   UNL     1       1.553   8.062  20.381  0.00  0.00    +0.000 A 
BRANCH  10  13
ATOM     13  C   UNL     1       3.419   5.798  17.970  0.00  0.00    +0.000 C 
ATOM     14  O   UNL     1       4.617   5.978  17.720  0.00  0.00    +0.000 OA
ATOM     15  N   UNL     1       2.821   4.568  17.772  0.00  0.00    +0.000 N 
ATOM     16  C   UNL     1       1.420   4.176  17.745  0.00  0.00    +0.000 C 
ATOM     17  C   UNL     1       1.468   2.830  18.443  0.00  0.00    +0.000 C 
ATOM     18  C   UNL     1       2.723   2.205  17.831  0.00  0.00    +0.000 C 
ATOM     19  C   UNL     1       3.654   3.393  17.580  0.00  0.00    +0.000 C 
ENDBRANCH  10  13
ENDBRANCH   3   7
BRANCH   6  20
ATOM     20  C   UNL     1      -1.804  12.963  20.914  0.00  0.00    +0.000 C 
ATOM     21  C   UNL     1      -3.075  12.415  20.189  0.00  0.00    +0.000 C 
ATOM     22  C   UNL     1      -3.886  12.903  21.408  0.00  0.00    +0.000 C 
ATOM     23  C   UNL     1      -2.596  12.763  22.242  0.00  0.00    +0.000 C 
BRANCH  20  24
ATOM     24  C   UNL     1      -1.278  14.451  20.512  0.00  0.00    +0.000 A 
ATOM     25  C   UNL     1      -0.576  14.658  19.299  0.00  0.00    +0.000 A 
ATOM     26  C   UNL     1       0.192  15.803  19.069  0.00  0.00    +0.000 A 
ATOM     27  C   UNL     1       0.245  16.794  20.037  0.00  0.00    +0.000 A 
ATOM     28 CL   UNL     1       1.316  18.126  19.850  0.00  0.00    +0.000 Cl
ATOM     29  C   UNL     1      -0.530  16.688  21.187  0.00  0.00    +0.000 A 
ATOM     30  C   UNL     1      -1.297  15.539  21.408  0.00  0.00    +0.000 A 
ENDBRANCH  20  24
ENDBRANCH   6  20
TORSDOF 4
ENDMDL
MODEL 5
REMARK VINA RESULT:      -8.3      2.696      3.957
REMARK  Name = 
REMARK  5 active torsions:
REMARK  status: ('A' for Active; 'I' for Inactive)
REMARK    1  A    between atoms: C_1  and  N_2
REMARK    2  A    between atoms: C_3  and  C_4
REMARK    3  A    between atoms: C_7  and  C_8
REMARK    4  A    between atoms: C_19  and  C_20
REMARK    5  A    between atoms: C_20  and  C_21
REMARK                            x       y       z     vdW  Elec       q    Type
REMARK                         _______ _______ _______ _____ _____    ______ ____
ROOT
ATOM      1  C   UNL     1       0.371  10.726  18.806  0.00  0.00    +0.000 C 
ATOM      2  N   UNL     1       0.676  10.311  20.148  0.00  0.00    +0.000 N 
ATOM      3  C   UNL     1       1.291   9.151  20.568  0.00  0.00    +0.000 A 
ATOM      4  N   UNL     1       1.317   9.156  21.890  0.00  0.00    +0.000 NA
ATOM      5  N   UNL     1       0.743  10.307  22.341  0.00  0.00    +0.000 NA
ATOM      6  C   UNL     1       0.334  10.988  21.295  0.00  0.00    +0.000 A 
ENDROOT
BRANCH   3   7
ATOM      7  C   UNL     1       1.799   8.048  19.759  0.00  0.00    +0.000 A 
ATOM      8  C   UNL     1       2.332   8.219  18.478  0.00  0.00    +0.000 A 
ATOM      9  C   UNL     1       2.838   7.120  17.770  0.00  0.00    +0.000 A 
ATOM     10  C   UNL     1       2.876   5.851  18.352  0.00  0.00    +0.000 A 
ATOM     11  C   UNL     1       2.443   5.706  19.673  0.00  0.00    +0.000 A 
ATOM     12  C   UNL     1       1.855   6.776  20.345  0.00  0.00    +0.000 A 
BRANCH  10  13
ATOM     13  C   UNL     1       3.521   4.741  17.606  0.00  0.00    +0.000 C 
ATOM     14  O   UNL     1       2.795   3.826  17.200  0.00  0.00    +0.000 OA
ATOM     15  N   UNL     1       4.876   4.758  17.335  0.00  0.00    +0.000 N 
ATOM     16  C   UNL     1       5.957   5.555  17.894  0.00  0.00    +0.000 C 
ATOM     17  C   UNL     1       6.808   5.819  16.665  0.00  0.00    +0.000 C 
ATOM     18  C   UNL     1       6.787   4.455  15.973  0.00  0.00    +0.000 C 
ATOM     19  C   UNL     1       5.407   3.882  16.303  0.00  0.00    +0.000 C 
ENDBRANCH  10  13
ENDBRANCH   3   7
BRANCH   6  20
ATOM     20  C   UNL     1      -0.624  12.184  21.439  0.00  0.00    +0.000 C 
ATOM     21  C   UNL     1      -2.070  11.883  20.928  0.00  0.00    +0.000 C 
ATOM     22  C   UNL     1      -2.583  12.697  22.135  0.00  0.00    +0.000 C 
ATOM     23  C   UNL     1      -1.263  12.345  22.853  0.00  0.00    +0.000 C 
BRANCH  20  24
ATOM     24  C   UNL     1       0.175  13.438  20.775  0.00  0.00    +0.000 A 
ATOM     25  C   UNL     1      -0.412  14.184  19.723  0.00  0.00    +0.000 A 
ATOM     26  C   UNL     1       0.340  15.018  18.891  0.00  0.00    +0.000 A 
ATOM     27  C   UNL     1       1.701  15.160  19.119  0.00  0.00    +0.000 A 
ATOM     28 CL   UNL     1       2.673  16.041  18.008  0.00  0.00    +0.000 Cl
ATOM     29  C   UNL     1       2.292  14.545  20.217  0.00  0.00    +0.000 A 
ATOM     30  C   UNL     1       1.530  13.713  21.045  0.00  0.00    +0.000 A 
ENDBRANCH  20  24
ENDBRANCH   6  20
TORSDOF 4
ENDMDL
MODEL 6
REMARK VINA RESULT:      -8.3      4.182     10.494
REMARK  Name = 
REMARK  5 active torsions:
REMARK  status: ('A' for Active; 'I' for Inactive)
REMARK    1  A    between atoms: C_1  and  N_2
REMARK    2  A    between atoms: C_3  and  C_4
REMARK    3  A    between atoms: C_7  and  C_8
REMARK    4  A    between atoms: C_19  and  C_20
REMARK    5  A    between atoms: C_20  and  C_21
REMARK                            x       y       z     vdW  Elec       q    Type
REMARK                         _______ _______ _______ _____ _____    ______ ____
ROOT
ATOM      1  C   UNL     1       1.816   5.252  19.503  0.00  0.00    +0.000 C 
ATOM      2  N   UNL     1       2.725   6.009  18.688  0.00  0.00    +0.000 N 
ATOM      3  C   UNL     1       2.675   7.347  18.363  0.00  0.00    +0.000 A 
ATOM      4  N   UNL     1       3.680   7.608  17.543  0.00  0.00    +0.000 NA
ATOM      5  N   UNL     1       4.395   6.466  17.339  0.00  0.00    +0.000 NA
ATOM      6  C   UNL     1       3.805   5.499  18.006  0.00  0.00    +0.000 A 
ENDROOT
BRANCH   3   7
ATOM      7  C   UNL     1       1.691   8.344  18.770  0.00  0.00    +0.000 A 
ATOM      8  C   UNL     1       1.364   8.598  20.105  0.00  0.00    +0.000 A 
ATOM      9  C   UNL     1       0.435   9.598  20.428  0.00  0.00    +0.000 A 
ATOM     10  C   UNL     1      -0.130  10.395  19.432  0.00  0.00    +0.000 A 
ATOM     11  C   UNL     1       0.282  10.211  18.109  0.00  0.00    +0.000 A 
ATOM     12  C   UNL     1       1.133   9.159  17.775  0.00  0.00    +0.000 A 
BRANCH  10  13
ATOM     13  C   UNL     1      -1.023  11.513  19.832  0.00  0.00    +0.000 C 
ATOM     14  O   UNL     1      -1.589  12.143  18.932  0.00  0.00    +0.000 OA
ATOM     15  N   UNL     1      -1.248  11.804  21.164  0.00  0.00    +0.000 N 
ATOM     16  C   UNL     1      -0.539  11.398  22.368  0.00  0.00    +0.000 C 
ATOM     17  C   UNL     1      -1.686  11.184  23.339  0.00  0.00    +0.000 C 
ATOM     18  C   UNL     1      -2.584  12.382  23.029  0.00  0.00    +0.000 C 
ATOM     19  C   UNL     1      -2.390  12.626  21.531  0.00  0.00    +0.000 C 
ENDBRANCH  10  13
ENDBRANCH   3   7
BRANCH   6  20
ATOM     20  C   UNL     1       4.161   4.021  17.760  0.00  0.00    +0.000 C 
ATOM     21  C   UNL     1       4.523   3.247  19.068  0.00  0.00    +0.000 C 
ATOM     22  C   UNL     1       3.747   2.049  18.480  0.00  0.00    +0.000 C 
ATOM     23  C   UNL     1       2.936   3.063  17.648  0.00  0.00    +0.000 C 
BRANCH  20  24
ATOM     24  C   UNL     1       5.264   4.054  16.562  0.00  0.00    +0.000 A 
ATOM     25  C   UNL     1       6.592   4.474  16.823  0.00  0.00    +0.000 A 
ATOM     26  C   UNL     1       7.467   4.857  15.803  0.00  0.00    +0.000 A 
ATOM     27  C   UNL     1       7.045   4.790  14.483  0.00  0.00    +0.000 A 
ATOM     28 CL   UNL     1       8.039   5.417  13.228  0.00  0.00    +0.000 Cl
ATOM     29  C   UNL     1       5.795   4.264  14.176  0.00  0.00    +0.000 A 
ATOM     30  C   UNL     1       4.926   3.882  15.205  0.00  0.00    +0.000 A 
ENDBRANCH  20  24
ENDBRANCH   6  20
TORSDOF 4
ENDMDL
MODEL 7
REMARK VINA RESULT:      -8.2      2.311      3.440
REMARK  Name = 
REMARK  5 active torsions:
REMARK  status: ('A' for Active; 'I' for Inactive)
REMARK    1  A    between atoms: C_1  and  N_2
REMARK    2  A    between atoms: C_3  and  C_4
REMARK    3  A    between atoms: C_7  and  C_8
REMARK    4  A    between atoms: C_19  and  C_20
REMARK    5  A    between atoms: C_20  and  C_21
REMARK                            x       y       z     vdW  Elec       q    Type
REMARK                         _______ _______ _______ _____ _____    ______ ____
ROOT
ATOM      1  C   UNL     1       0.164  11.682  18.741  0.00  0.00    +0.000 C 
ATOM      2  N   UNL     1       0.288  11.256  20.107  0.00  0.00    +0.000 N 
ATOM      3  C   UNL     1       0.815  10.080  20.595  0.00  0.00    +0.000 A 
ATOM      4  N   UNL     1       0.674  10.082  21.910  0.00  0.00    +0.000 NA
ATOM      5  N   UNL     1       0.078  11.246  22.292  0.00  0.00    +0.000 NA
ATOM      6  C   UNL     1      -0.178  11.940  21.206  0.00  0.00    +0.000 A 
ENDROOT
BRANCH   3   7
ATOM      7  C   UNL     1       1.392   8.966  19.850  0.00  0.00    +0.000 A 
ATOM      8  C   UNL     1       1.792   9.062  18.515  0.00  0.00    +0.000 A 
ATOM      9  C   UNL     1       2.375   7.962  17.869  0.00  0.00    +0.000 A 
ATOM     10  C   UNL     1       2.623   6.777  18.564  0.00  0.00    +0.000 A 
ATOM     11  C   UNL     1       2.322   6.723  19.928  0.00  0.00    +0.000 A 
ATOM     12  C   UNL     1       1.659   7.780  20.548  0.00  0.00    +0.000 A 
BRANCH  10  13
ATOM     13  C   UNL     1       3.342   5.678  17.869  0.00  0.00    +0.000 C 
ATOM     14  O   UNL     1       4.475   5.921  17.436  0.00  0.00    +0.000 OA
ATOM     15  N   UNL     1       2.783   4.420  17.756  0.00  0.00    +0.000 N 
ATOM     16  C   UNL     1       1.417   3.955  17.946  0.00  0.00    +0.000 C 
ATOM     17  C   UNL     1       1.644   2.612  18.614  0.00  0.00    +0.000 C 
ATOM     18  C   UNL     1       2.816   2.055  17.806  0.00  0.00    +0.000 C 
ATOM     19  C   UNL     1       3.635   3.289  17.424  0.00  0.00    +0.000 C 
ENDBRANCH  10  13
ENDBRANCH   3   7
BRANCH   6  20
ATOM     20  C   UNL     1      -1.116  13.161  21.235  0.00  0.00    +0.000 C 
ATOM     21  C   UNL     1      -2.512  12.883  20.588  0.00  0.00    +0.000 C 
ATOM     22  C   UNL     1      -3.120  13.732  21.726  0.00  0.00    +0.000 C 
ATOM     23  C   UNL     1      -1.887  13.363  22.576  0.00  0.00    +0.000 C 
BRANCH  20  24
ATOM     24  C   UNL     1      -0.225  14.383  20.632  0.00  0.00    +0.000 A 
ATOM     25  C   UNL     1      -0.714  15.161  19.554  0.00  0.00    +0.000 A 
ATOM     26  C   UNL     1       0.123  15.968  18.777  0.00  0.00    +0.000 A 
ATOM     27  C   UNL     1       1.472  16.048  19.088  0.00  0.00    +0.000 A 
ATOM     28 CL   UNL     1       2.547  16.894  18.046  0.00  0.00    +0.000 Cl
ATOM     29  C   UNL     1       1.968  15.400  20.214  0.00  0.00    +0.000 A 
ATOM     30  C   UNL     1       1.122  14.596  20.986  0.00  0.00    +0.000 A 
ENDBRANCH  20  24
ENDBRANCH   6  20
TORSDOF 4
ENDMDL
MODEL 8
REMARK VINA RESULT:      -8.2      1.100      1.983
REMARK  Name = 
REMARK  5 active torsions:
REMARK  status: ('A' for Active; 'I' for Inactive)
REMARK    1  A    between atoms: C_1  and  N_2
REMARK    2  A    between atoms: C_3  and  C_4
REMARK    3  A    between atoms: C_7  and  C_8
REMARK    4  A    between atoms: C_19  and  C_20
REMARK    5  A    between atoms: C_20  and  C_21
REMARK                            x       y       z     vdW  Elec       q    Type
REMARK                         _______ _______ _______ _____ _____    ______ ____
ROOT
ATOM      1  C   UNL     1      -0.796   9.433  21.180  0.00  0.00    +0.000 C 
ATOM      2  N   UNL     1      -0.165  10.448  20.383  0.00  0.00    +0.000 N 
ATOM      3  C   UNL     1       0.894  10.318  19.511  0.00  0.00    +0.000 A 
ATOM      4  N   UNL     1       1.184  11.518  19.036  0.00  0.00    +0.000 NA
ATOM      5  N   UNL     1       0.322  12.428  19.571  0.00  0.00    +0.000 NA
ATOM      6  C   UNL     1      -0.472  11.788  20.401  0.00  0.00    +0.000 A 
ENDROOT
BRANCH   3   7
ATOM      7  C   UNL     1       1.644   9.115  19.166  0.00  0.00    +0.000 A 
ATOM      8  C   UNL     1       1.778   8.022  20.026  0.00  0.00    +0.000 A 
ATOM      9  C   UNL     1       2.483   6.881  19.616  0.00  0.00    +0.000 A 
ATOM     10  C   UNL     1       3.006   6.791  18.325  0.00  0.00    +0.000 A 
ATOM     11  C   UNL     1       2.774   7.841  17.432  0.00  0.00    +0.000 A 
ATOM     12  C   UNL     1       2.156   9.013  17.865  0.00  0.00    +0.000 A 
BRANCH  10  13
ATOM     13  C   UNL     1       3.646   5.520  17.900  0.00  0.00    +0.000 C 
ATOM     14  O   UNL     1       4.868   5.530  17.712  0.00  0.00    +0.000 OA
ATOM     15  N   UNL     1       2.908   4.359  17.767  0.00  0.00    +0.000 N 
ATOM     16  C   UNL     1       1.472   4.139  17.685  0.00  0.00    +0.000 C 
ATOM     17  C   UNL     1       1.313   2.865  18.493  0.00  0.00    +0.000 C 
ATOM     18  C   UNL     1       2.509   2.040  18.016  0.00  0.00    +0.000 C 
ATOM     19  C   UNL     1       3.595   3.079  17.727  0.00  0.00    +0.000 C 
ENDBRANCH  10  13
ENDBRANCH   3   7
BRANCH   6  20
ATOM     20  C   UNL     1      -1.362  12.544  21.405  0.00  0.00    +0.000 C 
ATOM     21  C   UNL     1      -1.261  11.986  22.861  0.00  0.00    +0.000 C 
ATOM     22  C   UNL     1      -1.317  13.452  23.342  0.00  0.00    +0.000 C 
ATOM     23  C   UNL     1      -0.742  13.858  21.970  0.00  0.00    +0.000 C 
BRANCH  20  24
ATOM     24  C   UNL     1      -2.831  12.589  20.704  0.00  0.00    +0.000 A 
ATOM     25  C   UNL     1      -3.992  12.801  21.488  0.00  0.00    +0.000 A 
ATOM     26  C   UNL     1      -5.274  12.502  21.018  0.00  0.00    +0.000 A 
ATOM     27  C   UNL     1      -5.431  12.019  19.727  0.00  0.00    +0.000 A 
ATOM     28 CL   UNL     1      -6.974  11.484  19.189  0.00  0.00    +0.000 Cl
ATOM     29  C   UNL     1      -4.331  11.916  18.882  0.00  0.00    +0.000 A 
ATOM     30  C   UNL     1      -3.052  12.219  19.362  0.00  0.00    +0.000 A 
ENDBRANCH  20  24
ENDBRANCH   6  20
TORSDOF 4
ENDMDL
MODEL 9
REMARK VINA RESULT:      -8.2      1.896      2.602
REMARK  Name = 
REMARK  5 active torsions:
REMARK  status: ('A' for Active; 'I' for Inactive)
REMARK    1  A    between atoms: C_1  and  N_2
REMARK    2  A    between atoms: C_3  and  C_4
REMARK    3  A    between atoms: C_7  and  C_8
REMARK    4  A    between atoms: C_19  and  C_20
REMARK    5  A    between atoms: C_20  and  C_21
REMARK                            x       y       z     vdW  Elec       q    Type
REMARK                         _______ _______ _______ _____ _____    ______ ____
ROOT
ATOM      1  C   UNL     1       1.652  11.360  19.085  0.00  0.00    +0.000 C 
ATOM      2  N   UNL     1       0.928  10.649  20.102  0.00  0.00    +0.000 N 
ATOM      3  C   UNL     1       0.910   9.295  20.353  0.00  0.00    +0.000 A 
ATOM      4  N   UNL     1       0.063   9.072  21.345  0.00  0.00    +0.000 NA
ATOM      5  N   UNL     1      -0.461  10.261  21.756  0.00  0.00    +0.000 NA
ATOM      6  C   UNL     1       0.038  11.205  20.991  0.00  0.00    +0.000 A 
ENDROOT
BRANCH   3   7
ATOM      7  C   UNL     1       1.628   8.232  19.658  0.00  0.00    +0.000 A 
ATOM      8  C   UNL     1       2.278   8.420  18.434  0.00  0.00    +0.000 A 
ATOM      9  C   UNL     1       2.982   7.364  17.838  0.00  0.00    +0.000 A 
ATOM     10  C   UNL     1       3.100   6.131  18.482  0.00  0.00    +0.000 A 
ATOM     11  C   UNL     1       2.543   5.983  19.755  0.00  0.00    +0.000 A 
ATOM     12  C   UNL     1       1.765   6.998  20.308  0.00  0.00    +0.000 A 
BRANCH  10  13
ATOM     13  C   UNL     1       3.948   5.080  17.863  0.00  0.00    +0.000 C 
ATOM     14  O   UNL     1       3.410   4.310  17.059  0.00  0.00    +0.000 OA
ATOM     15  N   UNL     1       5.300   4.999  18.142  0.00  0.00    +0.000 N 
ATOM     16  C   UNL     1       6.098   5.596  19.202  0.00  0.00    +0.000 C 
ATOM     17  C   UNL     1       7.375   5.945  18.459  0.00  0.00    +0.000 C 
ATOM     18  C   UNL     1       7.581   4.703  17.591  0.00  0.00    +0.000 C 
ATOM     19  C   UNL     1       6.164   4.231  17.260  0.00  0.00    +0.000 C 
ENDBRANCH  10  13
ENDBRANCH   3   7
BRANCH   6  20
ATOM     20  C   UNL     1      -0.561  12.624  20.972  0.00  0.00    +0.000 C 
ATOM     21  C   UNL     1      -0.775  13.223  22.399  0.00  0.00    +0.000 C 
ATOM     22  C   UNL     1      -0.300  14.573  21.818  0.00  0.00    +0.000 C 
ATOM     23  C   UNL     1       0.474  13.769  20.752  0.00  0.00    +0.000 C 
BRANCH  20  24
ATOM     24  C   UNL     1      -1.854  12.514  19.988  0.00  0.00    +0.000 A 
ATOM     25  C   UNL     1      -3.151  12.807  20.476  0.00  0.00    +0.000 A 
ATOM     26  C   UNL     1      -4.309  12.399  19.807  0.00  0.00    +0.000 A 
ATOM     27  C   UNL     1      -4.196  11.719  18.603  0.00  0.00    +0.000 A 
ATOM     28 CL   UNL     1      -5.595  11.059  17.852  0.00  0.00    +0.000 Cl
ATOM     29  C   UNL     1      -2.946  11.523  18.027  0.00  0.00    +0.000 A 
ATOM     30  C   UNL     1      -1.793  11.936  18.704  0.00  0.00    +0.000 A 
ENDBRANCH  20  24
ENDBRANCH   6  20
TORSDOF 4
ENDMDL
