MODEL 1
REMARK VINA RESULT:      -6.8      0.000      0.000
REMARK  Name = 
REMARK  9 active torsions:
REMARK  status: ('A' for Active; 'I' for Inactive)
REMARK    1  A    between atoms: C_2  and  O_3
REMARK    2  A    between atoms: C_2  and  C_4
REMARK    3  A    between atoms: C_4  and  C_5
REMARK    4  A    between atoms: C_5  and  N_6
REMARK    5  A    between atoms: C_5  and  C_21
REMARK    6  A    between atoms: N_6  and  C_7
REMARK    7  A    between atoms: C_7  and  C_8
REMARK    8  A    between atoms: N_11  and  C_12
REMARK    9  A    between atoms: C_12  and  C_13
REMARK                            x       y       z     vdW  Elec       q    Type
REMARK                         _______ _______ _______ _____ _____    ______ ____
ROOT
ATOM      1  C   UNL     1       2.331   6.774  19.737  0.00  0.00    +0.000 C 
ENDROOT
BRANCH   1   2
ATOM      2  C   UNL     1       2.033   8.096  19.121  0.00  0.00    +0.000 A 
ATOM      3  C   UNL     1       2.435   8.615  17.869  0.00  0.00    +0.000 A 
ATOM      4  N   UNL     1       1.889   9.805  17.599  0.00  0.00    +0.000 NA
ATOM      5  N   UNL     1       1.101  10.046  18.668  0.00  0.00    +0.000 N 
ATOM      6  C   UNL     1       1.179   9.063  19.614  0.00  0.00    +0.000 A 
BRANCH   5   7
ATOM      7  C   UNL     1       0.334  11.285  18.758  0.00  0.00    +0.000 C 
BRANCH   7   8
ATOM      8  C   UNL     1      -1.114  11.087  18.375  0.00  0.00    +0.000 A 
ATOM      9  C   UNL     1      -1.442  10.061  17.469  0.00  0.00    +0.000 A 
ATOM     10  C   UNL     1      -2.769   9.804  17.119  0.00  0.00    +0.000 A 
ATOM     11  C   UNL     1      -3.796  10.557  17.680  0.00  0.00    +0.000 A 
ATOM     12  C   UNL     1      -3.491  11.586  18.568  0.00  0.00    +0.000 A 
ATOM     13  C   UNL     1      -2.161  11.859  18.906  0.00  0.00    +0.000 A 
ATOM     14 CL   UNL     1      -1.879  13.192  19.968  0.00  0.00    +0.000 Cl
ENDBRANCH   7   8
ENDBRANCH   5   7
ENDBRANCH   1   2
BRANCH   1  15
ATOM     15  N   UNL     1       2.536   5.740  18.716  0.00  0.00    +0.000 NA
ATOM     16  H   UNL     1       2.764   6.210  17.836  0.00  0.00    +0.000 HD
BRANCH  15  17
ATOM     17  C   UNL     1       3.667   4.856  19.075  0.00  0.00    +0.000 C 
BRANCH  17  18
ATOM     18  C   UNL     1       4.777   5.084  18.056  0.00  0.00    +0.000 A 
ATOM     19  C   UNL     1       4.646   5.836  16.835  0.00  0.00    +0.000 A 
ATOM     20  C   UNL     1       5.759   5.748  16.029  0.00  0.00    +0.000 A 
ATOM     21  S   UNL     1       6.996   4.817  16.748  0.00  0.00    +0.000 S 
ATOM     22  C   UNL     1       6.034   4.508  18.130  0.00  0.00    +0.000 A 
ENDBRANCH  17  18
BRANCH  17  23
ATOM     23  C   UNL     1       3.269   3.372  19.086  0.00  0.00    +0.000 C 
BRANCH  23  25
ATOM     24  O   UNL     1       0.901   3.008  18.947  0.00  0.00    +0.000 OA
ATOM     25  C   UNL     1       1.963   3.160  18.367  0.00  0.00    +0.000 C 
BRANCH  25  26
ATOM     26  O   UNL     1       2.067   3.141  17.023  0.00  0.00    +0.000 OA
ATOM     27  H   UNL     1       1.404   2.579  16.577  0.00  0.00    +0.000 HD
ENDBRANCH  25  26
ENDBRANCH  23  25
ENDBRANCH  17  23
ENDBRANCH  15  17
ENDBRANCH   1  15
TORSDOF 9
ENDMDL
MODEL 2
REMARK VINA RESULT:      -6.8      0.887      1.150
REMARK  Name = 
REMARK  9 active torsions:
REMARK  status: ('A' for Active; 'I' for Inactive)
REMARK    1  A    between atoms: C_2  and  O_3
REMARK    2  A    between atoms: C_2  and  C_4
REMARK    3  A    between atoms: C_4  and  C_5
REMARK    4  A    between atoms: C_5  and  N_6
REMARK    5  A    between atoms: C_5  and  C_21
REMARK    6  A    between atoms: N_6  and  C_7
REMARK    7  A    between atoms: C_7  and  C_8
REMARK    8  A    between atoms: N_11  and  C_12
REMARK    9  A    between atoms: C_12  and  C_13
REMARK                            x       y       z     vdW  Elec       q    Type
REMARK                         _______ _______ _______ _____ _____    ______ ____
ROOT
ATOM      1  C   UNL     1       2.987   6.858  18.331  0.00  0.00    +0.000 C 
ENDROOT
BRANCH   1   2
ATOM      2  C   UNL     1       2.108   7.952  18.822  0.00  0.00    +0.000 A 
ATOM      3  C   UNL     1       1.568   8.160  20.112  0.00  0.00    +0.000 A 
ATOM      4  N   UNL     1       0.903   9.316  20.219  0.00  0.00    +0.000 NA
ATOM      5  N   UNL     1       1.040   9.878  18.999  0.00  0.00    +0.000 N 
ATOM      6  C   UNL     1       1.729   9.084  18.126  0.00  0.00    +0.000 A 
BRANCH   5   7
ATOM      7  C   UNL     1       0.423  11.168  18.705  0.00  0.00    +0.000 C 
BRANCH   7   8
ATOM      8  C   UNL     1      -1.043  11.034  18.365  0.00  0.00    +0.000 A 
ATOM      9  C   UNL     1      -1.443  10.016  17.480  0.00  0.00    +0.000 A 
ATOM     10  C   UNL     1      -2.790   9.817  17.170  0.00  0.00    +0.000 A 
ATOM     11  C   UNL     1      -3.765  10.623  17.751  0.00  0.00    +0.000 A 
ATOM     12  C   UNL     1      -3.388  11.646  18.618  0.00  0.00    +0.000 A 
ATOM     13  C   UNL     1      -2.037  11.859  18.916  0.00  0.00    +0.000 A 
ATOM     14 CL   UNL     1      -1.663  13.188  19.955  0.00  0.00    +0.000 Cl
ENDBRANCH   7   8
ENDBRANCH   5   7
ENDBRANCH   1   2
BRANCH   1  15
ATOM     15  N   UNL     1       3.196   5.833  19.360  0.00  0.00    +0.000 NA
ATOM     16  H   UNL     1       2.341   5.771  19.917  0.00  0.00    +0.000 HD
BRANCH  15  17
ATOM     17  C   UNL     1       3.450   4.509  18.749  0.00  0.00    +0.000 C 
BRANCH  17  18
ATOM     18  C   UNL     1       4.774   4.589  18.000  0.00  0.00    +0.000 A 
ATOM     19  C   UNL     1       4.963   4.278  16.606  0.00  0.00    +0.000 A 
ATOM     20  C   UNL     1       6.288   4.284  16.232  0.00  0.00    +0.000 A 
ATOM     21  S   UNL     1       7.316   4.719  17.523  0.00  0.00    +0.000 S 
ATOM     22  C   UNL     1       5.990   4.876  18.595  0.00  0.00    +0.000 A 
ENDBRANCH  17  18
BRANCH  17  23
ATOM     23  C   UNL     1       2.330   4.086  17.785  0.00  0.00    +0.000 C 
BRANCH  23  25
ATOM     24  O   UNL     1       0.758   2.650  18.894  0.00  0.00    +0.000 OA
ATOM     25  C   UNL     1       1.748   2.757  18.189  0.00  0.00    +0.000 C 
BRANCH  25  26
ATOM     26  O   UNL     1       2.421   1.690  17.713  0.00  0.00    +0.000 OA
ATOM     27  H   UNL     1       2.989   1.884  16.942  0.00  0.00    +0.000 HD
ENDBRANCH  25  26
ENDBRANCH  23  25
ENDBRANCH  17  23
ENDBRANCH  15  17
ENDBRANCH   1  15
TORSDOF 9
ENDMDL
MODEL 3
REMARK VINA RESULT:      -6.7      2.540      3.500
REMARK  Name = 
REMARK  9 active torsions:
REMARK  status: ('A' for Active; 'I' for Inactive)
REMARK    1  A    between atoms: C_2  and  O_3
REMARK    2  A    between atoms: C_2  and  C_4
REMARK    3  A    between atoms: C_4  and  C_5
REMARK    4  A    between atoms: C_5  and  N_6
REMARK    5  A    between atoms: C_5  and  C_21
REMARK    6  A    between atoms: N_6  and  C_7
REMARK    7  A    between atoms: C_7  and  C_8
REMARK    8  A    between atoms: N_11  and  C_12
REMARK    9  A    between atoms: C_12  and  C_13
REMARK                            x       y       z     vdW  Elec       q    Type
REMARK                         _______ _______ _______ _____ _____    ______ ____
ROOT
ATOM      1  C   UNL     1       3.599   7.158  17.207  0.00  0.00    +0.000 C 
ENDROOT
BRANCH   1   2
ATOM      2  C   UNL     1       2.730   7.517  18.359  0.00  0.00    +0.000 A 
ATOM      3  C   UNL     1       2.434   6.777  19.527  0.00  0.00    +0.000 A 
ATOM      4  N   UNL     1       1.694   7.462  20.405  0.00  0.00    +0.000 NA
ATOM      5  N   UNL     1       1.535   8.668  19.818  0.00  0.00    +0.000 N 
ATOM      6  C   UNL     1       2.115   8.734  18.583  0.00  0.00    +0.000 A 
BRANCH   5   7
ATOM      7  C   UNL     1       0.750   9.711  20.472  0.00  0.00    +0.000 C 
BRANCH   7   8
ATOM      8  C   UNL     1      -0.103  10.480  19.491  0.00  0.00    +0.000 A 
ATOM      9  C   UNL     1      -1.182   9.823  18.870  0.00  0.00    +0.000 A 
ATOM     10  C   UNL     1      -2.031  10.500  17.992  0.00  0.00    +0.000 A 
ATOM     11  C   UNL     1      -1.828  11.851  17.729  0.00  0.00    +0.000 A 
ATOM     12  C   UNL     1      -0.756  12.516  18.322  0.00  0.00    +0.000 A 
ATOM     13  C   UNL     1       0.107  11.836  19.188  0.00  0.00    +0.000 A 
ATOM     14 CL   UNL     1       1.441  12.728  19.828  0.00  0.00    +0.000 Cl
ENDBRANCH   7   8
ENDBRANCH   5   7
ENDBRANCH   1   2
BRANCH   1  15
ATOM     15  N   UNL     1       4.643   6.204  17.598  0.00  0.00    +0.000 NA
ATOM     16  H   UNL     1       4.501   5.973  18.584  0.00  0.00    +0.000 HD
BRANCH  15  17
ATOM     17  C   UNL     1       4.544   4.955  16.810  0.00  0.00    +0.000 C 
BRANCH  17  18
ATOM     18  C   UNL     1       3.803   3.928  17.658  0.00  0.00    +0.000 A 
ATOM     19  C   UNL     1       2.563   3.289  17.300  0.00  0.00    +0.000 A 
ATOM     20  C   UNL     1       2.040   2.526  18.319  0.00  0.00    +0.000 A 
ATOM     21  S   UNL     1       3.052   2.514  19.693  0.00  0.00    +0.000 S 
ATOM     22  C   UNL     1       4.182   3.553  18.935  0.00  0.00    +0.000 A 
ENDBRANCH  17  18
BRANCH  17  23
ATOM     23  C   UNL     1       5.922   4.404  16.411  0.00  0.00    +0.000 C 
BRANCH  23  25
ATOM     24  O   UNL     1       7.534   6.181  16.476  0.00  0.00    +0.000 OA
ATOM     25  C   UNL     1       7.027   5.219  17.029  0.00  0.00    +0.000 C 
BRANCH  25  26
ATOM     26  O   UNL     1       7.418   4.790  18.246  0.00  0.00    +0.000 OA
ATOM     27  H   UNL     1       6.701   4.400  18.784  0.00  0.00    +0.000 HD
ENDBRANCH  25  26
ENDBRANCH  23  25
ENDBRANCH  17  23
ENDBRANCH  15  17
ENDBRANCH   1  15
TORSDOF 9
ENDMDL
MODEL 4
REMARK VINA RESULT:      -6.7      2.131      3.013
REMARK  Name = 
REMARK  9 active torsions:
REMARK  status: ('A' for Active; 'I' for Inactive)
REMARK    1  A    between atoms: C_2  and  O_3
REMARK    2  A    between atoms: C_2  and  C_4
REMARK    3  A    between atoms: C_4  and  C_5
REMARK    4  A    between atoms: C_5  and  N_6
REMARK    5  A    between atoms: C_5  and  C_21
REMARK    6  A    between atoms: N_6  and  C_7
REMARK    7  A    between atoms: C_7  and  C_8
REMARK    8  A    between atoms: N_11  and  C_12
REMARK    9  A    between atoms: C_12  and  C_13
REMARK                            x       y       z     vdW  Elec       q    Type
REMARK                         _______ _______ _______ _____ _____    ______ ____
ROOT
ATOM      1  C   UNL     1       3.137   7.794  17.903  0.00  0.00    +0.000 C 
ENDROOT
BRANCH   1   2
ATOM      2  C   UNL     1       2.073   8.657  18.482  0.00  0.00    +0.000 A 
ATOM      3  C   UNL     1       1.427   8.567  19.736  0.00  0.00    +0.000 A 
ATOM      4  N   UNL     1       0.588   9.584  19.965  0.00  0.00    +0.000 NA
ATOM      5  N   UNL     1       0.716  10.357  18.866  0.00  0.00    +0.000 N 
ATOM      6  C   UNL     1       1.572   9.825  17.943  0.00  0.00    +0.000 A 
BRANCH   5   7
ATOM      7  C   UNL     1      -0.069  11.580  18.726  0.00  0.00    +0.000 C 
BRANCH   7   8
ATOM      8  C   UNL     1      -1.505  11.295  18.351  0.00  0.00    +0.000 A 
ATOM      9  C   UNL     1      -1.771  10.290  17.402  0.00  0.00    +0.000 A 
ATOM     10  C   UNL     1      -3.081   9.953  17.055  0.00  0.00    +0.000 A 
ATOM     11  C   UNL     1      -4.151  10.603  17.663  0.00  0.00    +0.000 A 
ATOM     12  C   UNL     1      -3.909  11.610  18.594  0.00  0.00    +0.000 A 
ATOM     13  C   UNL     1      -2.597  11.962  18.930  0.00  0.00    +0.000 A 
ATOM     14 CL   UNL     1      -2.395  13.262  20.050  0.00  0.00    +0.000 Cl
ENDBRANCH   7   8
ENDBRANCH   5   7
ENDBRANCH   1   2
BRANCH   1  15
ATOM     15  N   UNL     1       3.358   6.593  18.717  0.00  0.00    +0.000 NA
ATOM     16  H   UNL     1       2.611   6.546  19.413  0.00  0.00    +0.000 HD
BRANCH  15  17
ATOM     17  C   UNL     1       3.296   5.369  17.888  0.00  0.00    +0.000 C 
BRANCH  17  18
ATOM     18  C   UNL     1       2.336   4.398  18.563  0.00  0.00    +0.000 A 
ATOM     19  C   UNL     1       1.737   4.584  19.860  0.00  0.00    +0.000 A 
ATOM     20  C   UNL     1       1.037   3.479  20.289  0.00  0.00    +0.000 A 
ATOM     21  S   UNL     1       1.036   2.230  19.126  0.00  0.00    +0.000 S 
ATOM     22  C   UNL     1       1.995   3.158  18.053  0.00  0.00    +0.000 A 
ENDBRANCH  17  18
BRANCH  17  23
ATOM     23  C   UNL     1       4.673   4.707  17.718  0.00  0.00    +0.000 C 
BRANCH  23  25
ATOM     24  O   UNL     1       5.568   5.249  19.878  0.00  0.00    +0.000 OA
ATOM     25  C   UNL     1       5.286   4.392  19.057  0.00  0.00    +0.000 C 
BRANCH  25  26
ATOM     26  O   UNL     1       5.510   3.079  19.269  0.00  0.00    +0.000 OA
ATOM     27  H   UNL     1       5.811   2.864  20.174  0.00  0.00    +0.000 HD
ENDBRANCH  25  26
ENDBRANCH  23  25
ENDBRANCH  17  23
ENDBRANCH  15  17
ENDBRANCH   1  15
TORSDOF 9
ENDMDL
MODEL 5
REMARK VINA RESULT:      -6.7      4.614      8.051
REMARK  Name = 
REMARK  9 active torsions:
REMARK  status: ('A' for Active; 'I' for Inactive)
REMARK    1  A    between atoms: C_2  and  O_3
REMARK    2  A    between atoms: C_2  and  C_4
REMARK    3  A    between atoms: C_4  and  C_5
REMARK    4  A    between atoms: C_5  and  N_6
REMARK    5  A    between atoms: C_5  and  C_21
REMARK    6  A    between atoms: N_6  and  C_7
REMARK    7  A    between atoms: C_7  and  C_8
REMARK    8  A    between atoms: N_11  and  C_12
REMARK    9  A    between atoms: C_12  and  C_13
REMARK                            x       y       z     vdW  Elec       q    Type
REMARK                         _______ _______ _______ _____ _____    ______ ____
ROOT
ATOM      1  C   UNL     1       0.907   9.671  19.122  0.00  0.00    +0.000 C 
ENDROOT
BRANCH   1   2
ATOM      2  C   UNL     1       1.815   8.529  18.833  0.00  0.00    +0.000 A 
ATOM      3  C   UNL     1       2.651   8.306  17.716  0.00  0.00    +0.000 A 
ATOM      4  N   UNL     1       3.413   7.214  17.844  0.00  0.00    +0.000 NA
ATOM      5  N   UNL     1       3.093   6.742  19.069  0.00  0.00    +0.000 N 
ATOM      6  C   UNL     1       2.122   7.483  19.682  0.00  0.00    +0.000 A 
BRANCH   5   7
ATOM      7  C   UNL     1       3.714   5.523  19.578  0.00  0.00    +0.000 C 
BRANCH   7   8
ATOM      8  C   UNL     1       2.830   4.313  19.388  0.00  0.00    +0.000 A 
ATOM      9  C   UNL     1       1.921   3.971  20.408  0.00  0.00    +0.000 A 
ATOM     10  C   UNL     1       1.048   2.891  20.263  0.00  0.00    +0.000 A 
ATOM     11  C   UNL     1       1.055   2.141  19.091  0.00  0.00    +0.000 A 
ATOM     12  C   UNL     1       1.956   2.455  18.076  0.00  0.00    +0.000 A 
ATOM     13  C   UNL     1       2.846   3.525  18.226  0.00  0.00    +0.000 A 
ATOM     14 CL   UNL     1       3.966   3.800  16.940  0.00  0.00    +0.000 Cl
ENDBRANCH   7   8
ENDBRANCH   5   7
ENDBRANCH   1   2
BRANCH   1  15
ATOM     15  N   UNL     1       0.739   9.873  20.566  0.00  0.00    +0.000 NA
ATOM     16  H   UNL     1       1.600  10.290  20.925  0.00  0.00    +0.000 HD
BRANCH  15  17
ATOM     17  C   UNL     1      -0.379  10.801  20.847  0.00  0.00    +0.000 C 
BRANCH  17  18
ATOM     18  C   UNL     1       0.039  12.188  20.371  0.00  0.00    +0.000 A 
ATOM     19  C   UNL     1       1.230  12.886  20.781  0.00  0.00    +0.000 A 
ATOM     20  C   UNL     1       1.276  14.182  20.319  0.00  0.00    +0.000 A 
ATOM     21  S   UNL     1      -0.072  14.562  19.343  0.00  0.00    +0.000 S 
ATOM     22  C   UNL     1      -0.733  12.997  19.556  0.00  0.00    +0.000 A 
ENDBRANCH  17  18
BRANCH  17  23
ATOM     23  C   UNL     1      -0.738  10.850  22.340  0.00  0.00    +0.000 C 
BRANCH  23  25
ATOM     24  O   UNL     1       0.951   9.728  23.625  0.00  0.00    +0.000 OA
ATOM     25  C   UNL     1      -0.137   9.681  23.076  0.00  0.00    +0.000 C 
BRANCH  25  26
ATOM     26  O   UNL     1      -0.900   8.569  23.067  0.00  0.00    +0.000 OA
ATOM     27  H   UNL     1      -1.079   8.198  23.953  0.00  0.00    +0.000 HD
ENDBRANCH  25  26
ENDBRANCH  23  25
ENDBRANCH  17  23
ENDBRANCH  15  17
ENDBRANCH   1  15
TORSDOF 9
ENDMDL
MODEL 6
REMARK VINA RESULT:      -6.7      3.124      4.291
REMARK  Name = 
REMARK  9 active torsions:
REMARK  status: ('A' for Active; 'I' for Inactive)
REMARK    1  A    between atoms: C_2  and  O_3
REMARK    2  A    between atoms: C_2  and  C_4
REMARK    3  A    between atoms: C_4  and  C_5
REMARK    4  A    between atoms: C_5  and  N_6
REMARK    5  A    between atoms: C_5  and  C_21
REMARK    6  A    between atoms: N_6  and  C_7
REMARK    7  A    between atoms: C_7  and  C_8
REMARK    8  A    between atoms: N_11  and  C_12
REMARK    9  A    between atoms: C_12  and  C_13
REMARK                            x       y       z     vdW  Elec       q    Type
REMARK                         _______ _______ _______ _____ _____    ______ ____
ROOT
ATOM      1  C   UNL     1       4.198   6.834  17.178  0.00  0.00    +0.000 C 
ENDROOT
BRANCH   1   2
ATOM      2  C   UNL     1       3.116   7.458  17.986  0.00  0.00    +0.000 A 
ATOM      3  C   UNL     1       2.706   7.176  19.309  0.00  0.00    +0.000 A 
ATOM      4  N   UNL     1       1.762   8.014  19.752  0.00  0.00    +0.000 NA
ATOM      5  N   UNL     1       1.581   8.866  18.720  0.00  0.00    +0.000 N 
ATOM      6  C   UNL     1       2.350   8.553  17.635  0.00  0.00    +0.000 A 
BRANCH   5   7
ATOM      7  C   UNL     1       0.595   9.939  18.811  0.00  0.00    +0.000 C 
BRANCH   7   8
ATOM      8  C   UNL     1       1.217  11.250  19.231  0.00  0.00    +0.000 A 
ATOM      9  C   UNL     1       2.032  11.939  18.313  0.00  0.00    +0.000 A 
ATOM     10  C   UNL     1       2.592  13.177  18.633  0.00  0.00    +0.000 A 
ATOM     11  C   UNL     1       2.337  13.758  19.872  0.00  0.00    +0.000 A 
ATOM     12  C   UNL     1       1.545  13.086  20.799  0.00  0.00    +0.000 A 
ATOM     13  C   UNL     1       0.997  11.836  20.489  0.00  0.00    +0.000 A 
ATOM     14 CL   UNL     1       0.078  11.053  21.724  0.00  0.00    +0.000 Cl
ENDBRANCH   7   8
ENDBRANCH   5   7
ENDBRANCH   1   2
BRANCH   1  15
ATOM     15  N   UNL     1       5.291   6.347  18.029  0.00  0.00    +0.000 NA
ATOM     16  H   UNL     1       4.913   6.197  18.967  0.00  0.00    +0.000 HD
BRANCH  15  17
ATOM     17  C   UNL     1       5.819   5.058  17.530  0.00  0.00    +0.000 C 
BRANCH  17  18
ATOM     18  C   UNL     1       4.909   3.951  18.048  0.00  0.00    +0.000 A 
ATOM     19  C   UNL     1       4.037   3.141  17.236  0.00  0.00    +0.000 A 
ATOM     20  C   UNL     1       3.214   2.328  17.982  0.00  0.00    +0.000 A 
ATOM     21  S   UNL     1       3.513   2.477  19.656  0.00  0.00    +0.000 S 
ATOM     22  C   UNL     1       4.730   3.651  19.387  0.00  0.00    +0.000 A 
ENDBRANCH  17  18
BRANCH  17  23
ATOM     23  C   UNL     1       7.263   4.800  17.988  0.00  0.00    +0.000 C 
BRANCH  23  25
ATOM     24  O   UNL     1       8.125   6.966  18.562  0.00  0.00    +0.000 OA
ATOM     25  C   UNL     1       7.726   5.876  18.936  0.00  0.00    +0.000 C 
BRANCH  25  26
ATOM     26  O   UNL     1       7.673   5.527  20.237  0.00  0.00    +0.000 OA
ATOM     27  H   UNL     1       6.787   5.249  20.543  0.00  0.00    +0.000 HD
ENDBRANCH  25  26
ENDBRANCH  23  25
ENDBRANCH  17  23
ENDBRANCH  15  17
ENDBRANCH   1  15
TORSDOF 9
ENDMDL
MODEL 7
REMARK VINA RESULT:      -6.7      2.251      3.071
REMARK  Name = 
REMARK  9 active torsions:
REMARK  status: ('A' for Active; 'I' for Inactive)
REMARK    1  A    between atoms: C_2  and  O_3
REMARK    2  A    between atoms: C_2  and  C_4
REMARK    3  A    between atoms: C_4  and  C_5
REMARK    4  A    between atoms: C_5  and  N_6
REMARK    5  A    between atoms: C_5  and  C_21
REMARK    6  A    between atoms: N_6  and  C_7
REMARK    7  A    between atoms: C_7  and  C_8
REMARK    8  A    between atoms: N_11  and  C_12
REMARK    9  A    between atoms: C_12  and  C_13
REMARK                            x       y       z     vdW  Elec       q    Type
REMARK                         _______ _______ _______ _____ _____    ______ ____
ROOT
ATOM      1  C   UNL     1       3.063   7.982  17.735  0.00  0.00    +0.000 C 
ENDROOT
BRANCH   1   2
ATOM      2  C   UNL     1       2.121   9.052  18.161  0.00  0.00    +0.000 A 
ATOM      3  C   UNL     1       2.232  10.455  18.021  0.00  0.00    +0.000 A 
ATOM      4  N   UNL     1       1.137  11.107  18.428  0.00  0.00    +0.000 NA
ATOM      5  N   UNL     1       0.297  10.119  18.804  0.00  0.00    +0.000 N 
ATOM      6  C   UNL     1       0.856   8.878  18.686  0.00  0.00    +0.000 A 
BRANCH   5   7
ATOM      7  C   UNL     1      -1.025  10.435  19.337  0.00  0.00    +0.000 C 
BRANCH   7   8
ATOM      8  C   UNL     1      -2.048  10.628  18.243  0.00  0.00    +0.000 A 
ATOM      9  C   UNL     1      -1.888   9.926  17.033  0.00  0.00    +0.000 A 
ATOM     10  C   UNL     1      -2.830  10.030  16.008  0.00  0.00    +0.000 A 
ATOM     11  C   UNL     1      -3.959  10.825  16.177  0.00  0.00    +0.000 A 
ATOM     12  C   UNL     1      -4.129  11.540  17.361  0.00  0.00    +0.000 A 
ATOM     13  C   UNL     1      -3.177  11.452  18.383  0.00  0.00    +0.000 A 
ATOM     14 CL   UNL     1      -3.444  12.420  19.789  0.00  0.00    +0.000 Cl
ENDBRANCH   7   8
ENDBRANCH   5   7
ENDBRANCH   1   2
BRANCH   1  15
ATOM     15  N   UNL     1       2.964   6.803  18.603  0.00  0.00    +0.000 NA
ATOM     16  H   UNL     1       2.068   6.850  19.093  0.00  0.00    +0.000 HD
BRANCH  15  17
ATOM     17  C   UNL     1       2.995   5.554  17.810  0.00  0.00    +0.000 C 
BRANCH  17  18
ATOM     18  C   UNL     1       2.264   4.480  18.606  0.00  0.00    +0.000 A 
ATOM     19  C   UNL     1       1.765   3.239  18.070  0.00  0.00    +0.000 A 
ATOM     20  C   UNL     1       1.010   2.530  18.976  0.00  0.00    +0.000 A 
ATOM     21  S   UNL     1       0.937   3.306  20.495  0.00  0.00    +0.000 S 
ATOM     22  C   UNL     1       1.898   4.608  19.934  0.00  0.00    +0.000 A 
ENDBRANCH  17  18
BRANCH  17  23
ATOM     23  C   UNL     1       4.428   5.090  17.503  0.00  0.00    +0.000 C 
BRANCH  23  25
ATOM     24  O   UNL     1       5.422   5.591  19.629  0.00  0.00    +0.000 OA
ATOM     25  C   UNL     1       5.169   4.762  18.771  0.00  0.00    +0.000 C 
BRANCH  25  26
ATOM     26  O   UNL     1       5.544   3.470  18.875  0.00  0.00    +0.000 OA
ATOM     27  H   UNL     1       4.839   2.872  19.193  0.00  0.00    +0.000 HD
ENDBRANCH  25  26
ENDBRANCH  23  25
ENDBRANCH  17  23
ENDBRANCH  15  17
ENDBRANCH   1  15
TORSDOF 9
ENDMDL
MODEL 8
REMARK VINA RESULT:      -6.7      1.104      1.554
REMARK  Name = 
REMARK  9 active torsions:
REMARK  status: ('A' for Active; 'I' for Inactive)
REMARK    1  A    between atoms: C_2  and  O_3
REMARK    2  A    between atoms: C_2  and  C_4
REMARK    3  A    between atoms: C_4  and  C_5
REMARK    4  A    between atoms: C_5  and  N_6
REMARK    5  A    between atoms: C_5  and  C_21
REMARK    6  A    between atoms: N_6  and  C_7
REMARK    7  A    between atoms: C_7  and  C_8
REMARK    8  A    between atoms: N_11  and  C_12
REMARK    9  A    between atoms: C_12  and  C_13
REMARK                            x       y       z     vdW  Elec       q    Type
REMARK                         _______ _______ _______ _____ _____    ______ ____
ROOT
ATOM      1  C   UNL     1       2.812   7.035  18.678  0.00  0.00    +0.000 C 
ENDROOT
BRANCH   1   2
ATOM      2  C   UNL     1       1.903   8.136  19.094  0.00  0.00    +0.000 A 
ATOM      3  C   UNL     1       1.344   8.409  20.364  0.00  0.00    +0.000 A 
ATOM      4  N   UNL     1       0.651   9.553  20.394  0.00  0.00    +0.000 NA
ATOM      5  N   UNL     1       0.789  10.043  19.143  0.00  0.00    +0.000 N 
ATOM      6  C   UNL     1       1.506   9.214  18.327  0.00  0.00    +0.000 A 
BRANCH   5   7
ATOM      7  C   UNL     1       0.147  11.299  18.766  0.00  0.00    +0.000 C 
BRANCH   7   8
ATOM      8  C   UNL     1      -1.300  11.103  18.378  0.00  0.00    +0.000 A 
ATOM      9  C   UNL     1      -1.620  10.115  17.427  0.00  0.00    +0.000 A 
ATOM     10  C   UNL     1      -2.945   9.860  17.069  0.00  0.00    +0.000 A 
ATOM     11  C   UNL     1      -3.978  10.577  17.665  0.00  0.00    +0.000 A 
ATOM     12  C   UNL     1      -3.682  11.569  18.597  0.00  0.00    +0.000 A 
ATOM     13  C   UNL     1      -2.354  11.839  18.945  0.00  0.00    +0.000 A 
ATOM     14 CL   UNL     1      -2.082  13.127  20.064  0.00  0.00    +0.000 Cl
ENDBRANCH   7   8
ENDBRANCH   5   7
ENDBRANCH   1   2
BRANCH   1  15
ATOM     15  N   UNL     1       3.065   6.102  19.782  0.00  0.00    +0.000 NA
ATOM     16  H   UNL     1       2.304   6.202  20.457  0.00  0.00    +0.000 HD
BRANCH  15  17
ATOM     17  C   UNL     1       3.078   4.701  19.303  0.00  0.00    +0.000 C 
BRANCH  17  18
ATOM     18  C   UNL     1       4.319   4.517  18.438  0.00  0.00    +0.000 A 
ATOM     19  C   UNL     1       5.672   4.780  18.855  0.00  0.00    +0.000 A 
ATOM     20  C   UNL     1       6.580   4.679  17.825  0.00  0.00    +0.000 A 
ATOM     21  S   UNL     1       5.836   4.212  16.362  0.00  0.00    +0.000 S 
ATOM     22  C   UNL     1       4.292   4.167  17.099  0.00  0.00    +0.000 A 
ENDBRANCH  17  18
BRANCH  17  23
ATOM     23  C   UNL     1       1.821   4.349  18.491  0.00  0.00    +0.000 C 
BRANCH  23  25
ATOM     24  O   UNL     1       0.721   2.222  18.653  0.00  0.00    +0.000 OA
ATOM     25  C   UNL     1       1.017   3.280  19.183  0.00  0.00    +0.000 C 
BRANCH  25  26
ATOM     26  O   UNL     1       0.640   3.596  20.438  0.00  0.00    +0.000 OA
ATOM     27  H   UNL     1       1.246   3.272  21.133  0.00  0.00    +0.000 HD
ENDBRANCH  25  26
ENDBRANCH  23  25
ENDBRANCH  17  23
ENDBRANCH  15  17
ENDBRANCH   1  15
TORSDOF 9
ENDMDL
MODEL 9
REMARK VINA RESULT:      -6.7      1.220      1.482
REMARK  Name = 
REMARK  9 active torsions:
REMARK  status: ('A' for Active; 'I' for Inactive)
REMARK    1  A    between atoms: C_2  and  O_3
REMARK    2  A    between atoms: C_2  and  C_4
REMARK    3  A    between atoms: C_4  and  C_5
REMARK    4  A    between atoms: C_5  and  N_6
REMARK    5  A    between atoms: C_5  and  C_21
REMARK    6  A    between atoms: N_6  and  C_7
REMARK    7  A    between atoms: C_7  and  C_8
REMARK    8  A    between atoms: N_11  and  C_12
REMARK    9  A    between atoms: C_12  and  C_13
REMARK                            x       y       z     vdW  Elec       q    Type
REMARK                         _______ _______ _______ _____ _____    ______ ____
ROOT
ATOM      1  C   UNL     1       2.623   6.337  19.098  0.00  0.00    +0.000 C 
ENDROOT
BRANCH   1   2
ATOM      2  C   UNL     1       2.272   7.746  18.777  0.00  0.00    +0.000 A 
ATOM      3  C   UNL     1       2.572   8.506  17.623  0.00  0.00    +0.000 A 
ATOM      4  N   UNL     1       2.001   9.716  17.632  0.00  0.00    +0.000 NA
ATOM      5  N   UNL     1       1.298   9.729  18.785  0.00  0.00    +0.000 N 
ATOM      6  C   UNL     1       1.455   8.583  19.512  0.00  0.00    +0.000 A 
BRANCH   5   7
ATOM      7  C   UNL     1       0.536  10.912  19.174  0.00  0.00    +0.000 C 
BRANCH   7   8
ATOM      8  C   UNL     1      -0.870  10.889  18.621  0.00  0.00    +0.000 A 
ATOM      9  C   UNL     1      -1.187   9.959  17.613  0.00  0.00    +0.000 A 
ATOM     10  C   UNL     1      -2.483   9.862  17.102  0.00  0.00    +0.000 A 
ATOM     11  C   UNL     1      -3.491  10.682  17.599  0.00  0.00    +0.000 A 
ATOM     12  C   UNL     1      -3.194  11.619  18.587  0.00  0.00    +0.000 A 
ATOM     13  C   UNL     1      -1.893  11.731  19.088  0.00  0.00    +0.000 A 
ATOM     14 CL   UNL     1      -1.609  12.962  20.267  0.00  0.00    +0.000 Cl
ENDBRANCH   7   8
ENDBRANCH   5   7
ENDBRANCH   1   2
BRANCH   1  15
ATOM     15  N   UNL     1       3.148   5.633  17.922  0.00  0.00    +0.000 NA
ATOM     16  H   UNL     1       3.528   6.333  17.282  0.00  0.00    +0.000 HD
BRANCH  15  17
ATOM     17  C   UNL     1       4.241   4.708  18.300  0.00  0.00    +0.000 C 
BRANCH  17  18
ATOM     18  C   UNL     1       5.557   5.463  18.159  0.00  0.00    +0.000 A 
ATOM     19  C   UNL     1       6.699   5.317  19.024  0.00  0.00    +0.000 A 
ATOM     20  C   UNL     1       7.691   6.233  18.761  0.00  0.00    +0.000 A 
ATOM     21  S   UNL     1       7.298   7.239  17.439  0.00  0.00    +0.000 S 
ATOM     22  C   UNL     1       5.785   6.465  17.232  0.00  0.00    +0.000 A 
ENDBRANCH  17  18
BRANCH  17  23
ATOM     23  C   UNL     1       4.268   3.446  17.424  0.00  0.00    +0.000 C 
BRANCH  23  25
ATOM     24  O   UNL     1       2.141   2.580  18.121  0.00  0.00    +0.000 OA
ATOM     25  C   UNL     1       3.337   2.395  17.968  0.00  0.00    +0.000 C 
BRANCH  25  26
ATOM     26  O   UNL     1       3.939   1.230  18.284  0.00  0.00    +0.000 OA
ATOM     27  H   UNL     1       3.613   0.821  19.110  0.00  0.00    +0.000 HD
ENDBRANCH  25  26
ENDBRANCH  23  25
ENDBRANCH  17  23
ENDBRANCH  15  17
ENDBRANCH   1  15
TORSDOF 9
ENDMDL
