MODEL 1
REMARK VINA RESULT:      -8.0      0.000      0.000
REMARK  Name = 
REMARK  5 active torsions:
REMARK  status: ('A' for Active; 'I' for Inactive)
REMARK    1  A    between atoms: C_2  and  C_23
REMARK    2  A    between atoms: N_3  and  C_4
REMARK    3  A    between atoms: C_9  and  C_10
REMARK    4  A    between atoms: C_16  and  C_17
REMARK    5  A    between atoms: C_17  and  O_18
REMARK                            x       y       z     vdW  Elec       q    Type
REMARK                         _______ _______ _______ _____ _____    ______ ____
ROOT
ATOM      1  C   UNL     1       1.616   8.245  20.411  0.00  0.00    +0.000 A 
ATOM      2  C   UNL     1       1.752   8.313  21.800  0.00  0.00    +0.000 A 
ATOM      3  C   UNL     1       1.072   9.285  22.540  0.00  0.00    +0.000 A 
ATOM      4  C   UNL     1       0.248  10.196  21.891  0.00  0.00    +0.000 A 
ATOM      5  O   UNL     1      -0.427  11.093  22.670  0.00  0.00    +0.000 OA
ATOM      6  C   UNL     1      -1.306  11.967  22.060  0.00  0.00    +0.000 A 
ATOM      7  C   UNL     1      -1.529  12.062  20.732  0.00  0.00    +0.000 A 
ATOM      8  C   UNL     1      -0.761  11.136  19.860  0.00  0.00    +0.000 A 
ATOM      9  O   UNL     1      -0.858  11.166  18.638  0.00  0.00    +0.000 OA
ATOM     10  C   UNL     1       0.131  10.163  20.510  0.00  0.00    +0.000 A 
ATOM     11  C   UNL     1       0.828   9.204  19.761  0.00  0.00    +0.000 A 
ENDROOT
BRANCH   6  12
ATOM     12  C   UNL     1      -1.985  12.822  23.044  0.00  0.00    +0.000 A 
ATOM     13  C   UNL     1      -3.247  12.470  23.538  0.00  0.00    +0.000 A 
ATOM     14  C   UNL     1      -3.869  13.265  24.502  0.00  0.00    +0.000 A 
ATOM     15  C   UNL     1      -3.233  14.411  24.979  0.00  0.00    +0.000 A 
ATOM     16  C   UNL     1      -1.976  14.767  24.490  0.00  0.00    +0.000 A 
ATOM     17  C   UNL     1      -1.352  13.974  23.525  0.00  0.00    +0.000 A 
ENDBRANCH   6  12
BRANCH   1  20
ATOM     18  O   UNL     1       1.477   5.333  20.730  0.00  0.00    +0.000 OA
ATOM     19  C   UNL     1       2.103   5.870  19.820  0.00  0.00    +0.000 C 
ATOM     20  N   UNL     1       2.221   7.241  19.623  0.00  0.00    +0.000 N 
ATOM     21  H   UNL     1       2.630   7.542  18.746  0.00  0.00    +0.000 HD
BRANCH  19  22
ATOM     22  C   UNL     1       2.813   5.048  18.735  0.00  0.00    +0.000 C 
ATOM     23  C   UNL     1       3.842   4.087  19.340  0.00  0.00    +0.000 C 
ATOM     24  C   UNL     1       3.182   2.891  20.024  0.00  0.00    +0.000 C 
ATOM     25  C   UNL     1       2.275   2.133  19.063  0.00  0.00    +0.000 C 
ATOM     26  C   UNL     1       1.223   3.041  18.437  0.00  0.00    +0.000 C 
ATOM     27  C   UNL     1       1.822   4.306  17.821  0.00  0.00    +0.000 C 
ENDBRANCH  19  22
ENDBRANCH   1  20
BRANCH   7  28
ATOM     28  C   UNL     1      -2.497  13.052  20.128  0.00  0.00    +0.000 C 
BRANCH  28  29
ATOM     29  O   UNL     1      -3.371  12.555  19.122  0.00  0.00    +0.000 OA
ATOM     30  H   UNL     1      -4.235  12.334  19.529  0.00  0.00    +0.000 HD
ENDBRANCH  28  29
ENDBRANCH   7  28
TORSDOF 5
ENDMDL
MODEL 2
REMARK VINA RESULT:      -8.0      2.550      9.881
REMARK  Name = 
REMARK  5 active torsions:
REMARK  status: ('A' for Active; 'I' for Inactive)
REMARK    1  A    between atoms: C_2  and  C_23
REMARK    2  A    between atoms: N_3  and  C_4
REMARK    3  A    between atoms: C_9  and  C_10
REMARK    4  A    between atoms: C_16  and  C_17
REMARK    5  A    between atoms: C_17  and  O_18
REMARK                            x       y       z     vdW  Elec       q    Type
REMARK                         _______ _______ _______ _____ _____    ______ ____
ROOT
ATOM      1  C   UNL     1       0.779   9.473  19.655  0.00  0.00    +0.000 A 
ATOM      2  C   UNL     1       1.364  10.002  18.501  0.00  0.00    +0.000 A 
ATOM      3  C   UNL     1       2.342   9.288  17.803  0.00  0.00    +0.000 A 
ATOM      4  C   UNL     1       2.739   8.035  18.254  0.00  0.00    +0.000 A 
ATOM      5  O   UNL     1       3.664   7.365  17.506  0.00  0.00    +0.000 OA
ATOM      6  C   UNL     1       4.027   6.089  17.892  0.00  0.00    +0.000 A 
ATOM      7  C   UNL     1       3.589   5.444  18.994  0.00  0.00    +0.000 A 
ATOM      8  C   UNL     1       2.629   6.179  19.857  0.00  0.00    +0.000 A 
ATOM      9  O   UNL     1       2.199   5.702  20.901  0.00  0.00    +0.000 OA
ATOM     10  C   UNL     1       2.192   7.513  19.416  0.00  0.00    +0.000 A 
ATOM     11  C   UNL     1       1.227   8.235  20.133  0.00  0.00    +0.000 A 
ENDROOT
BRANCH   6  12
ATOM     12  C   UNL     1       4.987   5.494  16.950  0.00  0.00    +0.000 A 
ATOM     13  C   UNL     1       4.551   4.599  15.965  0.00  0.00    +0.000 A 
ATOM     14  C   UNL     1       5.460   4.068  15.049  0.00  0.00    +0.000 A 
ATOM     15  C   UNL     1       6.806   4.430  15.109  0.00  0.00    +0.000 A 
ATOM     16  C   UNL     1       7.246   5.321  16.089  0.00  0.00    +0.000 A 
ATOM     17  C   UNL     1       6.339   5.853  17.007  0.00  0.00    +0.000 A 
ENDBRANCH   6  12
BRANCH   1  20
ATOM     18  O   UNL     1       0.956  11.690  21.567  0.00  0.00    +0.000 OA
ATOM     19  C   UNL     1      -0.113  11.177  21.244  0.00  0.00    +0.000 C 
ATOM     20  N   UNL     1      -0.263  10.117  20.358  0.00  0.00    +0.000 N 
ATOM     21  H   UNL     1      -1.208   9.900  20.062  0.00  0.00    +0.000 HD
BRANCH  19  22
ATOM     22  C   UNL     1      -1.453  11.705  21.774  0.00  0.00    +0.000 C 
ATOM     23  C   UNL     1      -1.262  12.573  23.023  0.00  0.00    +0.000 C 
ATOM     24  C   UNL     1      -0.683  13.947  22.689  0.00  0.00    +0.000 C 
ATOM     25  C   UNL     1      -1.554  14.685  21.679  0.00  0.00    +0.000 C 
ATOM     26  C   UNL     1      -1.771  13.869  20.410  0.00  0.00    +0.000 C 
ATOM     27  C   UNL     1      -2.258  12.448  20.693  0.00  0.00    +0.000 C 
ENDBRANCH  19  22
ENDBRANCH   1  20
BRANCH   7  28
ATOM     28  C   UNL     1       4.039   4.051  19.367  0.00  0.00    +0.000 C 
BRANCH  28  29
ATOM     29  O   UNL     1       3.045   3.181  19.893  0.00  0.00    +0.000 OA
ATOM     30  H   UNL     1       2.616   3.612  20.661  0.00  0.00    +0.000 HD
ENDBRANCH  28  29
ENDBRANCH   7  28
TORSDOF 5
ENDMDL
MODEL 3
REMARK VINA RESULT:      -7.8      2.212      3.397
REMARK  Name = 
REMARK  5 active torsions:
REMARK  status: ('A' for Active; 'I' for Inactive)
REMARK    1  A    between atoms: C_2  and  C_23
REMARK    2  A    between atoms: N_3  and  C_4
REMARK    3  A    between atoms: C_9  and  C_10
REMARK    4  A    between atoms: C_16  and  C_17
REMARK    5  A    between atoms: C_17  and  O_18
REMARK                            x       y       z     vdW  Elec       q    Type
REMARK                         _______ _______ _______ _____ _____    ______ ____
ROOT
ATOM      1  C   UNL     1       2.568   7.397  18.372  0.00  0.00    +0.000 A 
ATOM      2  C   UNL     1       2.549   8.497  17.510  0.00  0.00    +0.000 A 
ATOM      3  C   UNL     1       1.910   9.684  17.879  0.00  0.00    +0.000 A 
ATOM      4  C   UNL     1       1.286   9.779  19.118  0.00  0.00    +0.000 A 
ATOM      5  O   UNL     1       0.719  10.978  19.442  0.00  0.00    +0.000 OA
ATOM      6  C   UNL     1       0.152  11.123  20.694  0.00  0.00    +0.000 A 
ATOM      7  C   UNL     1       0.051  10.156  21.631  0.00  0.00    +0.000 A 
ATOM      8  C   UNL     1       0.608   8.825  21.275  0.00  0.00    +0.000 A 
ATOM      9  O   UNL     1       0.534   7.867  22.037  0.00  0.00    +0.000 OA
ATOM     10  C   UNL     1       1.267   8.684  19.967  0.00  0.00    +0.000 A 
ATOM     11  C   UNL     1       1.888   7.483  19.594  0.00  0.00    +0.000 A 
ENDROOT
BRANCH   6  12
ATOM     12  C   UNL     1      -0.363  12.485  20.897  0.00  0.00    +0.000 A 
ATOM     13  C   UNL     1       0.464  13.482  21.429  0.00  0.00    +0.000 A 
ATOM     14  C   UNL     1      -0.017  14.783  21.583  0.00  0.00    +0.000 A 
ATOM     15  C   UNL     1      -1.322  15.095  21.204  0.00  0.00    +0.000 A 
ATOM     16  C   UNL     1      -2.151  14.106  20.674  0.00  0.00    +0.000 A 
ATOM     17  C   UNL     1      -1.672  12.803  20.520  0.00  0.00    +0.000 A 
ENDBRANCH   6  12
BRANCH   1  20
ATOM     18  O   UNL     1       1.469   4.776  17.649  0.00  0.00    +0.000 OA
ATOM     19  C   UNL     1       2.676   4.988  17.731  0.00  0.00    +0.000 C 
ATOM     20  N   UNL     1       3.259   6.200  18.082  0.00  0.00    +0.000 N 
ATOM     21  H   UNL     1       4.261   6.277  17.954  0.00  0.00    +0.000 HD
BRANCH  19  22
ATOM     22  C   UNL     1       3.709   3.904  17.394  0.00  0.00    +0.000 C 
ATOM     23  C   UNL     1       4.965   4.034  18.263  0.00  0.00    +0.000 C 
ATOM     24  C   UNL     1       4.725   3.569  19.698  0.00  0.00    +0.000 C 
ATOM     25  C   UNL     1       4.220   2.132  19.739  0.00  0.00    +0.000 C 
ATOM     26  C   UNL     1       2.964   1.947  18.896  0.00  0.00    +0.000 C 
ATOM     27  C   UNL     1       3.117   2.486  17.474  0.00  0.00    +0.000 C 
ENDBRANCH  19  22
ENDBRANCH   1  20
BRANCH   7  28
ATOM     28  C   UNL     1      -0.596  10.378  22.977  0.00  0.00    +0.000 C 
BRANCH  28  29
ATOM     29  O   UNL     1      -0.083   9.616  24.063  0.00  0.00    +0.000 OA
ATOM     30  H   UNL     1      -0.675   8.852  24.225  0.00  0.00    +0.000 HD
ENDBRANCH  28  29
ENDBRANCH   7  28
TORSDOF 5
ENDMDL
MODEL 4
REMARK VINA RESULT:      -7.8      2.377      3.891
REMARK  Name = 
REMARK  5 active torsions:
REMARK  status: ('A' for Active; 'I' for Inactive)
REMARK    1  A    between atoms: C_2  and  C_23
REMARK    2  A    between atoms: N_3  and  C_4
REMARK    3  A    between atoms: C_9  and  C_10
REMARK    4  A    between atoms: C_16  and  C_17
REMARK    5  A    between atoms: C_17  and  O_18
REMARK                            x       y       z     vdW  Elec       q    Type
REMARK                         _______ _______ _______ _____ _____    ______ ____
ROOT
ATOM      1  C   UNL     1       2.820   7.408  18.499  0.00  0.00    +0.000 A 
ATOM      2  C   UNL     1       2.580   8.384  17.528  0.00  0.00    +0.000 A 
ATOM      3  C   UNL     1       1.747   9.474  17.799  0.00  0.00    +0.000 A 
ATOM      4  C   UNL     1       1.150   9.595  19.048  0.00  0.00    +0.000 A 
ATOM      5  O   UNL     1       0.384  10.704  19.269  0.00  0.00    +0.000 OA
ATOM      6  C   UNL     1      -0.166  10.886  20.524  0.00  0.00    +0.000 A 
ATOM      7  C   UNL     1      -0.066  10.028  21.561  0.00  0.00    +0.000 A 
ATOM      8  C   UNL     1       0.712   8.785  21.323  0.00  0.00    +0.000 A 
ATOM      9  O   UNL     1       0.833   7.921  22.185  0.00  0.00    +0.000 OA
ATOM     10  C   UNL     1       1.352   8.616  20.008  0.00  0.00    +0.000 A 
ATOM     11  C   UNL     1       2.169   7.510  19.735  0.00  0.00    +0.000 A 
ENDROOT
BRANCH   6  12
ATOM     12  C   UNL     1      -0.912  12.150  20.605  0.00  0.00    +0.000 A 
ATOM     13  C   UNL     1      -2.286  12.180  20.335  0.00  0.00    +0.000 A 
ATOM     14  C   UNL     1      -2.997  13.376  20.452  0.00  0.00    +0.000 A 
ATOM     15  C   UNL     1      -2.342  14.544  20.842  0.00  0.00    +0.000 A 
ATOM     16  C   UNL     1      -0.974  14.520  21.110  0.00  0.00    +0.000 A 
ATOM     17  C   UNL     1      -0.260  13.326  20.993  0.00  0.00    +0.000 A 
ENDBRANCH   6  12
BRANCH   1  20
ATOM     18  O   UNL     1       2.226   4.696  17.557  0.00  0.00    +0.000 OA
ATOM     19  C   UNL     1       3.363   5.064  17.841  0.00  0.00    +0.000 C 
ATOM     20  N   UNL     1       3.708   6.327  18.306  0.00  0.00    +0.000 N 
ATOM     21  H   UNL     1       4.697   6.543  18.347  0.00  0.00    +0.000 HD
BRANCH  19  22
ATOM     22  C   UNL     1       4.577   4.142  17.660  0.00  0.00    +0.000 C 
ATOM     23  C   UNL     1       4.891   3.907  16.179  0.00  0.00    +0.000 C 
ATOM     24  C   UNL     1       5.534   5.128  15.524  0.00  0.00    +0.000 C 
ATOM     25  C   UNL     1       6.802   5.547  16.257  0.00  0.00    +0.000 C 
ATOM     26  C   UNL     1       6.546   5.803  17.737  0.00  0.00    +0.000 C 
ATOM     27  C   UNL     1       5.815   4.648  18.422  0.00  0.00    +0.000 C 
ENDBRANCH  19  22
ENDBRANCH   1  20
BRANCH   7  28
ATOM     28  C   UNL     1      -0.706  10.282  22.905  0.00  0.00    +0.000 C 
BRANCH  28  29
ATOM     29  O   UNL     1      -0.095   9.660  24.029  0.00  0.00    +0.000 OA
ATOM     30  H   UNL     1       0.306  10.350  24.597  0.00  0.00    +0.000 HD
ENDBRANCH  28  29
ENDBRANCH   7  28
TORSDOF 5
ENDMDL
MODEL 5
REMARK VINA RESULT:      -7.8      2.698      4.285
REMARK  Name = 
REMARK  5 active torsions:
REMARK  status: ('A' for Active; 'I' for Inactive)
REMARK    1  A    between atoms: C_2  and  C_23
REMARK    2  A    between atoms: N_3  and  C_4
REMARK    3  A    between atoms: C_9  and  C_10
REMARK    4  A    between atoms: C_16  and  C_17
REMARK    5  A    between atoms: C_17  and  O_18
REMARK                            x       y       z     vdW  Elec       q    Type
REMARK                         _______ _______ _______ _____ _____    ______ ____
ROOT
ATOM      1  C   UNL     1       2.802   7.265  18.325  0.00  0.00    +0.000 A 
ATOM      2  C   UNL     1       2.634   8.308  17.409  0.00  0.00    +0.000 A 
ATOM      3  C   UNL     1       1.894   9.445  17.747  0.00  0.00    +0.000 A 
ATOM      4  C   UNL     1       1.318   9.547  19.008  0.00  0.00    +0.000 A 
ATOM      5  O   UNL     1       0.647  10.700  19.297  0.00  0.00    +0.000 OA
ATOM      6  C   UNL     1       0.123  10.859  20.566  0.00  0.00    +0.000 A 
ATOM      7  C   UNL     1       0.162   9.941  21.555  0.00  0.00    +0.000 A 
ATOM      8  C   UNL     1       0.835   8.654  21.242  0.00  0.00    +0.000 A 
ATOM      9  O   UNL     1       0.892   7.738  22.056  0.00  0.00    +0.000 OA
ATOM     10  C   UNL     1       1.448   8.505  19.913  0.00  0.00    +0.000 A 
ATOM     11  C   UNL     1       2.170   7.353  19.572  0.00  0.00    +0.000 A 
ENDROOT
BRANCH   6  12
ATOM     12  C   UNL     1      -0.518  12.173  20.723  0.00  0.00    +0.000 A 
ATOM     13  C   UNL     1       0.218  13.267  21.193  0.00  0.00    +0.000 A 
ATOM     14  C   UNL     1      -0.385  14.522  21.303  0.00  0.00    +0.000 A 
ATOM     15  C   UNL     1      -1.722  14.689  20.941  0.00  0.00    +0.000 A 
ATOM     16  C   UNL     1      -2.460  13.602  20.473  0.00  0.00    +0.000 A 
ATOM     17  C   UNL     1      -1.859  12.346  20.363  0.00  0.00    +0.000 A 
ENDBRANCH   6  12
BRANCH   1  20
ATOM     18  O   UNL     1       5.606   7.148  17.474  0.00  0.00    +0.000 OA
ATOM     19  C   UNL     1       4.932   6.140  17.676  0.00  0.00    +0.000 C 
ATOM     20  N   UNL     1       3.598   6.128  18.064  0.00  0.00    +0.000 N 
ATOM     21  H   UNL     1       3.214   5.235  18.349  0.00  0.00    +0.000 HD
BRANCH  19  22
ATOM     22  C   UNL     1       5.532   4.733  17.558  0.00  0.00    +0.000 C 
ATOM     23  C   UNL     1       4.780   3.884  16.527  0.00  0.00    +0.000 C 
ATOM     24  C   UNL     1       5.099   4.301  15.093  0.00  0.00    +0.000 C 
ATOM     25  C   UNL     1       6.596   4.236  14.816  0.00  0.00    +0.000 C 
ATOM     26  C   UNL     1       7.395   5.071  15.809  0.00  0.00    +0.000 C 
ATOM     27  C   UNL     1       7.043   4.762  17.264  0.00  0.00    +0.000 C 
ENDBRANCH  19  22
ENDBRANCH   1  20
BRANCH   7  28
ATOM     28  C   UNL     1      -0.445  10.174  22.919  0.00  0.00    +0.000 C 
BRANCH  28  29
ATOM     29  O   UNL     1       0.288   9.683  24.033  0.00  0.00    +0.000 OA
ATOM     30  H   UNL     1       0.114  10.256  24.809  0.00  0.00    +0.000 HD
ENDBRANCH  28  29
ENDBRANCH   7  28
TORSDOF 5
ENDMDL
MODEL 6
REMARK VINA RESULT:      -7.8      1.117      1.877
REMARK  Name = 
REMARK  5 active torsions:
REMARK  status: ('A' for Active; 'I' for Inactive)
REMARK    1  A    between atoms: C_2  and  C_23
REMARK    2  A    between atoms: N_3  and  C_4
REMARK    3  A    between atoms: C_9  and  C_10
REMARK    4  A    between atoms: C_16  and  C_17
REMARK    5  A    between atoms: C_17  and  O_18
REMARK                            x       y       z     vdW  Elec       q    Type
REMARK                         _______ _______ _______ _____ _____    ______ ____
ROOT
ATOM      1  C   UNL     1       1.703   8.242  19.847  0.00  0.00    +0.000 A 
ATOM      2  C   UNL     1       1.646   8.034  21.228  0.00  0.00    +0.000 A 
ATOM      3  C   UNL     1       0.964   8.928  22.059  0.00  0.00    +0.000 A 
ATOM      4  C   UNL     1       0.332  10.038  21.511  0.00  0.00    +0.000 A 
ATOM      5  O   UNL     1      -0.357  10.851  22.365  0.00  0.00    +0.000 OA
ATOM      6  C   UNL     1      -1.052  11.923  21.840  0.00  0.00    +0.000 A 
ATOM      7  C   UNL     1      -1.073  12.289  20.541  0.00  0.00    +0.000 A 
ATOM      8  C   UNL     1      -0.281  11.454  19.602  0.00  0.00    +0.000 A 
ATOM      9  O   UNL     1      -0.200  11.720  18.408  0.00  0.00    +0.000 OA
ATOM     10  C   UNL     1       0.411  10.275  20.148  0.00  0.00    +0.000 A 
ATOM     11  C   UNL     1       1.112   9.393  19.312  0.00  0.00    +0.000 A 
ENDROOT
BRANCH   6  12
ATOM     12  C   UNL     1      -1.778  12.658  22.887  0.00  0.00    +0.000 A 
ATOM     13  C   UNL     1      -1.229  13.817  23.448  0.00  0.00    +0.000 A 
ATOM     14  C   UNL     1      -1.940  14.533  24.413  0.00  0.00    +0.000 A 
ATOM     15  C   UNL     1      -3.201  14.097  24.819  0.00  0.00    +0.000 A 
ATOM     16  C   UNL     1      -3.752  12.942  24.263  0.00  0.00    +0.000 A 
ATOM     17  C   UNL     1      -3.043  12.224  23.298  0.00  0.00    +0.000 A 
ENDBRANCH   6  12
BRANCH   1  20
ATOM     18  O   UNL     1       1.863   5.320  20.027  0.00  0.00    +0.000 OA
ATOM     19  C   UNL     1       2.343   5.953  19.090  0.00  0.00    +0.000 C 
ATOM     20  N   UNL     1       2.315   7.335  18.953  0.00  0.00    +0.000 N 
ATOM     21  H   UNL     1       2.604   7.711  18.058  0.00  0.00    +0.000 HD
BRANCH  19  22
ATOM     22  C   UNL     1       3.011   5.249  17.901  0.00  0.00    +0.000 C 
ATOM     23  C   UNL     1       4.205   6.052  17.370  0.00  0.00    +0.000 C 
ATOM     24  C   UNL     1       5.417   5.963  18.294  0.00  0.00    +0.000 C 
ATOM     25  C   UNL     1       5.834   4.516  18.526  0.00  0.00    +0.000 C 
ATOM     26  C   UNL     1       4.685   3.671  19.063  0.00  0.00    +0.000 C 
ATOM     27  C   UNL     1       3.412   3.800  18.227  0.00  0.00    +0.000 C 
ENDBRANCH  19  22
ENDBRANCH   1  20
BRANCH   7  28
ATOM     28  C   UNL     1      -1.845  13.484  20.034  0.00  0.00    +0.000 C 
BRANCH  28  29
ATOM     29  O   UNL     1      -1.137  14.391  19.199  0.00  0.00    +0.000 OA
ATOM     30  H   UNL     1      -0.295  14.637  19.635  0.00  0.00    +0.000 HD
ENDBRANCH  28  29
ENDBRANCH   7  28
TORSDOF 5
ENDMDL
MODEL 7
REMARK VINA RESULT:      -7.7      2.506      3.905
REMARK  Name = 
REMARK  5 active torsions:
REMARK  status: ('A' for Active; 'I' for Inactive)
REMARK    1  A    between atoms: C_2  and  C_23
REMARK    2  A    between atoms: N_3  and  C_4
REMARK    3  A    between atoms: C_9  and  C_10
REMARK    4  A    between atoms: C_16  and  C_17
REMARK    5  A    between atoms: C_17  and  O_18
REMARK                            x       y       z     vdW  Elec       q    Type
REMARK                         _______ _______ _______ _____ _____    ______ ____
ROOT
ATOM      1  C   UNL     1       2.274   6.699  19.102  0.00  0.00    +0.000 A 
ATOM      2  C   UNL     1       2.698   7.415  17.978  0.00  0.00    +0.000 A 
ATOM      3  C   UNL     1       2.441   8.784  17.863  0.00  0.00    +0.000 A 
ATOM      4  C   UNL     1       1.758   9.448  18.875  0.00  0.00    +0.000 A 
ATOM      5  O   UNL     1       1.577  10.793  18.729  0.00  0.00    +0.000 OA
ATOM      6  C   UNL     1       0.962  11.492  19.750  0.00  0.00    +0.000 A 
ATOM      7  C   UNL     1       0.461  10.955  20.882  0.00  0.00    +0.000 A 
ATOM      8  C   UNL     1       0.593   9.483  21.035  0.00  0.00    +0.000 A 
ATOM      9  O   UNL     1       0.137   8.888  22.006  0.00  0.00    +0.000 OA
ATOM     10  C   UNL     1       1.301   8.744  19.978  0.00  0.00    +0.000 A 
ATOM     11  C   UNL     1       1.537   7.366  20.089  0.00  0.00    +0.000 A 
ENDROOT
BRANCH   6  12
ATOM     12  C   UNL     1       0.896  12.931  19.454  0.00  0.00    +0.000 A 
ATOM     13  C   UNL     1      -0.264  13.487  18.900  0.00  0.00    +0.000 A 
ATOM     14  C   UNL     1      -0.336  14.860  18.657  0.00  0.00    +0.000 A 
ATOM     15  C   UNL     1       0.747  15.682  18.969  0.00  0.00    +0.000 A 
ATOM     16  C   UNL     1       1.905  15.133  19.520  0.00  0.00    +0.000 A 
ATOM     17  C   UNL     1       1.979  13.761  19.763  0.00  0.00    +0.000 A 
ENDBRANCH   6  12
BRANCH   1  20
ATOM     18  O   UNL     1       4.887   5.426  19.486  0.00  0.00    +0.000 OA
ATOM     19  C   UNL     1       3.835   4.793  19.496  0.00  0.00    +0.000 C 
ATOM     20  N   UNL     1       2.568   5.333  19.305  0.00  0.00    +0.000 N 
ATOM     21  H   UNL     1       1.780   4.726  19.497  0.00  0.00    +0.000 HD
BRANCH  19  22
ATOM     22  C   UNL     1       3.804   3.284  19.776  0.00  0.00    +0.000 C 
ATOM     23  C   UNL     1       2.686   2.917  20.758  0.00  0.00    +0.000 C 
ATOM     24  C   UNL     1       1.305   2.974  20.108  0.00  0.00    +0.000 C 
ATOM     25  C   UNL     1       1.230   2.070  18.883  0.00  0.00    +0.000 C 
ATOM     26  C   UNL     1       2.316   2.399  17.867  0.00  0.00    +0.000 C 
ATOM     27  C   UNL     1       3.713   2.451  18.486  0.00  0.00    +0.000 C 
ENDBRANCH  19  22
ENDBRANCH   1  20
BRANCH   7  28
ATOM     28  C   UNL     1      -0.214  11.776  21.956  0.00  0.00    +0.000 C 
BRANCH  28  29
ATOM     29  O   UNL     1      -0.427  11.136  23.207  0.00  0.00    +0.000 OA
ATOM     30  H   UNL     1       0.343  10.564  23.410  0.00  0.00    +0.000 HD
ENDBRANCH  28  29
ENDBRANCH   7  28
TORSDOF 5
ENDMDL
MODEL 8
REMARK VINA RESULT:      -7.7      2.608      4.026
REMARK  Name = 
REMARK  5 active torsions:
REMARK  status: ('A' for Active; 'I' for Inactive)
REMARK    1  A    between atoms: C_2  and  C_23
REMARK    2  A    between atoms: N_3  and  C_4
REMARK    3  A    between atoms: C_9  and  C_10
REMARK    4  A    between atoms: C_16  and  C_17
REMARK    5  A    between atoms: C_17  and  O_18
REMARK                            x       y       z     vdW  Elec       q    Type
REMARK                         _______ _______ _______ _____ _____    ______ ____
ROOT
ATOM      1  C   UNL     1       1.839   7.862  19.342  0.00  0.00    +0.000 A 
ATOM      2  C   UNL     1       2.084   8.406  18.078  0.00  0.00    +0.000 A 
ATOM      3  C   UNL     1       1.889   9.769  17.836  0.00  0.00    +0.000 A 
ATOM      4  C   UNL     1       1.449  10.598  18.861  0.00  0.00    +0.000 A 
ATOM      5  O   UNL     1       1.321  11.928  18.578  0.00  0.00    +0.000 OA
ATOM      6  C   UNL     1       0.952  12.787  19.595  0.00  0.00    +0.000 A 
ATOM      7  C   UNL     1       0.643  12.426  20.859  0.00  0.00    +0.000 A 
ATOM      8  C   UNL     1       0.717  10.977  21.173  0.00  0.00    +0.000 A 
ATOM      9  O   UNL     1       0.419  10.537  22.278  0.00  0.00    +0.000 OA
ATOM     10  C   UNL     1       1.169  10.065  20.109  0.00  0.00    +0.000 A 
ATOM     11  C   UNL     1       1.342   8.695  20.352  0.00  0.00    +0.000 A 
ENDROOT
BRANCH   6  12
ATOM     12  C   UNL     1       0.914  14.183  19.133  0.00  0.00    +0.000 A 
ATOM     13  C   UNL     1      -0.312  14.818  18.900  0.00  0.00    +0.000 A 
ATOM     14  C   UNL     1      -0.343  16.155  18.499  0.00  0.00    +0.000 A 
ATOM     15  C   UNL     1       0.847  16.863  18.334  0.00  0.00    +0.000 A 
ATOM     16  C   UNL     1       2.071  16.235  18.564  0.00  0.00    +0.000 A 
ATOM     17  C   UNL     1       2.105  14.898  18.964  0.00  0.00    +0.000 A 
ENDBRANCH   6  12
BRANCH   1  20
ATOM     18  O   UNL     1       4.153   6.206  18.632  0.00  0.00    +0.000 OA
ATOM     19  C   UNL     1       3.217   5.782  19.306  0.00  0.00    +0.000 C 
ATOM     20  N   UNL     1       2.088   6.509  19.663  0.00  0.00    +0.000 N 
ATOM     21  H   UNL     1       1.474   6.089  20.351  0.00  0.00    +0.000 HD
BRANCH  19  22
ATOM     22  C   UNL     1       3.220   4.361  19.885  0.00  0.00    +0.000 C 
ATOM     23  C   UNL     1       1.823   3.732  19.840  0.00  0.00    +0.000 C 
ATOM     24  C   UNL     1       1.423   3.314  18.427  0.00  0.00    +0.000 C 
ATOM     25  C   UNL     1       2.438   2.351  17.824  0.00  0.00    +0.000 C 
ATOM     26  C   UNL     1       3.848   2.931  17.835  0.00  0.00    +0.000 C 
ATOM     27  C   UNL     1       4.264   3.455  19.209  0.00  0.00    +0.000 C 
ENDBRANCH  19  22
ENDBRANCH   1  20
BRANCH   7  28
ATOM     28  C   UNL     1       0.232  13.418  21.921  0.00  0.00    +0.000 C 
BRANCH  28  29
ATOM     29  O   UNL     1      -0.899  13.072  22.710  0.00  0.00    +0.000 OA
ATOM     30  H   UNL     1      -1.267  13.885  23.116  0.00  0.00    +0.000 HD
ENDBRANCH  28  29
ENDBRANCH   7  28
TORSDOF 5
ENDMDL
MODEL 9
REMARK VINA RESULT:      -7.7      1.591      2.129
REMARK  Name = 
REMARK  5 active torsions:
REMARK  status: ('A' for Active; 'I' for Inactive)
REMARK    1  A    between atoms: C_2  and  C_23
REMARK    2  A    between atoms: N_3  and  C_4
REMARK    3  A    between atoms: C_9  and  C_10
REMARK    4  A    between atoms: C_16  and  C_17
REMARK    5  A    between atoms: C_17  and  O_18
REMARK                            x       y       z     vdW  Elec       q    Type
REMARK                         _______ _______ _______ _____ _____    ______ ____
ROOT
ATOM      1  C   UNL     1       2.230   7.254  19.723  0.00  0.00    +0.000 A 
ATOM      2  C   UNL     1       1.474   7.065  20.883  0.00  0.00    +0.000 A 
ATOM      3  C   UNL     1       0.608   8.061  21.343  0.00  0.00    +0.000 A 
ATOM      4  C   UNL     1       0.492   9.255  20.641  0.00  0.00    +0.000 A 
ATOM      5  O   UNL     1      -0.403  10.173  21.112  0.00  0.00    +0.000 OA
ATOM      6  C   UNL     1      -0.590  11.340  20.397  0.00  0.00    +0.000 A 
ATOM      7  C   UNL     1       0.080  11.698  19.282  0.00  0.00    +0.000 A 
ATOM      8  C   UNL     1       1.103  10.741  18.786  0.00  0.00    +0.000 A 
ATOM      9  O   UNL     1       1.797  10.985  17.804  0.00  0.00    +0.000 OA
ATOM     10  C   UNL     1       1.262   9.469  19.509  0.00  0.00    +0.000 A 
ATOM     11  C   UNL     1       2.148   8.482  19.055  0.00  0.00    +0.000 A 
ENDROOT
BRANCH   6  12
ATOM     12  C   UNL     1      -1.623  12.188  21.012  0.00  0.00    +0.000 A 
ATOM     13  C   UNL     1      -2.864  12.358  20.386  0.00  0.00    +0.000 A 
ATOM     14  C   UNL     1      -3.855  13.132  20.993  0.00  0.00    +0.000 A 
ATOM     15  C   UNL     1      -3.612  13.735  22.227  0.00  0.00    +0.000 A 
ATOM     16  C   UNL     1      -2.377  13.570  22.855  0.00  0.00    +0.000 A 
ATOM     17  C   UNL     1      -1.384  12.797  22.249  0.00  0.00    +0.000 A 
ENDBRANCH   6  12
BRANCH   1  20
ATOM     18  O   UNL     1       1.542   5.140  17.810  0.00  0.00    +0.000 OA
ATOM     19  C   UNL     1       2.678   5.286  18.255  0.00  0.00    +0.000 C 
ATOM     20  N   UNL     1       3.065   6.255  19.173  0.00  0.00    +0.000 N 
ATOM     21  H   UNL     1       4.060   6.363  19.330  0.00  0.00    +0.000 HD
BRANCH  19  22
ATOM     22  C   UNL     1       3.845   4.406  17.789  0.00  0.00    +0.000 C 
ATOM     23  C   UNL     1       4.696   3.927  18.970  0.00  0.00    +0.000 C 
ATOM     24  C   UNL     1       4.000   2.834  19.778  0.00  0.00    +0.000 C 
ATOM     25  C   UNL     1       3.629   1.646  18.900  0.00  0.00    +0.000 C 
ATOM     26  C   UNL     1       2.772   2.064  17.710  0.00  0.00    +0.000 C 
ATOM     27  C   UNL     1       3.378   3.224  16.921  0.00  0.00    +0.000 C 
ENDBRANCH  19  22
ENDBRANCH   1  20
BRANCH   7  28
ATOM     28  C   UNL     1      -0.164  12.999  18.555  0.00  0.00    +0.000 C 
BRANCH  28  29
ATOM     29  O   UNL     1      -1.008  12.941  17.413  0.00  0.00    +0.000 OA
ATOM     30  H   UNL     1      -0.911  13.771  16.901  0.00  0.00    +0.000 HD
ENDBRANCH  28  29
ENDBRANCH   7  28
TORSDOF 5
ENDMDL
