MODEL 1
REMARK VINA RESULT:      -7.6      0.000      0.000
REMARK  Name = 
REMARK  11 active torsions:
REMARK  status: ('A' for Active; 'I' for Inactive)
REMARK    1  A    between atoms: C_1  and  O_2
REMARK    2  A    between atoms: O_2  and  C_3
REMARK    3  A    between atoms: C_5  and  C_6
REMARK    4  A    between atoms: C_7  and  C_8
REMARK    5  A    between atoms: N_14  and  C_15
REMARK    6  A    between atoms: N_18  and  C_19
REMARK    7  A    between atoms: N_20  and  C_21
REMARK    8  A    between atoms: C_23  and  O_24
REMARK    9  A    between atoms: O_24  and  C_25
REMARK   10  A    between atoms: C_26  and  O_27
REMARK   11  A    between atoms: O_27  and  C_28
REMARK                            x       y       z     vdW  Elec       q    Type
REMARK                         _______ _______ _______ _____ _____    ______ ____
ROOT
ATOM      1  C   UNL     1       1.917   7.553  18.288  0.00  0.00    +0.000 C 
ATOM      2  C   UNL     1       2.032   8.273  19.415  0.00  0.00    +0.000 C 
ENDROOT
BRANCH   2   3
ATOM      3  C   UNL     1       1.021   9.208  19.777  0.00  0.00    +0.000 A 
ATOM      4  N   UNL     1       0.229   9.935  18.999  0.00  0.00    +0.000 NA
ATOM      5  C   UNL     1      -0.500  10.714  19.842  0.00  0.00    +0.000 A 
ATOM      6  C   UNL     1      -0.197  10.476  21.145  0.00  0.00    +0.000 A 
ATOM      7  C   UNL     1      -0.838  11.161  22.224  0.00  0.00    +0.000 A 
ATOM      8  O   UNL     1      -0.598  10.925  23.401  0.00  0.00    +0.000 OA
ATOM      9  N   UNL     1      -1.759  12.117  21.795  0.00  0.00    +0.000 N 
ATOM     10  C   UNL     1      -2.456  12.895  22.800  0.00  0.00    +0.000 C 
ATOM     11  C   UNL     1      -2.094  12.390  20.453  0.00  0.00    +0.000 A 
ATOM     12  O   UNL     1      -2.935  13.250  20.173  0.00  0.00    +0.000 OA
ATOM     13  N   UNL     1      -1.438  11.651  19.470  0.00  0.00    +0.000 N 
ATOM     14  C   UNL     1      -1.721  11.889  18.068  0.00  0.00    +0.000 C 
ATOM     15  N   UNL     1       0.791   9.522  21.113  0.00  0.00    +0.000 N 
ATOM     16  C   UNL     1       1.487   8.973  22.254  0.00  0.00    +0.000 C 
ENDBRANCH   2   3
BRANCH   1  19
ATOM     17  C   UNL     1       5.269   6.504  16.918  0.00  0.00    +0.000 A 
ATOM     18  C   UNL     1       4.125   7.272  17.213  0.00  0.00    +0.000 A 
ATOM     19  C   UNL     1       2.970   6.688  17.727  0.00  0.00    +0.000 A 
ATOM     20  C   UNL     1       2.942   5.300  17.852  0.00  0.00    +0.000 A 
ATOM     21  C   UNL     1       4.035   4.498  17.474  0.00  0.00    +0.000 A 
ATOM     22  C   UNL     1       5.221   5.095  16.995  0.00  0.00    +0.000 A 
BRANCH  17  24
ATOM     23  C   UNL     1       7.418   7.225  17.595  0.00  0.00    +0.000 C 
ATOM     24  O   UNL     1       6.435   7.136  16.559  0.00  0.00    +0.000 OA
ENDBRANCH  17  24
BRANCH  21  25
ATOM     25  O   UNL     1       3.768   3.167  17.690  0.00  0.00    +0.000 OA
ATOM     26  C   UNL     1       3.941   2.611  18.983  0.00  0.00    +0.000 C 
ENDBRANCH  21  25
BRANCH  22  27
ATOM     27  O   UNL     1       6.222   4.229  16.653  0.00  0.00    +0.000 OA
ATOM     28  C   UNL     1       6.464   3.854  15.309  0.00  0.00    +0.000 C 
ENDBRANCH  22  27
ENDBRANCH   1  19
TORSDOF 5
ENDMDL
MODEL 2
REMARK VINA RESULT:      -7.6      0.431      2.343
REMARK  Name = 
REMARK  11 active torsions:
REMARK  status: ('A' for Active; 'I' for Inactive)
REMARK    1  A    between atoms: C_1  and  O_2
REMARK    2  A    between atoms: O_2  and  C_3
REMARK    3  A    between atoms: C_5  and  C_6
REMARK    4  A    between atoms: C_7  and  C_8
REMARK    5  A    between atoms: N_14  and  C_15
REMARK    6  A    between atoms: N_18  and  C_19
REMARK    7  A    between atoms: N_20  and  C_21
REMARK    8  A    between atoms: C_23  and  O_24
REMARK    9  A    between atoms: O_24  and  C_25
REMARK   10  A    between atoms: C_26  and  O_27
REMARK   11  A    between atoms: O_27  and  C_28
REMARK                            x       y       z     vdW  Elec       q    Type
REMARK                         _______ _______ _______ _____ _____    ______ ____
ROOT
ATOM      1  C   UNL     1       2.297   7.820  18.319  0.00  0.00    +0.000 C 
ATOM      2  C   UNL     1       1.850   8.010  19.570  0.00  0.00    +0.000 C 
ENDROOT
BRANCH   2   3
ATOM      3  C   UNL     1       0.973   9.093  19.864  0.00  0.00    +0.000 A 
ATOM      4  N   UNL     1       0.314   9.893  19.034  0.00  0.00    +0.000 NA
ATOM      5  C   UNL     1      -0.318  10.801  19.823  0.00  0.00    +0.000 A 
ATOM      6  C   UNL     1      -0.087  10.576  21.143  0.00  0.00    +0.000 A 
ATOM      7  C   UNL     1      -0.653  11.390  22.175  0.00  0.00    +0.000 A 
ATOM      8  O   UNL     1      -0.481  11.171  23.367  0.00  0.00    +0.000 OA
ATOM      9  N   UNL     1      -1.417  12.448  21.681  0.00  0.00    +0.000 N 
ATOM     10  C   UNL     1      -2.022  13.358  22.633  0.00  0.00    +0.000 C 
ATOM     11  C   UNL     1      -1.672  12.710  20.319  0.00  0.00    +0.000 A 
ATOM     12  O   UNL     1      -2.373  13.668  19.980  0.00  0.00    +0.000 OA
ATOM     13  N   UNL     1      -1.102  11.845  19.386  0.00  0.00    +0.000 N 
ATOM     14  C   UNL     1      -1.311  12.062  17.967  0.00  0.00    +0.000 C 
ATOM     15  N   UNL     1       0.754   9.492  21.179  0.00  0.00    +0.000 N 
ATOM     16  C   UNL     1       1.334   8.898  22.363  0.00  0.00    +0.000 C 
ENDBRANCH   2   3
BRANCH   1  19
ATOM     17  C   UNL     1       3.855   4.551  17.271  0.00  0.00    +0.000 A 
ATOM     18  C   UNL     1       3.006   5.492  17.888  0.00  0.00    +0.000 A 
ATOM     19  C   UNL     1       3.332   6.846  17.931  0.00  0.00    +0.000 A 
ATOM     20  C   UNL     1       4.573   7.234  17.428  0.00  0.00    +0.000 A 
ATOM     21  C   UNL     1       5.481   6.302  16.893  0.00  0.00    +0.000 A 
ATOM     22  C   UNL     1       5.133   4.937  16.811  0.00  0.00    +0.000 A 
BRANCH  17  24
ATOM     23  C   UNL     1       3.283   2.515  18.333  0.00  0.00    +0.000 C 
ATOM     24  O   UNL     1       3.428   3.254  17.116  0.00  0.00    +0.000 OA
ENDBRANCH  17  24
BRANCH  21  25
ATOM     25  O   UNL     1       6.631   6.924  16.466  0.00  0.00    +0.000 OA
ATOM     26  C   UNL     1       7.501   7.528  17.409  0.00  0.00    +0.000 C 
ENDBRANCH  21  25
BRANCH  22  27
ATOM     27  O   UNL     1       6.086   4.114  16.278  0.00  0.00    +0.000 OA
ATOM     28  C   UNL     1       6.196   3.898  14.884  0.00  0.00    +0.000 C 
ENDBRANCH  22  27
ENDBRANCH   1  19
TORSDOF 5
ENDMDL
MODEL 3
REMARK VINA RESULT:      -7.5      1.388      2.867
REMARK  Name = 
REMARK  11 active torsions:
REMARK  status: ('A' for Active; 'I' for Inactive)
REMARK    1  A    between atoms: C_1  and  O_2
REMARK    2  A    between atoms: O_2  and  C_3
REMARK    3  A    between atoms: C_5  and  C_6
REMARK    4  A    between atoms: C_7  and  C_8
REMARK    5  A    between atoms: N_14  and  C_15
REMARK    6  A    between atoms: N_18  and  C_19
REMARK    7  A    between atoms: N_20  and  C_21
REMARK    8  A    between atoms: C_23  and  O_24
REMARK    9  A    between atoms: O_24  and  C_25
REMARK   10  A    between atoms: C_26  and  O_27
REMARK   11  A    between atoms: O_27  and  C_28
REMARK                            x       y       z     vdW  Elec       q    Type
REMARK                         _______ _______ _______ _____ _____    ______ ____
ROOT
ATOM      1  C   UNL     1       1.929   7.444  18.192  0.00  0.00    +0.000 C 
ATOM      2  C   UNL     1       1.892   8.784  18.270  0.00  0.00    +0.000 C 
ENDROOT
BRANCH   2   3
ATOM      3  C   UNL     1       0.646   9.463  18.387  0.00  0.00    +0.000 A 
ATOM      4  N   UNL     1      -0.344   9.564  17.507  0.00  0.00    +0.000 NA
ATOM      5  C   UNL     1      -1.266  10.379  18.085  0.00  0.00    +0.000 A 
ATOM      6  C   UNL     1      -0.885  10.780  19.326  0.00  0.00    +0.000 A 
ATOM      7  C   UNL     1      -1.692  11.633  20.142  0.00  0.00    +0.000 A 
ATOM      8  O   UNL     1      -1.374  11.968  21.276  0.00  0.00    +0.000 OA
ATOM      9  N   UNL     1      -2.871  12.038  19.514  0.00  0.00    +0.000 N 
ATOM     10  C   UNL     1      -3.760  12.927  20.235  0.00  0.00    +0.000 C 
ATOM     11  C   UNL     1      -3.292  11.643  18.228  0.00  0.00    +0.000 A 
ATOM     12  O   UNL     1      -4.362  12.047  17.761  0.00  0.00    +0.000 OA
ATOM     13  N   UNL     1      -2.453  10.786  17.518  0.00  0.00    +0.000 N 
ATOM     14  C   UNL     1      -2.816  10.350  16.183  0.00  0.00    +0.000 C 
ATOM     15  N   UNL     1       0.349  10.210  19.522  0.00  0.00    +0.000 N 
ATOM     16  C   UNL     1       1.197  10.385  20.679  0.00  0.00    +0.000 C 
ENDBRANCH   2   3
BRANCH   1  19
ATOM     17  C   UNL     1       4.072   4.455  17.365  0.00  0.00    +0.000 A 
ATOM     18  C   UNL     1       3.042   5.258  17.896  0.00  0.00    +0.000 A 
ATOM     19  C   UNL     1       3.133   6.648  17.901  0.00  0.00    +0.000 A 
ATOM     20  C   UNL     1       4.320   7.224  17.450  0.00  0.00    +0.000 A 
ATOM     21  C   UNL     1       5.402   6.443  17.005  0.00  0.00    +0.000 A 
ATOM     22  C   UNL     1       5.292   5.037  16.959  0.00  0.00    +0.000 A 
BRANCH  17  24
ATOM     23  C   UNL     1       2.924   2.539  18.147  0.00  0.00    +0.000 C 
ATOM     24  O   UNL     1       3.878   3.101  17.239  0.00  0.00    +0.000 OA
ENDBRANCH  17  24
BRANCH  21  25
ATOM     25  O   UNL     1       6.455   7.238  16.615  0.00  0.00    +0.000 OA
ATOM     26  C   UNL     1       7.497   7.531  17.532  0.00  0.00    +0.000 C 
ENDBRANCH  21  25
BRANCH  22  27
ATOM     27  O   UNL     1       6.400   4.371  16.513  0.00  0.00    +0.000 OA
ATOM     28  C   UNL     1       6.601   4.084  15.142  0.00  0.00    +0.000 C 
ENDBRANCH  22  27
ENDBRANCH   1  19
TORSDOF 5
ENDMDL
MODEL 4
REMARK VINA RESULT:      -7.4      2.653      3.355
REMARK  Name = 
REMARK  11 active torsions:
REMARK  status: ('A' for Active; 'I' for Inactive)
REMARK    1  A    between atoms: C_1  and  O_2
REMARK    2  A    between atoms: O_2  and  C_3
REMARK    3  A    between atoms: C_5  and  C_6
REMARK    4  A    between atoms: C_7  and  C_8
REMARK    5  A    between atoms: N_14  and  C_15
REMARK    6  A    between atoms: N_18  and  C_19
REMARK    7  A    between atoms: N_20  and  C_21
REMARK    8  A    between atoms: C_23  and  O_24
REMARK    9  A    between atoms: O_24  and  C_25
REMARK   10  A    between atoms: C_26  and  O_27
REMARK   11  A    between atoms: O_27  and  C_28
REMARK                            x       y       z     vdW  Elec       q    Type
REMARK                         _______ _______ _______ _____ _____    ______ ____
ROOT
ATOM      1  C   UNL     1       2.627   8.565  17.860  0.00  0.00    +0.000 C 
ATOM      2  C   UNL     1       1.501   9.089  18.369  0.00  0.00    +0.000 C 
ENDROOT
BRANCH   2   3
ATOM      3  C   UNL     1       1.346  10.501  18.469  0.00  0.00    +0.000 A 
ATOM      4  N   UNL     1       2.242  11.462  18.279  0.00  0.00    +0.000 NA
ATOM      5  C   UNL     1       1.601  12.625  18.571  0.00  0.00    +0.000 A 
ATOM      6  C   UNL     1       0.305  12.417  18.923  0.00  0.00    +0.000 A 
ATOM      7  C   UNL     1      -0.583  13.485  19.265  0.00  0.00    +0.000 A 
ATOM      8  O   UNL     1      -1.761  13.309  19.546  0.00  0.00    +0.000 OA
ATOM      9  N   UNL     1       0.033  14.737  19.241  0.00  0.00    +0.000 N 
ATOM     10  C   UNL     1      -0.762  15.897  19.594  0.00  0.00    +0.000 C 
ATOM     11  C   UNL     1       1.374  14.985  18.884  0.00  0.00    +0.000 A 
ATOM     12  O   UNL     1       1.825  16.135  18.882  0.00  0.00    +0.000 OA
ATOM     13  N   UNL     1       2.155  13.884  18.538  0.00  0.00    +0.000 N 
ATOM     14  C   UNL     1       3.548  14.063  18.173  0.00  0.00    +0.000 C 
ATOM     15  N   UNL     1       0.137  11.054  18.877  0.00  0.00    +0.000 N 
ATOM     16  C   UNL     1      -1.065  10.329  19.222  0.00  0.00    +0.000 C 
ENDBRANCH   2   3
BRANCH   1  19
ATOM     17  C   UNL     1       4.727   5.434  17.845  0.00  0.00    +0.000 A 
ATOM     18  C   UNL     1       4.280   6.746  17.593  0.00  0.00    +0.000 A 
ATOM     19  C   UNL     1       2.968   7.131  17.863  0.00  0.00    +0.000 A 
ATOM     20  C   UNL     1       2.079   6.152  18.303  0.00  0.00    +0.000 A 
ATOM     21  C   UNL     1       2.475   4.812  18.472  0.00  0.00    +0.000 A 
ATOM     22  C   UNL     1       3.814   4.432  18.240  0.00  0.00    +0.000 A 
BRANCH  17  24
ATOM     23  C   UNL     1       6.867   5.433  18.856  0.00  0.00    +0.000 C 
ATOM     24  O   UNL     1       6.062   5.137  17.710  0.00  0.00    +0.000 OA
ENDBRANCH  17  24
BRANCH  21  25
ATOM     25  O   UNL     1       1.425   4.040  18.910  0.00  0.00    +0.000 OA
ATOM     26  C   UNL     1       1.013   4.110  20.266  0.00  0.00    +0.000 C 
ENDBRANCH  21  25
BRANCH  22  27
ATOM     27  O   UNL     1       4.095   3.108  18.430  0.00  0.00    +0.000 OA
ATOM     28  C   UNL     1       4.410   2.583  19.706  0.00  0.00    +0.000 C 
ENDBRANCH  22  27
ENDBRANCH   1  19
TORSDOF 5
ENDMDL
MODEL 5
REMARK VINA RESULT:      -7.4      2.134      3.395
REMARK  Name = 
REMARK  11 active torsions:
REMARK  status: ('A' for Active; 'I' for Inactive)
REMARK    1  A    between atoms: C_1  and  O_2
REMARK    2  A    between atoms: O_2  and  C_3
REMARK    3  A    between atoms: C_5  and  C_6
REMARK    4  A    between atoms: C_7  and  C_8
REMARK    5  A    between atoms: N_14  and  C_15
REMARK    6  A    between atoms: N_18  and  C_19
REMARK    7  A    between atoms: N_20  and  C_21
REMARK    8  A    between atoms: C_23  and  O_24
REMARK    9  A    between atoms: O_24  and  C_25
REMARK   10  A    between atoms: C_26  and  O_27
REMARK   11  A    between atoms: O_27  and  C_28
REMARK                            x       y       z     vdW  Elec       q    Type
REMARK                         _______ _______ _______ _____ _____    ______ ____
ROOT
ATOM      1  C   UNL     1       1.889   7.744  19.781  0.00  0.00    +0.000 C 
ATOM      2  C   UNL     1       1.224   8.281  20.815  0.00  0.00    +0.000 C 
ENDROOT
BRANCH   2   3
ATOM      3  C   UNL     1       0.843   9.653  20.792  0.00  0.00    +0.000 A 
ATOM      4  N   UNL     1       1.071  10.575  19.863  0.00  0.00    +0.000 NA
ATOM      5  C   UNL     1       0.562  11.732  20.362  0.00  0.00    +0.000 A 
ATOM      6  C   UNL     1      -0.005  11.554  21.584  0.00  0.00    +0.000 A 
ATOM      7  C   UNL     1      -0.620  12.620  22.312  0.00  0.00    +0.000 A 
ATOM      8  O   UNL     1      -1.167  12.460  23.396  0.00  0.00    +0.000 OA
ATOM      9  N   UNL     1      -0.534  13.850  21.659  0.00  0.00    +0.000 N 
ATOM     10  C   UNL     1      -1.103  15.013  22.311  0.00  0.00    +0.000 C 
ATOM     11  C   UNL     1       0.049  14.069  20.394  0.00  0.00    +0.000 A 
ATOM     12  O   UNL     1       0.066  15.197  19.891  0.00  0.00    +0.000 OA
ATOM     13  N   UNL     1       0.599  12.963  19.746  0.00  0.00    +0.000 N 
ATOM     14  C   UNL     1       1.228  13.116  18.449  0.00  0.00    +0.000 C 
ATOM     15  N   UNL     1       0.186  10.226  21.876  0.00  0.00    +0.000 N 
ATOM     16  C   UNL     1      -0.195   9.556  23.098  0.00  0.00    +0.000 C 
ENDBRANCH   2   3
BRANCH   1  19
ATOM     17  C   UNL     1       2.148   3.998  20.120  0.00  0.00    +0.000 A 
ATOM     18  C   UNL     1       1.774   5.339  20.339  0.00  0.00    +0.000 A 
ATOM     19  C   UNL     1       2.479   6.394  19.765  0.00  0.00    +0.000 A 
ATOM     20  C   UNL     1       3.631   6.090  19.041  0.00  0.00    +0.000 A 
ATOM     21  C   UNL     1       4.083   4.766  18.887  0.00  0.00    +0.000 A 
ATOM     22  C   UNL     1       3.343   3.695  19.431  0.00  0.00    +0.000 A 
BRANCH  17  24
ATOM     23  C   UNL     1       1.627   2.533  21.903  0.00  0.00    +0.000 C 
ATOM     24  O   UNL     1       1.339   2.986  20.576  0.00  0.00    +0.000 OA
ENDBRANCH  17  24
BRANCH  21  25
ATOM     25  O   UNL     1       5.235   4.724  18.136  0.00  0.00    +0.000 OA
ATOM     26  C   UNL     1       5.171   4.903  16.731  0.00  0.00    +0.000 C 
ENDBRANCH  21  25
BRANCH  22  27
ATOM     27  O   UNL     1       3.869   2.450  19.228  0.00  0.00    +0.000 OA
ATOM     28  C   UNL     1       3.482   1.642  18.132  0.00  0.00    +0.000 C 
ENDBRANCH  22  27
ENDBRANCH   1  19
TORSDOF 5
ENDMDL
MODEL 6
REMARK VINA RESULT:      -7.4      2.219      2.660
REMARK  Name = 
REMARK  11 active torsions:
REMARK  status: ('A' for Active; 'I' for Inactive)
REMARK    1  A    between atoms: C_1  and  O_2
REMARK    2  A    between atoms: O_2  and  C_3
REMARK    3  A    between atoms: C_5  and  C_6
REMARK    4  A    between atoms: C_7  and  C_8
REMARK    5  A    between atoms: N_14  and  C_15
REMARK    6  A    between atoms: N_18  and  C_19
REMARK    7  A    between atoms: N_20  and  C_21
REMARK    8  A    between atoms: C_23  and  O_24
REMARK    9  A    between atoms: O_24  and  C_25
REMARK   10  A    between atoms: C_26  and  O_27
REMARK   11  A    between atoms: O_27  and  C_28
REMARK                            x       y       z     vdW  Elec       q    Type
REMARK                         _______ _______ _______ _____ _____    ______ ____
ROOT
ATOM      1  C   UNL     1       2.854   7.780  18.512  0.00  0.00    +0.000 C 
ATOM      2  C   UNL     1       1.716   8.430  18.225  0.00  0.00    +0.000 C 
ENDROOT
BRANCH   2   3
ATOM      3  C   UNL     1       1.479   9.732  18.750  0.00  0.00    +0.000 A 
ATOM      4  N   UNL     1       1.802  10.916  18.244  0.00  0.00    +0.000 NA
ATOM      5  C   UNL     1       1.414  11.831  19.173  0.00  0.00    +0.000 A 
ATOM      6  C   UNL     1       0.830  11.245  20.251  0.00  0.00    +0.000 A 
ATOM      7  C   UNL     1       0.327  11.997  21.358  0.00  0.00    +0.000 A 
ATOM      8  O   UNL     1      -0.235  11.480  22.316  0.00  0.00    +0.000 OA
ATOM      9  N   UNL     1       0.540  13.370  21.231  0.00  0.00    +0.000 N 
ATOM     10  C   UNL     1       0.094  14.235  22.305  0.00  0.00    +0.000 C 
ATOM     11  C   UNL     1       1.145  14.007  20.128  0.00  0.00    +0.000 A 
ATOM     12  O   UNL     1       1.279  15.235  20.102  0.00  0.00    +0.000 OA
ATOM     13  N   UNL     1       1.578  13.195  19.082  0.00  0.00    +0.000 N 
ATOM     14  C   UNL     1       2.222  13.781  17.922  0.00  0.00    +0.000 C 
ATOM     15  N   UNL     1       0.882   9.897  19.996  0.00  0.00    +0.000 N 
ATOM     16  C   UNL     1       0.432   8.843  20.877  0.00  0.00    +0.000 C 
ENDBRANCH   2   3
BRANCH   1  19
ATOM     17  C   UNL     1       4.750   4.541  18.159  0.00  0.00    +0.000 A 
ATOM     18  C   UNL     1       4.449   5.917  18.207  0.00  0.00    +0.000 A 
ATOM     19  C   UNL     1       3.134   6.375  18.169  0.00  0.00    +0.000 A 
ATOM     20  C   UNL     1       2.122   5.434  17.985  0.00  0.00    +0.000 A 
ATOM     21  C   UNL     1       2.401   4.063  17.837  0.00  0.00    +0.000 A 
ATOM     22  C   UNL     1       3.729   3.595  17.920  0.00  0.00    +0.000 A 
BRANCH  17  24
ATOM     23  C   UNL     1       6.952   4.458  17.297  0.00  0.00    +0.000 C 
ATOM     24  O   UNL     1       6.045   4.124  18.353  0.00  0.00    +0.000 OA
ENDBRANCH  17  24
BRANCH  21  25
ATOM     25  O   UNL     1       1.243   3.341  17.667  0.00  0.00    +0.000 OA
ATOM     26  C   UNL     1       0.599   2.762  18.791  0.00  0.00    +0.000 C 
ENDBRANCH  21  25
BRANCH  22  27
ATOM     27  O   UNL     1       3.893   2.247  17.761  0.00  0.00    +0.000 OA
ATOM     28  C   UNL     1       3.888   1.356  18.860  0.00  0.00    +0.000 C 
ENDBRANCH  22  27
ENDBRANCH   1  19
TORSDOF 5
ENDMDL
MODEL 7
REMARK VINA RESULT:      -7.3      1.604      2.557
REMARK  Name = 
REMARK  11 active torsions:
REMARK  status: ('A' for Active; 'I' for Inactive)
REMARK    1  A    between atoms: C_1  and  O_2
REMARK    2  A    between atoms: O_2  and  C_3
REMARK    3  A    between atoms: C_5  and  C_6
REMARK    4  A    between atoms: C_7  and  C_8
REMARK    5  A    between atoms: N_14  and  C_15
REMARK    6  A    between atoms: N_18  and  C_19
REMARK    7  A    between atoms: N_20  and  C_21
REMARK    8  A    between atoms: C_23  and  O_24
REMARK    9  A    between atoms: O_24  and  C_25
REMARK   10  A    between atoms: C_26  and  O_27
REMARK   11  A    between atoms: O_27  and  C_28
REMARK                            x       y       z     vdW  Elec       q    Type
REMARK                         _______ _______ _______ _____ _____    ______ ____
ROOT
ATOM      1  C   UNL     1       1.818   8.420  18.627  0.00  0.00    +0.000 C 
ATOM      2  C   UNL     1       1.201   9.377  17.918  0.00  0.00    +0.000 C 
ENDROOT
BRANCH   2   3
ATOM      3  C   UNL     1       0.285  10.264  18.552  0.00  0.00    +0.000 A 
ATOM      4  N   UNL     1       0.447  11.006  19.641  0.00  0.00    +0.000 NA
ATOM      5  C   UNL     1      -0.752  11.609  19.857  0.00  0.00    +0.000 A 
ATOM      6  C   UNL     1      -1.667  11.276  18.910  0.00  0.00    +0.000 A 
ATOM      7  C   UNL     1      -3.001  11.791  18.911  0.00  0.00    +0.000 A 
ATOM      8  O   UNL     1      -3.820  11.527  18.040  0.00  0.00    +0.000 OA
ATOM      9  N   UNL     1      -3.266  12.622  20.001  0.00  0.00    +0.000 N 
ATOM     10  C   UNL     1      -4.596  13.185  20.124  0.00  0.00    +0.000 C 
ATOM     11  C   UNL     1      -2.341  12.983  21.001  0.00  0.00    +0.000 A 
ATOM     12  O   UNL     1      -2.668  13.737  21.923  0.00  0.00    +0.000 OA
ATOM     13  N   UNL     1      -1.055  12.455  20.901  0.00  0.00    +0.000 N 
ATOM     14  C   UNL     1      -0.055  12.772  21.902  0.00  0.00    +0.000 C 
ATOM     15  N   UNL     1      -1.016  10.400  18.076  0.00  0.00    +0.000 N 
ATOM     16  C   UNL     1      -1.587   9.718  16.937  0.00  0.00    +0.000 C 
ENDBRANCH   2   3
BRANCH   1  19
ATOM     17  C   UNL     1       4.782   6.710  17.043  0.00  0.00    +0.000 A 
ATOM     18  C   UNL     1       3.817   7.683  17.373  0.00  0.00    +0.000 A 
ATOM     19  C   UNL     1       2.648   7.346  18.053  0.00  0.00    +0.000 A 
ATOM     20  C   UNL     1       2.413   5.997  18.316  0.00  0.00    +0.000 A 
ATOM     21  C   UNL     1       3.314   4.994  17.912  0.00  0.00    +0.000 A 
ATOM     22  C   UNL     1       4.518   5.340  17.262  0.00  0.00    +0.000 A 
BRANCH  17  24
ATOM     23  C   UNL     1       7.010   7.380  17.471  0.00  0.00    +0.000 C 
ATOM     24  O   UNL     1       5.985   7.103  16.511  0.00  0.00    +0.000 OA
ENDBRANCH  17  24
BRANCH  21  25
ATOM     25  O   UNL     1       2.862   3.749  18.283  0.00  0.00    +0.000 OA
ATOM     26  C   UNL     1       1.480   3.444  18.198  0.00  0.00    +0.000 C 
ENDBRANCH  21  25
BRANCH  22  27
ATOM     27  O   UNL     1       5.322   4.292  16.910  0.00  0.00    +0.000 OA
ATOM     28  C   UNL     1       5.565   3.954  15.557  0.00  0.00    +0.000 C 
ENDBRANCH  22  27
ENDBRANCH   1  19
TORSDOF 5
ENDMDL
MODEL 8
REMARK VINA RESULT:      -7.3      2.617      3.869
REMARK  Name = 
REMARK  11 active torsions:
REMARK  status: ('A' for Active; 'I' for Inactive)
REMARK    1  A    between atoms: C_1  and  O_2
REMARK    2  A    between atoms: O_2  and  C_3
REMARK    3  A    between atoms: C_5  and  C_6
REMARK    4  A    between atoms: C_7  and  C_8
REMARK    5  A    between atoms: N_14  and  C_15
REMARK    6  A    between atoms: N_18  and  C_19
REMARK    7  A    between atoms: N_20  and  C_21
REMARK    8  A    between atoms: C_23  and  O_24
REMARK    9  A    between atoms: O_24  and  C_25
REMARK   10  A    between atoms: C_26  and  O_27
REMARK   11  A    between atoms: O_27  and  C_28
REMARK                            x       y       z     vdW  Elec       q    Type
REMARK                         _______ _______ _______ _____ _____    ______ ____
ROOT
ATOM      1  C   UNL     1       2.816   8.463  18.020  0.00  0.00    +0.000 C 
ATOM      2  C   UNL     1       1.591   9.009  18.052  0.00  0.00    +0.000 C 
ENDROOT
BRANCH   2   3
ATOM      3  C   UNL     1       1.432  10.410  18.253  0.00  0.00    +0.000 A 
ATOM      4  N   UNL     1       2.325  11.385  18.130  0.00  0.00    +0.000 NA
ATOM      5  C   UNL     1       1.682  12.522  18.506  0.00  0.00    +0.000 A 
ATOM      6  C   UNL     1       0.388  12.286  18.846  0.00  0.00    +0.000 A 
ATOM      7  C   UNL     1      -0.502  13.324  19.265  0.00  0.00    +0.000 A 
ATOM      8  O   UNL     1      -1.679  13.126  19.535  0.00  0.00    +0.000 OA
ATOM      9  N   UNL     1       0.110  14.577  19.329  0.00  0.00    +0.000 N 
ATOM     10  C   UNL     1      -0.687  15.706  19.766  0.00  0.00    +0.000 C 
ATOM     11  C   UNL     1       1.450  14.854  18.987  0.00  0.00    +0.000 A 
ATOM     12  O   UNL     1       1.898  16.002  19.066  0.00  0.00    +0.000 OA
ATOM     13  N   UNL     1       2.233  13.783  18.561  0.00  0.00    +0.000 N 
ATOM     14  C   UNL     1       3.624  13.991  18.207  0.00  0.00    +0.000 C 
ATOM     15  N   UNL     1       0.223  10.930  18.702  0.00  0.00    +0.000 N 
ATOM     16  C   UNL     1      -0.976  10.178  18.998  0.00  0.00    +0.000 C 
ENDBRANCH   2   3
BRANCH   1  19
ATOM     17  C   UNL     1       2.239   4.747  18.289  0.00  0.00    +0.000 A 
ATOM     18  C   UNL     1       2.162   6.134  18.528  0.00  0.00    +0.000 A 
ATOM     19  C   UNL     1       3.096   7.017  17.990  0.00  0.00    +0.000 A 
ATOM     20  C   UNL     1       4.170   6.478  17.284  0.00  0.00    +0.000 A 
ATOM     21  C   UNL     1       4.325   5.090  17.113  0.00  0.00    +0.000 A 
ATOM     22  C   UNL     1       3.355   4.199  17.620  0.00  0.00    +0.000 A 
BRANCH  17  24
ATOM     23  C   UNL     1       0.975   3.938  20.119  0.00  0.00    +0.000 C 
ATOM     24  O   UNL     1       1.216   3.931  18.708  0.00  0.00    +0.000 OA
ENDBRANCH  17  24
BRANCH  21  25
ATOM     25  O   UNL     1       5.458   4.806  16.386  0.00  0.00    +0.000 OA
ATOM     26  C   UNL     1       6.699   4.635  17.051  0.00  0.00    +0.000 C 
ENDBRANCH  21  25
BRANCH  22  27
ATOM     27  O   UNL     1       3.599   2.872  17.402  0.00  0.00    +0.000 OA
ATOM     28  C   UNL     1       3.737   1.949  18.467  0.00  0.00    +0.000 C 
ENDBRANCH  22  27
ENDBRANCH   1  19
TORSDOF 5
ENDMDL
MODEL 9
REMARK VINA RESULT:      -7.2      1.707      2.846
REMARK  Name = 
REMARK  11 active torsions:
REMARK  status: ('A' for Active; 'I' for Inactive)
REMARK    1  A    between atoms: C_1  and  O_2
REMARK    2  A    between atoms: O_2  and  C_3
REMARK    3  A    between atoms: C_5  and  C_6
REMARK    4  A    between atoms: C_7  and  C_8
REMARK    5  A    between atoms: N_14  and  C_15
REMARK    6  A    between atoms: N_18  and  C_19
REMARK    7  A    between atoms: N_20  and  C_21
REMARK    8  A    between atoms: C_23  and  O_24
REMARK    9  A    between atoms: O_24  and  C_25
REMARK   10  A    between atoms: C_26  and  O_27
REMARK   11  A    between atoms: O_27  and  C_28
REMARK                            x       y       z     vdW  Elec       q    Type
REMARK                         _______ _______ _______ _____ _____    ______ ____
ROOT
ATOM      1  C   UNL     1       1.999   7.613  18.372  0.00  0.00    +0.000 C 
ATOM      2  C   UNL     1       1.899   8.952  18.387  0.00  0.00    +0.000 C 
ENDROOT
BRANCH   2   3
ATOM      3  C   UNL     1       0.621   9.578  18.424  0.00  0.00    +0.000 A 
ATOM      4  N   UNL     1      -0.331   9.605  17.498  0.00  0.00    +0.000 NA
ATOM      5  C   UNL     1      -1.313  10.396  18.006  0.00  0.00    +0.000 A 
ATOM      6  C   UNL     1      -1.008  10.854  19.248  0.00  0.00    +0.000 A 
ATOM      7  C   UNL     1      -1.888  11.696  19.997  0.00  0.00    +0.000 A 
ATOM      8  O   UNL     1      -1.638  12.081  21.132  0.00  0.00    +0.000 OA
ATOM      9  N   UNL     1      -3.053  12.026  19.304  0.00  0.00    +0.000 N 
ATOM     10  C   UNL     1      -4.013  12.897  19.953  0.00  0.00    +0.000 C 
ATOM     11  C   UNL     1      -3.397  11.571  18.014  0.00  0.00    +0.000 A 
ATOM     12  O   UNL     1      -4.461  11.910  17.487  0.00  0.00    +0.000 OA
ATOM     13  N   UNL     1      -2.490  10.730  17.373  0.00  0.00    +0.000 N 
ATOM     14  C   UNL     1      -2.771  10.235  16.039  0.00  0.00    +0.000 C 
ATOM     15  N   UNL     1       0.239  10.347  19.519  0.00  0.00    +0.000 N 
ATOM     16  C   UNL     1       1.024  10.597  20.706  0.00  0.00    +0.000 C 
ENDBRANCH   2   3
BRANCH   1  19
ATOM     17  C   UNL     1       4.646   4.968  18.826  0.00  0.00    +0.000 A 
ATOM     18  C   UNL     1       3.624   5.899  19.099  0.00  0.00    +0.000 A 
ATOM     19  C   UNL     1       3.248   6.861  18.164  0.00  0.00    +0.000 A 
ATOM     20  C   UNL     1       3.980   6.939  16.980  0.00  0.00    +0.000 A 
ATOM     21  C   UNL     1       5.068   6.085  16.722  0.00  0.00    +0.000 A 
ATOM     22  C   UNL     1       5.420   5.083  17.650  0.00  0.00    +0.000 A 
BRANCH  17  24
ATOM     23  C   UNL     1       3.987   2.831  19.598  0.00  0.00    +0.000 C 
ATOM     24  O   UNL     1       4.882   3.943  19.710  0.00  0.00    +0.000 OA
ENDBRANCH  17  24
BRANCH  21  25
ATOM     25  O   UNL     1       5.627   6.357  15.495  0.00  0.00    +0.000 OA
ATOM     26  C   UNL     1       5.852   5.304  14.571  0.00  0.00    +0.000 C 
ENDBRANCH  21  25
BRANCH  22  27
ATOM     27  O   UNL     1       6.492   4.308  17.306  0.00  0.00    +0.000 OA
ATOM     28  C   UNL     1       7.798   4.581  17.779  0.00  0.00    +0.000 C 
ENDBRANCH  22  27
ENDBRANCH   1  19
TORSDOF 5
ENDMDL
