MODEL 1
REMARK VINA RESULT:      -7.8      0.000      0.000
REMARK  Name = 
REMARK  15 active torsions:
REMARK  status: ('A' for Active; 'I' for Inactive)
REMARK    1  A    between atoms: C_1  and  C_2
REMARK    2  A    between atoms: C_2  and  O_3
REMARK    3  A    between atoms: O_3  and  C_4
REMARK    4  A    between atoms: C_4  and  C_6
REMARK    5  A    between atoms: C_7  and  C_8
REMARK    6  A    between atoms: C_10  and  C_11
REMARK    7  A    between atoms: C_13  and  O_14
REMARK    8  A    between atoms: C_13  and  O_15
REMARK    9  A    between atoms: O_15  and  C_16
REMARK   10  A    between atoms: C_16  and  C_17
REMARK   11  A    between atoms: C_18  and  C_19
REMARK   12  A    between atoms: C_19  and  O_21
REMARK   13  A    between atoms: O_21  and  C_22
REMARK   14  A    between atoms: C_22  and  C_23
REMARK   15  A    between atoms: N_25  and  C_26
REMARK                            x       y       z     vdW  Elec       q    Type
REMARK                         _______ _______ _______ _____ _____    ______ ____
ROOT
ATOM      1  C   UNL     1       5.303   5.654  17.546  0.00  0.00    +0.000 C 
ATOM      2  C   UNL     1       6.160   4.952  18.315  0.00  0.00    +0.000 C 
ATOM      3  C   UNL     1       7.663   5.120  18.373  0.00  0.00    +0.000 C 
ATOM      4  N   UNL     1       5.745   3.955  19.166  0.00  0.00    +0.000 NA
ATOM      5  C   UNL     1       4.509   3.565  19.202  0.00  0.00    +0.000 C 
ATOM      6  C   UNL     1       4.246   2.371  20.100  0.00  0.00    +0.000 C 
ATOM      7  C   UNL     1       3.403   4.179  18.394  0.00  0.00    +0.000 C 
ATOM      8  C   UNL     1       2.170   3.635  18.292  0.00  0.00    +0.000 C 
ATOM      9  C   UNL     1       3.815   5.444  17.658  0.00  0.00    +0.000 C 
ENDROOT
BRANCH   1  10
ATOM     10  C   UNL     1       5.777   6.678  16.575  0.00  0.00    +0.000 C 
ATOM     11  O   UNL     1       6.482   7.637  16.842  0.00  0.00    +0.000 OA
BRANCH  10  12
ATOM     12  O   UNL     1       5.300   6.414  15.330  0.00  0.00    +0.000 OA
BRANCH  12  14
ATOM     13  C   UNL     1       7.058   4.937  14.518  0.00  0.00    +0.000 C 
ATOM     14  C   UNL     1       5.582   5.091  14.846  0.00  0.00    +0.000 C 
ENDBRANCH  12  14
ENDBRANCH  10  12
ENDBRANCH   1  10
BRANCH   8  15
ATOM     15  O   UNL     1       1.251   4.111  17.385  0.00  0.00    +0.000 OA
ATOM     16  H   UNL     1       0.525   4.557  17.874  0.00  0.00    +0.000 HD
ENDBRANCH   8  15
BRANCH   9  17
ATOM     17  C   UNL     1       3.239   6.648  18.422  0.00  0.00    +0.000 C 
ATOM     18  O   UNL     1       3.179   6.775  19.639  0.00  0.00    +0.000 OA
BRANCH  17  19
ATOM     19  O   UNL     1       2.698   7.553  17.546  0.00  0.00    +0.000 OA
BRANCH  19  20
ATOM     20  C   UNL     1       2.638   8.902  18.035  0.00  0.00    +0.000 C 
BRANCH  20  21
ATOM     21  C   UNL     1       1.199   9.227  18.451  0.00  0.00    +0.000 C 
ATOM     22  O   UNL     1       0.330   9.482  17.623  0.00  0.00    +0.000 OA
ATOM     23  N   UNL     1       0.925   9.248  19.803  0.00  0.00    +0.000 N 
ATOM     24  H   UNL     1       1.634   8.927  20.456  0.00  0.00    +0.000 HD
BRANCH  23  25
ATOM     25  C   UNL     1      -0.446   9.437  20.275  0.00  0.00    +0.000 C 
ATOM     26  C   UNL     1      -0.715   8.657  21.568  0.00  0.00    +0.000 C 
ATOM     27  C   UNL     1       0.024   9.266  22.755  0.00  0.00    +0.000 C 
ATOM     28  C   UNL     1      -0.376  10.722  22.966  0.00  0.00    +0.000 C 
ATOM     29  C   UNL     1      -0.235  11.570  21.706  0.00  0.00    +0.000 C 
ATOM     30  C   UNL     1      -0.801  10.916  20.446  0.00  0.00    +0.000 C 
ENDBRANCH  23  25
ENDBRANCH  20  21
ENDBRANCH  19  20
ENDBRANCH  17  19
ENDBRANCH   9  17
BRANCH   8  31
ATOM     31  O   UNL     1       1.808   2.509  18.998  0.00  0.00    +0.000 OA
BRANCH  31  32
ATOM     32  C   UNL     1       0.660   2.680  19.833  0.00  0.00    +0.000 C 
ATOM     33  C   UNL     1       1.161   2.875  21.253  0.00  0.00    +0.000 C 
ENDBRANCH  31  32
ENDBRANCH   8  31
TORSDOF 11
ENDMDL
MODEL 2
REMARK VINA RESULT:      -7.8      1.226      1.569
REMARK  Name = 
REMARK  15 active torsions:
REMARK  status: ('A' for Active; 'I' for Inactive)
REMARK    1  A    between atoms: C_1  and  C_2
REMARK    2  A    between atoms: C_2  and  O_3
REMARK    3  A    between atoms: O_3  and  C_4
REMARK    4  A    between atoms: C_4  and  C_6
REMARK    5  A    between atoms: C_7  and  C_8
REMARK    6  A    between atoms: C_10  and  C_11
REMARK    7  A    between atoms: C_13  and  O_14
REMARK    8  A    between atoms: C_13  and  O_15
REMARK    9  A    between atoms: O_15  and  C_16
REMARK   10  A    between atoms: C_16  and  C_17
REMARK   11  A    between atoms: C_18  and  C_19
REMARK   12  A    between atoms: C_19  and  O_21
REMARK   13  A    between atoms: O_21  and  C_22
REMARK   14  A    between atoms: C_22  and  C_23
REMARK   15  A    between atoms: N_25  and  C_26
REMARK                            x       y       z     vdW  Elec       q    Type
REMARK                         _______ _______ _______ _____ _____    ______ ____
ROOT
ATOM      1  C   UNL     1       5.397   5.567  17.484  0.00  0.00    +0.000 C 
ATOM      2  C   UNL     1       6.224   4.808  18.230  0.00  0.00    +0.000 C 
ATOM      3  C   UNL     1       7.732   4.919  18.297  0.00  0.00    +0.000 C 
ATOM      4  N   UNL     1       5.770   3.798  19.045  0.00  0.00    +0.000 NA
ATOM      5  C   UNL     1       4.521   3.452  19.064  0.00  0.00    +0.000 C 
ATOM      6  C   UNL     1       4.211   2.238  19.919  0.00  0.00    +0.000 C 
ATOM      7  C   UNL     1       3.441   4.134  18.275  0.00  0.00    +0.000 C 
ATOM      8  C   UNL     1       2.189   3.638  18.151  0.00  0.00    +0.000 C 
ATOM      9  C   UNL     1       3.901   5.408  17.586  0.00  0.00    +0.000 C 
ENDROOT
BRANCH   1  10
ATOM     10  C   UNL     1       5.910   6.607  16.551  0.00  0.00    +0.000 C 
ATOM     11  O   UNL     1       6.470   7.640  16.878  0.00  0.00    +0.000 OA
BRANCH  10  12
ATOM     12  O   UNL     1       5.656   6.260  15.262  0.00  0.00    +0.000 OA
BRANCH  12  14
ATOM     13  C   UNL     1       5.681   4.109  14.120  0.00  0.00    +0.000 C 
ATOM     14  C   UNL     1       6.505   5.226  14.739  0.00  0.00    +0.000 C 
ENDBRANCH  12  14
ENDBRANCH  10  12
ENDBRANCH   1  10
BRANCH   8  15
ATOM     15  O   UNL     1       1.291   4.179  17.260  0.00  0.00    +0.000 OA
ATOM     16  H   UNL     1       0.384   4.079  17.624  0.00  0.00    +0.000 HD
ENDBRANCH   8  15
BRANCH   9  17
ATOM     17  C   UNL     1       3.366   6.604  18.390  0.00  0.00    +0.000 C 
ATOM     18  O   UNL     1       3.233   6.660  19.606  0.00  0.00    +0.000 OA
BRANCH  17  19
ATOM     19  O   UNL     1       2.956   7.602  17.544  0.00  0.00    +0.000 OA
BRANCH  19  20
ATOM     20  C   UNL     1       1.628   8.091  17.788  0.00  0.00    +0.000 C 
BRANCH  20  21
ATOM     21  C   UNL     1       1.678   9.609  18.001  0.00  0.00    +0.000 C 
ATOM     22  O   UNL     1       2.598  10.291  17.561  0.00  0.00    +0.000 OA
ATOM     23  N   UNL     1       0.655  10.174  18.732  0.00  0.00    +0.000 N 
ATOM     24  H   UNL     1      -0.146   9.603  18.988  0.00  0.00    +0.000 HD
BRANCH  23  25
ATOM     25  C   UNL     1       0.571  11.627  18.882  0.00  0.00    +0.000 C 
ATOM     26  C   UNL     1      -0.833  12.151  18.558  0.00  0.00    +0.000 C 
ATOM     27  C   UNL     1      -1.843  11.751  19.629  0.00  0.00    +0.000 C 
ATOM     28  C   UNL     1      -1.427  12.270  21.001  0.00  0.00    +0.000 C 
ATOM     29  C   UNL     1      -0.002  11.881  21.381  0.00  0.00    +0.000 C 
ATOM     30  C   UNL     1       1.022  12.094  20.267  0.00  0.00    +0.000 C 
ENDBRANCH  23  25
ENDBRANCH  20  21
ENDBRANCH  19  20
ENDBRANCH  17  19
ENDBRANCH   9  17
BRANCH   8  31
ATOM     31  O   UNL     1       1.784   2.502  18.816  0.00  0.00    +0.000 OA
BRANCH  31  32
ATOM     32  C   UNL     1       0.635   2.684  19.647  0.00  0.00    +0.000 C 
ATOM     33  C   UNL     1       1.012   3.684  20.726  0.00  0.00    +0.000 C 
ENDBRANCH  31  32
ENDBRANCH   8  31
TORSDOF 11
ENDMDL
MODEL 3
REMARK VINA RESULT:      -7.6      1.336      1.821
REMARK  Name = 
REMARK  15 active torsions:
REMARK  status: ('A' for Active; 'I' for Inactive)
REMARK    1  A    between atoms: C_1  and  C_2
REMARK    2  A    between atoms: C_2  and  O_3
REMARK    3  A    between atoms: O_3  and  C_4
REMARK    4  A    between atoms: C_4  and  C_6
REMARK    5  A    between atoms: C_7  and  C_8
REMARK    6  A    between atoms: C_10  and  C_11
REMARK    7  A    between atoms: C_13  and  O_14
REMARK    8  A    between atoms: C_13  and  O_15
REMARK    9  A    between atoms: O_15  and  C_16
REMARK   10  A    between atoms: C_16  and  C_17
REMARK   11  A    between atoms: C_18  and  C_19
REMARK   12  A    between atoms: C_19  and  O_21
REMARK   13  A    between atoms: O_21  and  C_22
REMARK   14  A    between atoms: C_22  and  C_23
REMARK   15  A    between atoms: N_25  and  C_26
REMARK                            x       y       z     vdW  Elec       q    Type
REMARK                         _______ _______ _______ _____ _____    ______ ____
ROOT
ATOM      1  C   UNL     1       5.295   5.507  17.415  0.00  0.00    +0.000 C 
ATOM      2  C   UNL     1       6.146   4.727  18.112  0.00  0.00    +0.000 C 
ATOM      3  C   UNL     1       7.655   4.847  18.146  0.00  0.00    +0.000 C 
ATOM      4  N   UNL     1       5.719   3.686  18.901  0.00  0.00    +0.000 NA
ATOM      5  C   UNL     1       4.473   3.330  18.938  0.00  0.00    +0.000 C 
ATOM      6  C   UNL     1       4.192   2.084  19.756  0.00  0.00    +0.000 C 
ATOM      7  C   UNL     1       3.369   4.032  18.202  0.00  0.00    +0.000 C 
ATOM      8  C   UNL     1       2.118   3.532  18.090  0.00  0.00    +0.000 C 
ATOM      9  C   UNL     1       3.804   5.333  17.547  0.00  0.00    +0.000 C 
ENDROOT
BRANCH   1  10
ATOM     10  C   UNL     1       5.779   6.584  16.508  0.00  0.00    +0.000 C 
ATOM     11  O   UNL     1       6.303   7.627  16.860  0.00  0.00    +0.000 OA
BRANCH  10  12
ATOM     12  O   UNL     1       5.542   6.257  15.209  0.00  0.00    +0.000 OA
BRANCH  12  14
ATOM     13  C   UNL     1       5.694   4.136  14.022  0.00  0.00    +0.000 C 
ATOM     14  C   UNL     1       6.451   5.292  14.657  0.00  0.00    +0.000 C 
ENDBRANCH  12  14
ENDBRANCH  10  12
ENDBRANCH   1  10
BRANCH   8  15
ATOM     15  O   UNL     1       1.195   4.098  17.241  0.00  0.00    +0.000 OA
ATOM     16  H   UNL     1       0.640   4.728  17.751  0.00  0.00    +0.000 HD
ENDBRANCH   8  15
BRANCH   9  17
ATOM     17  C   UNL     1       3.281   6.496  18.407  0.00  0.00    +0.000 C 
ATOM     18  O   UNL     1       3.588   6.735  19.569  0.00  0.00    +0.000 OA
BRANCH  17  19
ATOM     19  O   UNL     1       2.329   7.205  17.722  0.00  0.00    +0.000 OA
BRANCH  19  20
ATOM     20  C   UNL     1       2.484   8.632  17.778  0.00  0.00    +0.000 C 
BRANCH  20  21
ATOM     21  C   UNL     1       1.443   9.217  18.740  0.00  0.00    +0.000 C 
ATOM     22  O   UNL     1       1.178   8.676  19.809  0.00  0.00    +0.000 OA
ATOM     23  N   UNL     1       0.796  10.367  18.341  0.00  0.00    +0.000 N 
ATOM     24  H   UNL     1       1.114  10.850  17.506  0.00  0.00    +0.000 HD
BRANCH  23  25
ATOM     25  C   UNL     1      -0.125  11.048  19.251  0.00  0.00    +0.000 C 
ATOM     26  C   UNL     1       0.621  11.772  20.379  0.00  0.00    +0.000 C 
ATOM     27  C   UNL     1       1.377  12.991  19.860  0.00  0.00    +0.000 C 
ATOM     28  C   UNL     1       0.433  13.977  19.182  0.00  0.00    +0.000 C 
ATOM     29  C   UNL     1      -0.429  13.334  18.101  0.00  0.00    +0.000 C 
ATOM     30  C   UNL     1      -1.063  12.007  18.515  0.00  0.00    +0.000 C 
ENDBRANCH  23  25
ENDBRANCH  20  21
ENDBRANCH  19  20
ENDBRANCH  17  19
ENDBRANCH   9  17
BRANCH   8  31
ATOM     31  O   UNL     1       1.737   2.370  18.724  0.00  0.00    +0.000 OA
BRANCH  31  32
ATOM     32  C   UNL     1       0.559   2.494  19.524  0.00  0.00    +0.000 C 
ATOM     33  C   UNL     1       0.990   3.021  20.882  0.00  0.00    +0.000 C 
ENDBRANCH  31  32
ENDBRANCH   8  31
TORSDOF 11
ENDMDL
MODEL 4
REMARK VINA RESULT:      -7.3      1.222      1.789
REMARK  Name = 
REMARK  15 active torsions:
REMARK  status: ('A' for Active; 'I' for Inactive)
REMARK    1  A    between atoms: C_1  and  C_2
REMARK    2  A    between atoms: C_2  and  O_3
REMARK    3  A    between atoms: O_3  and  C_4
REMARK    4  A    between atoms: C_4  and  C_6
REMARK    5  A    between atoms: C_7  and  C_8
REMARK    6  A    between atoms: C_10  and  C_11
REMARK    7  A    between atoms: C_13  and  O_14
REMARK    8  A    between atoms: C_13  and  O_15
REMARK    9  A    between atoms: O_15  and  C_16
REMARK   10  A    between atoms: C_16  and  C_17
REMARK   11  A    between atoms: C_18  and  C_19
REMARK   12  A    between atoms: C_19  and  O_21
REMARK   13  A    between atoms: O_21  and  C_22
REMARK   14  A    between atoms: C_22  and  C_23
REMARK   15  A    between atoms: N_25  and  C_26
REMARK                            x       y       z     vdW  Elec       q    Type
REMARK                         _______ _______ _______ _____ _____    ______ ____
ROOT
ATOM      1  C   UNL     1       5.497   5.560  17.429  0.00  0.00    +0.000 C 
ATOM      2  C   UNL     1       6.270   4.995  18.378  0.00  0.00    +0.000 C 
ATOM      3  C   UNL     1       7.740   5.265  18.620  0.00  0.00    +0.000 C 
ATOM      4  N   UNL     1       5.790   4.063  19.267  0.00  0.00    +0.000 NA
ATOM      5  C   UNL     1       4.583   3.599  19.176  0.00  0.00    +0.000 C 
ATOM      6  C   UNL     1       4.256   2.485  20.154  0.00  0.00    +0.000 C 
ATOM      7  C   UNL     1       3.573   4.056  18.165  0.00  0.00    +0.000 C 
ATOM      8  C   UNL     1       2.396   3.425  17.956  0.00  0.00    +0.000 C 
ATOM      9  C   UNL     1       4.020   5.265  17.361  0.00  0.00    +0.000 C 
ENDROOT
BRANCH   1  10
ATOM     10  C   UNL     1       6.050   6.512  16.427  0.00  0.00    +0.000 C 
ATOM     11  O   UNL     1       6.582   7.580  16.680  0.00  0.00    +0.000 OA
BRANCH  10  12
ATOM     12  O   UNL     1       5.870   6.037  15.166  0.00  0.00    +0.000 OA
BRANCH  12  14
ATOM     13  C   UNL     1       6.032   3.923  13.967  0.00  0.00    +0.000 C 
ATOM     14  C   UNL     1       6.760   4.974  14.790  0.00  0.00    +0.000 C 
ENDBRANCH  12  14
ENDBRANCH  10  12
ENDBRANCH   1  10
BRANCH   8  15
ATOM     15  O   UNL     1       1.591   3.747  16.887  0.00  0.00    +0.000 OA
ATOM     16  H   UNL     1       0.850   3.104  16.843  0.00  0.00    +0.000 HD
ENDBRANCH   8  15
BRANCH   9  17
ATOM     17  C   UNL     1       3.281   6.499  17.905  0.00  0.00    +0.000 C 
ATOM     18  O   UNL     1       3.409   7.653  17.514  0.00  0.00    +0.000 OA
BRANCH  17  19
ATOM     19  O   UNL     1       2.503   6.154  18.979  0.00  0.00    +0.000 OA
BRANCH  19  20
ATOM     20  C   UNL     1       2.732   6.932  20.164  0.00  0.00    +0.000 C 
BRANCH  20  21
ATOM     21  C   UNL     1       1.441   7.668  20.544  0.00  0.00    +0.000 C 
ATOM     22  O   UNL     1       0.648   7.200  21.355  0.00  0.00    +0.000 OA
ATOM     23  N   UNL     1       1.195   8.870  19.915  0.00  0.00    +0.000 N 
ATOM     24  H   UNL     1       1.920   9.282  19.334  0.00  0.00    +0.000 HD
BRANCH  23  25
ATOM     25  C   UNL     1       0.045   9.685  20.306  0.00  0.00    +0.000 C 
ATOM     26  C   UNL     1       0.436  10.771  21.316  0.00  0.00    +0.000 C 
ATOM     27  C   UNL     1       1.283  11.862  20.669  0.00  0.00    +0.000 C 
ATOM     28  C   UNL     1       0.546  12.514  19.505  0.00  0.00    +0.000 C 
ATOM     29  C   UNL     1       0.030  11.506  18.483  0.00  0.00    +0.000 C 
ATOM     30  C   UNL     1      -0.670  10.295  19.099  0.00  0.00    +0.000 C 
ENDBRANCH  23  25
ENDBRANCH  20  21
ENDBRANCH  19  20
ENDBRANCH  17  19
ENDBRANCH   9  17
BRANCH   8  31
ATOM     31  O   UNL     1       1.996   2.353  18.723  0.00  0.00    +0.000 OA
BRANCH  31  32
ATOM     32  C   UNL     1       0.685   2.484  19.279  0.00  0.00    +0.000 C 
ATOM     33  C   UNL     1       0.781   3.468  20.432  0.00  0.00    +0.000 C 
ENDBRANCH  31  32
ENDBRANCH   8  31
TORSDOF 11
ENDMDL
MODEL 5
REMARK VINA RESULT:      -7.2      1.232      2.073
REMARK  Name = 
REMARK  15 active torsions:
REMARK  status: ('A' for Active; 'I' for Inactive)
REMARK    1  A    between atoms: C_1  and  C_2
REMARK    2  A    between atoms: C_2  and  O_3
REMARK    3  A    between atoms: O_3  and  C_4
REMARK    4  A    between atoms: C_4  and  C_6
REMARK    5  A    between atoms: C_7  and  C_8
REMARK    6  A    between atoms: C_10  and  C_11
REMARK    7  A    between atoms: C_13  and  O_14
REMARK    8  A    between atoms: C_13  and  O_15
REMARK    9  A    between atoms: O_15  and  C_16
REMARK   10  A    between atoms: C_16  and  C_17
REMARK   11  A    between atoms: C_18  and  C_19
REMARK   12  A    between atoms: C_19  and  O_21
REMARK   13  A    between atoms: O_21  and  C_22
REMARK   14  A    between atoms: C_22  and  C_23
REMARK   15  A    between atoms: N_25  and  C_26
REMARK                            x       y       z     vdW  Elec       q    Type
REMARK                         _______ _______ _______ _____ _____    ______ ____
ROOT
ATOM      1  C   UNL     1       5.578   5.639  17.623  0.00  0.00    +0.000 C 
ATOM      2  C   UNL     1       6.318   5.058  18.589  0.00  0.00    +0.000 C 
ATOM      3  C   UNL     1       7.765   5.359  18.917  0.00  0.00    +0.000 C 
ATOM      4  N   UNL     1       5.821   4.079  19.417  0.00  0.00    +0.000 NA
ATOM      5  C   UNL     1       4.635   3.586  19.246  0.00  0.00    +0.000 C 
ATOM      6  C   UNL     1       4.291   2.426  20.162  0.00  0.00    +0.000 C 
ATOM      7  C   UNL     1       3.663   4.055  18.201  0.00  0.00    +0.000 C 
ATOM      8  C   UNL     1       2.518   3.400  17.908  0.00  0.00    +0.000 C 
ATOM      9  C   UNL     1       4.115   5.306  17.467  0.00  0.00    +0.000 C 
ENDROOT
BRANCH   1  10
ATOM     10  C   UNL     1       6.153   6.644  16.688  0.00  0.00    +0.000 C 
ATOM     11  O   UNL     1       6.668   7.701  17.011  0.00  0.00    +0.000 OA
BRANCH  10  12
ATOM     12  O   UNL     1       6.014   6.232  15.400  0.00  0.00    +0.000 OA
BRANCH  12  14
ATOM     13  C   UNL     1       5.938   4.053  14.314  0.00  0.00    +0.000 C 
ATOM     14  C   UNL     1       6.789   5.074  15.051  0.00  0.00    +0.000 C 
ENDBRANCH  12  14
ENDBRANCH  10  12
ENDBRANCH   1  10
BRANCH   8  15
ATOM     15  O   UNL     1       1.760   3.742  16.811  0.00  0.00    +0.000 OA
ATOM     16  H   UNL     1       1.021   3.100  16.725  0.00  0.00    +0.000 HD
ENDBRANCH   8  15
BRANCH   9  17
ATOM     17  C   UNL     1       3.314   6.497  18.019  0.00  0.00    +0.000 C 
ATOM     18  O   UNL     1       2.845   7.422  17.366  0.00  0.00    +0.000 OA
BRANCH  17  19
ATOM     19  O   UNL     1       3.264   6.445  19.388  0.00  0.00    +0.000 OA
BRANCH  19  20
ATOM     20  C   UNL     1       1.939   6.459  19.943  0.00  0.00    +0.000 C 
BRANCH  20  21
ATOM     21  C   UNL     1       1.658   7.840  20.548  0.00  0.00    +0.000 C 
ATOM     22  O   UNL     1       1.759   8.047  21.754  0.00  0.00    +0.000 OA
ATOM     23  N   UNL     1       1.259   8.836  19.683  0.00  0.00    +0.000 N 
ATOM     24  H   UNL     1       1.291   8.664  18.681  0.00  0.00    +0.000 HD
BRANCH  23  25
ATOM     25  C   UNL     1       1.082  10.205  20.165  0.00  0.00    +0.000 C 
ATOM     26  C   UNL     1       1.448  11.238  19.092  0.00  0.00    +0.000 C 
ATOM     27  C   UNL     1       0.425  11.258  17.960  0.00  0.00    +0.000 C 
ATOM     28  C   UNL     1      -0.972  11.567  18.485  0.00  0.00    +0.000 C 
ATOM     29  C   UNL     1      -1.398  10.651  19.628  0.00  0.00    +0.000 C 
ATOM     30  C   UNL     1      -0.330  10.453  20.702  0.00  0.00    +0.000 C 
ENDBRANCH  23  25
ENDBRANCH  20  21
ENDBRANCH  19  20
ENDBRANCH  17  19
ENDBRANCH   9  17
BRANCH   8  31
ATOM     31  O   UNL     1       2.111   2.289  18.612  0.00  0.00    +0.000 OA
BRANCH  31  32
ATOM     32  C   UNL     1       0.742   2.320  19.023  0.00  0.00    +0.000 C 
ATOM     33  C   UNL     1       0.678   3.114  20.317  0.00  0.00    +0.000 C 
ENDBRANCH  31  32
ENDBRANCH   8  31
TORSDOF 11
ENDMDL
MODEL 6
REMARK VINA RESULT:      -7.2      1.379      2.036
REMARK  Name = 
REMARK  15 active torsions:
REMARK  status: ('A' for Active; 'I' for Inactive)
REMARK    1  A    between atoms: C_1  and  C_2
REMARK    2  A    between atoms: C_2  and  O_3
REMARK    3  A    between atoms: O_3  and  C_4
REMARK    4  A    between atoms: C_4  and  C_6
REMARK    5  A    between atoms: C_7  and  C_8
REMARK    6  A    between atoms: C_10  and  C_11
REMARK    7  A    between atoms: C_13  and  O_14
REMARK    8  A    between atoms: C_13  and  O_15
REMARK    9  A    between atoms: O_15  and  C_16
REMARK   10  A    between atoms: C_16  and  C_17
REMARK   11  A    between atoms: C_18  and  C_19
REMARK   12  A    between atoms: C_19  and  O_21
REMARK   13  A    between atoms: O_21  and  C_22
REMARK   14  A    between atoms: C_22  and  C_23
REMARK   15  A    between atoms: N_25  and  C_26
REMARK                            x       y       z     vdW  Elec       q    Type
REMARK                         _______ _______ _______ _____ _____    ______ ____
ROOT
ATOM      1  C   UNL     1       5.335   5.465  17.232  0.00  0.00    +0.000 C 
ATOM      2  C   UNL     1       6.178   4.645  17.894  0.00  0.00    +0.000 C 
ATOM      3  C   UNL     1       7.690   4.670  17.833  0.00  0.00    +0.000 C 
ATOM      4  N   UNL     1       5.736   3.647  18.729  0.00  0.00    +0.000 NA
ATOM      5  C   UNL     1       4.475   3.372  18.849  0.00  0.00    +0.000 C 
ATOM      6  C   UNL     1       4.169   2.161  19.710  0.00  0.00    +0.000 C 
ATOM      7  C   UNL     1       3.373   4.129  18.166  0.00  0.00    +0.000 C 
ATOM      8  C   UNL     1       2.089   3.707  18.142  0.00  0.00    +0.000 C 
ATOM      9  C   UNL     1       3.847   5.388  17.458  0.00  0.00    +0.000 C 
ENDROOT
BRANCH   1  10
ATOM     10  C   UNL     1       5.828   6.492  16.274  0.00  0.00    +0.000 C 
ATOM     11  O   UNL     1       5.275   6.819  15.237  0.00  0.00    +0.000 OA
BRANCH  10  12
ATOM     12  O   UNL     1       7.006   7.020  16.702  0.00  0.00    +0.000 OA
BRANCH  12  14
ATOM     13  C   UNL     1       8.242   8.704  17.953  0.00  0.00    +0.000 C 
ATOM     14  C   UNL     1       6.878   8.197  17.515  0.00  0.00    +0.000 C 
ENDBRANCH  12  14
ENDBRANCH  10  12
ENDBRANCH   1  10
BRANCH   8  15
ATOM     15  O   UNL     1       1.152   4.315  17.338  0.00  0.00    +0.000 OA
ATOM     16  H   UNL     1       0.258   4.004  17.603  0.00  0.00    +0.000 HD
ENDBRANCH   8  15
BRANCH   9  17
ATOM     17  C   UNL     1       3.452   6.597  18.322  0.00  0.00    +0.000 C 
ATOM     18  O   UNL     1       3.463   6.649  19.546  0.00  0.00    +0.000 OA
BRANCH  17  19
ATOM     19  O   UNL     1       2.982   7.614  17.532  0.00  0.00    +0.000 OA
BRANCH  19  20
ATOM     20  C   UNL     1       1.665   8.079  17.869  0.00  0.00    +0.000 C 
BRANCH  20  21
ATOM     21  C   UNL     1       1.696   9.602  18.048  0.00  0.00    +0.000 C 
ATOM     22  O   UNL     1       2.618  10.283  17.611  0.00  0.00    +0.000 OA
ATOM     23  N   UNL     1       0.654  10.173  18.747  0.00  0.00    +0.000 N 
ATOM     24  H   UNL     1      -0.146   9.599  19.000  0.00  0.00    +0.000 HD
BRANCH  23  25
ATOM     25  C   UNL     1       0.552  11.628  18.862  0.00  0.00    +0.000 C 
ATOM     26  C   UNL     1      -0.869  12.123  18.567  0.00  0.00    +0.000 C 
ATOM     27  C   UNL     1      -1.840  11.736  19.678  0.00  0.00    +0.000 C 
ATOM     28  C   UNL     1      -1.392  12.296  21.022  0.00  0.00    +0.000 C 
ATOM     29  C   UNL     1       0.049  11.938  21.370  0.00  0.00    +0.000 C 
ATOM     30  C   UNL     1       1.037  12.137  20.221  0.00  0.00    +0.000 C 
ENDBRANCH  23  25
ENDBRANCH  20  21
ENDBRANCH  19  20
ENDBRANCH  17  19
ENDBRANCH   9  17
BRANCH   8  31
ATOM     31  O   UNL     1       1.677   2.583  18.822  0.00  0.00    +0.000 OA
BRANCH  31  32
ATOM     32  C   UNL     1       0.567   2.798  19.697  0.00  0.00    +0.000 C 
ATOM     33  C   UNL     1       1.129   3.028  21.090  0.00  0.00    +0.000 C 
ENDBRANCH  31  32
ENDBRANCH   8  31
TORSDOF 11
ENDMDL
MODEL 7
REMARK VINA RESULT:      -7.1      1.670      2.473
REMARK  Name = 
REMARK  15 active torsions:
REMARK  status: ('A' for Active; 'I' for Inactive)
REMARK    1  A    between atoms: C_1  and  C_2
REMARK    2  A    between atoms: C_2  and  O_3
REMARK    3  A    between atoms: O_3  and  C_4
REMARK    4  A    between atoms: C_4  and  C_6
REMARK    5  A    between atoms: C_7  and  C_8
REMARK    6  A    between atoms: C_10  and  C_11
REMARK    7  A    between atoms: C_13  and  O_14
REMARK    8  A    between atoms: C_13  and  O_15
REMARK    9  A    between atoms: O_15  and  C_16
REMARK   10  A    between atoms: C_16  and  C_17
REMARK   11  A    between atoms: C_18  and  C_19
REMARK   12  A    between atoms: C_19  and  O_21
REMARK   13  A    between atoms: O_21  and  C_22
REMARK   14  A    between atoms: C_22  and  C_23
REMARK   15  A    between atoms: N_25  and  C_26
REMARK                            x       y       z     vdW  Elec       q    Type
REMARK                         _______ _______ _______ _____ _____    ______ ____
ROOT
ATOM      1  C   UNL     1       5.226   5.539  17.455  0.00  0.00    +0.000 C 
ATOM      2  C   UNL     1       6.053   4.615  17.985  0.00  0.00    +0.000 C 
ATOM      3  C   UNL     1       7.566   4.649  17.972  0.00  0.00    +0.000 C 
ATOM      4  N   UNL     1       5.592   3.486  18.620  0.00  0.00    +0.000 NA
ATOM      5  C   UNL     1       4.329   3.196  18.654  0.00  0.00    +0.000 C 
ATOM      6  C   UNL     1       4.004   1.852  19.279  0.00  0.00    +0.000 C 
ATOM      7  C   UNL     1       3.244   4.062  18.084  0.00  0.00    +0.000 C 
ATOM      8  C   UNL     1       1.963   3.652  17.950  0.00  0.00    +0.000 C 
ATOM      9  C   UNL     1       3.732   5.425  17.622  0.00  0.00    +0.000 C 
ENDROOT
BRANCH   1  10
ATOM     10  C   UNL     1       5.741   6.718  16.706  0.00  0.00    +0.000 C 
ATOM     11  O   UNL     1       5.659   6.886  15.501  0.00  0.00    +0.000 OA
BRANCH  10  12
ATOM     12  O   UNL     1       6.341   7.597  17.552  0.00  0.00    +0.000 OA
BRANCH  12  14
ATOM     13  C   UNL     1       8.207   9.081  18.049  0.00  0.00    +0.000 C 
ATOM     14  C   UNL     1       7.710   7.896  17.237  0.00  0.00    +0.000 C 
ENDBRANCH  12  14
ENDBRANCH  10  12
ENDBRANCH   1  10
BRANCH   8  15
ATOM     15  O   UNL     1       1.046   4.393  17.240  0.00  0.00    +0.000 OA
ATOM     16  H   UNL     1       0.789   5.176  17.774  0.00  0.00    +0.000 HD
ENDBRANCH   8  15
BRANCH   9  17
ATOM     17  C   UNL     1       3.308   6.464  18.674  0.00  0.00    +0.000 C 
ATOM     18  O   UNL     1       3.059   6.243  19.853  0.00  0.00    +0.000 OA
BRANCH  17  19
ATOM     19  O   UNL     1       3.149   7.694  18.091  0.00  0.00    +0.000 OA
BRANCH  19  20
ATOM     20  C   UNL     1       1.785   8.108  17.921  0.00  0.00    +0.000 C 
BRANCH  20  21
ATOM     21  C   UNL     1       1.400   9.065  19.056  0.00  0.00    +0.000 C 
ATOM     22  O   UNL     1       1.264   8.673  20.211  0.00  0.00    +0.000 OA
ATOM     23  N   UNL     1       1.185  10.385  18.719  0.00  0.00    +0.000 N 
ATOM     24  H   UNL     1       1.412  10.699  17.779  0.00  0.00    +0.000 HD
BRANCH  23  25
ATOM     25  C   UNL     1       0.927  11.379  19.760  0.00  0.00    +0.000 C 
ATOM     26  C   UNL     1       1.776  12.642  19.564  0.00  0.00    +0.000 C 
ATOM     27  C   UNL     1       1.311  13.448  18.354  0.00  0.00    +0.000 C 
ATOM     28  C   UNL     1      -0.151  13.854  18.491  0.00  0.00    +0.000 C 
ATOM     29  C   UNL     1      -1.075  12.675  18.784  0.00  0.00    +0.000 C 
ATOM     30  C   UNL     1      -0.558  11.732  19.869  0.00  0.00    +0.000 C 
ENDBRANCH  23  25
ENDBRANCH  20  21
ENDBRANCH  19  20
ENDBRANCH  17  19
ENDBRANCH   9  17
BRANCH   8  31
ATOM     31  O   UNL     1       1.536   2.426  18.411  0.00  0.00    +0.000 OA
BRANCH  31  32
ATOM     32  C   UNL     1       0.443   2.490  19.330  0.00  0.00    +0.000 C 
ATOM     33  C   UNL     1       0.939   3.214  20.570  0.00  0.00    +0.000 C 
ENDBRANCH  31  32
ENDBRANCH   8  31
TORSDOF 11
ENDMDL
MODEL 8
REMARK VINA RESULT:      -7.1      1.930      7.492
REMARK  Name = 
REMARK  15 active torsions:
REMARK  status: ('A' for Active; 'I' for Inactive)
REMARK    1  A    between atoms: C_1  and  C_2
REMARK    2  A    between atoms: C_2  and  O_3
REMARK    3  A    between atoms: O_3  and  C_4
REMARK    4  A    between atoms: C_4  and  C_6
REMARK    5  A    between atoms: C_7  and  C_8
REMARK    6  A    between atoms: C_10  and  C_11
REMARK    7  A    between atoms: C_13  and  O_14
REMARK    8  A    between atoms: C_13  and  O_15
REMARK    9  A    between atoms: O_15  and  C_16
REMARK   10  A    between atoms: C_16  and  C_17
REMARK   11  A    between atoms: C_18  and  C_19
REMARK   12  A    between atoms: C_19  and  O_21
REMARK   13  A    between atoms: O_21  and  C_22
REMARK   14  A    between atoms: C_22  and  C_23
REMARK   15  A    between atoms: N_25  and  C_26
REMARK                            x       y       z     vdW  Elec       q    Type
REMARK                         _______ _______ _______ _____ _____    ______ ____
ROOT
ATOM      1  C   UNL     1       2.190   4.880  18.859  0.00  0.00    +0.000 C 
ATOM      2  C   UNL     1       1.712   4.778  20.117  0.00  0.00    +0.000 C 
ATOM      3  C   UNL     1       1.363   3.498  20.846  0.00  0.00    +0.000 C 
ATOM      4  N   UNL     1       1.474   5.875  20.910  0.00  0.00    +0.000 NA
ATOM      5  C   UNL     1       1.600   7.081  20.453  0.00  0.00    +0.000 C 
ATOM      6  C   UNL     1       1.174   8.173  21.417  0.00  0.00    +0.000 C 
ATOM      7  C   UNL     1       2.072   7.419  19.069  0.00  0.00    +0.000 C 
ATOM      8  C   UNL     1       2.006   8.664  18.547  0.00  0.00    +0.000 C 
ATOM      9  C   UNL     1       2.584   6.219  18.290  0.00  0.00    +0.000 C 
ENDROOT
BRANCH   1  10
ATOM     10  C   UNL     1       2.372   3.687  17.988  0.00  0.00    +0.000 C 
ATOM     11  O   UNL     1       1.508   3.171  17.299  0.00  0.00    +0.000 OA
BRANCH  10  12
ATOM     12  O   UNL     1       3.648   3.224  18.072  0.00  0.00    +0.000 OA
BRANCH  12  14
ATOM     13  C   UNL     1       4.467   2.027  20.029  0.00  0.00    +0.000 C 
ATOM     14  C   UNL     1       3.779   1.927  18.677  0.00  0.00    +0.000 C 
ENDBRANCH  12  14
ENDBRANCH  10  12
ENDBRANCH   1  10
BRANCH   8  15
ATOM     15  O   UNL     1       2.255   8.894  17.213  0.00  0.00    +0.000 OA
ATOM     16  H   UNL     1       2.675   8.094  16.827  0.00  0.00    +0.000 HD
ENDBRANCH   8  15
BRANCH   9  17
ATOM     17  C   UNL     1       4.120   6.277  18.279  0.00  0.00    +0.000 C 
ATOM     18  O   UNL     1       4.868   5.891  19.170  0.00  0.00    +0.000 OA
BRANCH  17  19
ATOM     19  O   UNL     1       4.565   6.919  17.153  0.00  0.00    +0.000 OA
BRANCH  19  20
ATOM     20  C   UNL     1       5.954   7.283  17.176  0.00  0.00    +0.000 C 
BRANCH  20  21
ATOM     21  C   UNL     1       6.792   6.120  16.631  0.00  0.00    +0.000 C 
ATOM     22  O   UNL     1       7.639   5.558  17.319  0.00  0.00    +0.000 OA
ATOM     23  N   UNL     1       6.572   5.747  15.322  0.00  0.00    +0.000 N 
ATOM     24  H   UNL     1       5.791   6.155  14.815  0.00  0.00    +0.000 HD
BRANCH  23  25
ATOM     25  C   UNL     1       7.249   4.575  14.765  0.00  0.00    +0.000 C 
ATOM     26  C   UNL     1       6.261   3.445  14.450  0.00  0.00    +0.000 C 
ATOM     27  C   UNL     1       5.377   3.790  13.256  0.00  0.00    +0.000 C 
ATOM     28  C   UNL     1       6.213   4.074  12.013  0.00  0.00    +0.000 C 
ATOM     29  C   UNL     1       7.295   5.124  12.248  0.00  0.00    +0.000 C 
ATOM     30  C   UNL     1       8.092   4.923  13.536  0.00  0.00    +0.000 C 
ENDBRANCH  23  25
ENDBRANCH  20  21
ENDBRANCH  19  20
ENDBRANCH  17  19
ENDBRANCH   9  17
BRANCH   8  31
ATOM     31  O   UNL     1       1.573   9.744  19.285  0.00  0.00    +0.000 OA
BRANCH  31  32
ATOM     32  C   UNL     1       0.957  10.777  18.512  0.00  0.00    +0.000 C 
ATOM     33  C   UNL     1      -0.506  10.830  18.917  0.00  0.00    +0.000 C 
ENDBRANCH  31  32
ENDBRANCH   8  31
TORSDOF 11
ENDMDL
MODEL 9
REMARK VINA RESULT:      -7.0      3.244      8.930
REMARK  Name = 
REMARK  15 active torsions:
REMARK  status: ('A' for Active; 'I' for Inactive)
REMARK    1  A    between atoms: C_1  and  C_2
REMARK    2  A    between atoms: C_2  and  O_3
REMARK    3  A    between atoms: O_3  and  C_4
REMARK    4  A    between atoms: C_4  and  C_6
REMARK    5  A    between atoms: C_7  and  C_8
REMARK    6  A    between atoms: C_10  and  C_11
REMARK    7  A    between atoms: C_13  and  O_14
REMARK    8  A    between atoms: C_13  and  O_15
REMARK    9  A    between atoms: O_15  and  C_16
REMARK   10  A    between atoms: C_16  and  C_17
REMARK   11  A    between atoms: C_18  and  C_19
REMARK   12  A    between atoms: C_19  and  O_21
REMARK   13  A    between atoms: O_21  and  C_22
REMARK   14  A    between atoms: C_22  and  C_23
REMARK   15  A    between atoms: N_25  and  C_26
REMARK                            x       y       z     vdW  Elec       q    Type
REMARK                         _______ _______ _______ _____ _____    ______ ____
ROOT
ATOM      1  C   UNL     1      -1.838  11.101  18.364  0.00  0.00    +0.000 C 
ATOM      2  C   UNL     1      -2.494  12.025  19.096  0.00  0.00    +0.000 C 
ATOM      3  C   UNL     1      -3.994  12.147  19.256  0.00  0.00    +0.000 C 
ATOM      4  N   UNL     1      -1.843  13.005  19.806  0.00  0.00    +0.000 NA
ATOM      5  C   UNL     1      -0.558  13.159  19.729  0.00  0.00    +0.000 C 
ATOM      6  C   UNL     1      -0.017  14.366  20.472  0.00  0.00    +0.000 C 
ATOM      7  C   UNL     1       0.355  12.271  18.934  0.00  0.00    +0.000 C 
ATOM      8  C   UNL     1       1.655  12.563  18.703  0.00  0.00    +0.000 C 
ATOM      9  C   UNL     1      -0.332  11.039  18.369  0.00  0.00    +0.000 C 
ENDROOT
BRANCH   1  10
ATOM     10  C   UNL     1      -2.561  10.092  17.542  0.00  0.00    +0.000 C 
ATOM     11  O   UNL     1      -3.363   9.276  17.963  0.00  0.00    +0.000 OA
BRANCH  10  12
ATOM     12  O   UNL     1      -2.192  10.186  16.236  0.00  0.00    +0.000 OA
BRANCH  12  14
ATOM     13  C   UNL     1      -3.545  10.040  14.216  0.00  0.00    +0.000 C 
ATOM     14  C   UNL     1      -3.119  10.895  15.399  0.00  0.00    +0.000 C 
ENDBRANCH  12  14
ENDBRANCH  10  12
ENDBRANCH   1  10
BRANCH   8  15
ATOM     15  O   UNL     1       2.402  11.835  17.805  0.00  0.00    +0.000 OA
ATOM     16  H   UNL     1       3.017  11.253  18.303  0.00  0.00    +0.000 HD
ENDBRANCH   8  15
BRANCH   9  17
ATOM     17  C   UNL     1       0.074   9.831  19.228  0.00  0.00    +0.000 C 
ATOM     18  O   UNL     1      -0.300   9.594  20.371  0.00  0.00    +0.000 OA
BRANCH  17  19
ATOM     19  O   UNL     1       1.008   9.072  18.573  0.00  0.00    +0.000 OA
BRANCH  19  20
ATOM     20  C   UNL     1       1.949   8.404  19.428  0.00  0.00    +0.000 C 
BRANCH  20  21
ATOM     21  C   UNL     1       2.556   7.211  18.679  0.00  0.00    +0.000 C 
ATOM     22  O   UNL     1       3.287   7.365  17.705  0.00  0.00    +0.000 OA
ATOM     23  N   UNL     1       2.224   5.951  19.131  0.00  0.00    +0.000 N 
ATOM     24  H   UNL     1       1.709   5.858  20.002  0.00  0.00    +0.000 HD
BRANCH  23  25
ATOM     25  C   UNL     1       2.852   4.768  18.543  0.00  0.00    +0.000 C 
ATOM     26  C   UNL     1       3.636   3.963  19.586  0.00  0.00    +0.000 C 
ATOM     27  C   UNL     1       2.706   3.265  20.573  0.00  0.00    +0.000 C 
ATOM     28  C   UNL     1       1.741   2.330  19.854  0.00  0.00    +0.000 C 
ATOM     29  C   UNL     1       0.973   3.014  18.727  0.00  0.00    +0.000 C 
ATOM     30  C   UNL     1       1.842   3.879  17.814  0.00  0.00    +0.000 C 
ENDBRANCH  23  25
ENDBRANCH  20  21
ENDBRANCH  19  20
ENDBRANCH  17  19
ENDBRANCH   9  17
BRANCH   8  31
ATOM     31  O   UNL     1       2.266  13.666  19.257  0.00  0.00    +0.000 OA
BRANCH  31  32
ATOM     32  C   UNL     1       3.042  14.435  18.335  0.00  0.00    +0.000 C 
ATOM     33  C   UNL     1       3.117  15.851  18.880  0.00  0.00    +0.000 C 
ENDBRANCH  31  32
ENDBRANCH   8  31
TORSDOF 11
ENDMDL
