MODEL 1
REMARK VINA RESULT:      -6.6      0.000      0.000
REMARK  Name = 
REMARK  4 active torsions:
REMARK  status: ('A' for Active; 'I' for Inactive)
REMARK    1  A    between atoms: C_4  and  N_5
REMARK    2  A    between atoms: N_5  and  C_6
REMARK    3  A    between atoms: C_6  and  C_7
REMARK    4  A    between atoms: C_7  and  O_8
REMARK                            x       y       z     vdW  Elec       q    Type
REMARK                         _______ _______ _______ _____ _____    ______ ____
ROOT
ATOM      1  O   UNL     1       0.838   4.180  17.168  0.00  0.00    +0.000 OA
ATOM      2  C   UNL     1       1.924   3.922  17.667  0.00  0.00    +0.000 C 
ATOM      3  C   UNL     1       3.140   3.964  16.844  0.00  0.00    +0.000 C 
ATOM      4  C   UNL     1       4.371   3.728  17.333  0.00  0.00    +0.000 C 
ATOM      5  C   UNL     1       4.552   3.472  18.800  0.00  0.00    +0.000 C 
ATOM      6  O   UNL     1       5.672   3.400  19.300  0.00  0.00    +0.000 OA
ATOM      7  C   UNL     1       3.323   3.351  19.638  0.00  0.00    +0.000 A 
ATOM      8  C   UNL     1       3.423   3.017  20.998  0.00  0.00    +0.000 A 
ATOM      9  C   UNL     1       2.265   2.835  21.762  0.00  0.00    +0.000 A 
ATOM     10  C   UNL     1       1.007   2.995  21.184  0.00  0.00    +0.000 A 
ATOM     11  C   UNL     1       0.901   3.357  19.844  0.00  0.00    +0.000 A 
ATOM     12  C   UNL     1       2.059   3.537  19.077  0.00  0.00    +0.000 A 
ENDROOT
BRANCH   4  13
ATOM     13  N   UNL     1       5.487   3.694  16.520  0.00  0.00    +0.000 N 
ATOM     14  H   UNL     1       6.027   2.827  16.574  0.00  0.00    +0.000 HD
BRANCH  13  15
ATOM     15  C   UNL     1       6.200   4.861  16.000  0.00  0.00    +0.000 C 
BRANCH  15  16
ATOM     16  C   UNL     1       7.400   5.279  16.864  0.00  0.00    +0.000 C 
BRANCH  16  17
ATOM     17  O   UNL     1       8.049   4.142  17.429  0.00  0.00    +0.000 OA
ATOM     18  H   UNL     1       7.835   3.389  16.855  0.00  0.00    +0.000 HD
ENDBRANCH  16  17
ENDBRANCH  15  16
ENDBRANCH  13  15
ENDBRANCH   4  13
TORSDOF 4
ENDMDL
MODEL 2
REMARK VINA RESULT:      -6.5      0.981      1.081
REMARK  Name = 
REMARK  4 active torsions:
REMARK  status: ('A' for Active; 'I' for Inactive)
REMARK    1  A    between atoms: C_4  and  N_5
REMARK    2  A    between atoms: N_5  and  C_6
REMARK    3  A    between atoms: C_6  and  C_7
REMARK    4  A    between atoms: C_7  and  O_8
REMARK                            x       y       z     vdW  Elec       q    Type
REMARK                         _______ _______ _______ _____ _____    ______ ____
ROOT
ATOM      1  O   UNL     1       0.863   4.188  17.142  0.00  0.00    +0.000 OA
ATOM      2  C   UNL     1       1.945   3.980  17.671  0.00  0.00    +0.000 C 
ATOM      3  C   UNL     1       3.185   4.146  16.900  0.00  0.00    +0.000 C 
ATOM      4  C   UNL     1       4.411   3.970  17.426  0.00  0.00    +0.000 C 
ATOM      5  C   UNL     1       4.556   3.655  18.885  0.00  0.00    +0.000 C 
ATOM      6  O   UNL     1       5.659   3.635  19.425  0.00  0.00    +0.000 OA
ATOM      7  C   UNL     1       3.309   3.409  19.668  0.00  0.00    +0.000 A 
ATOM      8  C   UNL     1       3.382   3.016  21.013  0.00  0.00    +0.000 A 
ATOM      9  C   UNL     1       2.213   2.718  21.722  0.00  0.00    +0.000 A 
ATOM     10  C   UNL     1       0.969   2.821  21.102  0.00  0.00    +0.000 A 
ATOM     11  C   UNL     1       0.887   3.241  19.778  0.00  0.00    +0.000 A 
ATOM     12  C   UNL     1       2.056   3.536  19.066  0.00  0.00    +0.000 A 
ENDROOT
BRANCH   4  13
ATOM     13  N   UNL     1       5.555   4.052  16.657  0.00  0.00    +0.000 N 
ATOM     14  H   UNL     1       6.401   3.707  17.115  0.00  0.00    +0.000 HD
BRANCH  13  15
ATOM     15  C   UNL     1       5.762   4.961  15.529  0.00  0.00    +0.000 C 
BRANCH  15  16
ATOM     16  C   UNL     1       6.839   4.479  14.545  0.00  0.00    +0.000 C 
BRANCH  16  17
ATOM     17  O   UNL     1       7.825   5.485  14.326  0.00  0.00    +0.000 OA
ATOM     18  H   UNL     1       8.570   5.049  13.883  0.00  0.00    +0.000 HD
ENDBRANCH  16  17
ENDBRANCH  15  16
ENDBRANCH  13  15
ENDBRANCH   4  13
TORSDOF 4
ENDMDL
MODEL 3
REMARK VINA RESULT:      -6.3      2.022      2.239
REMARK  Name = 
REMARK  4 active torsions:
REMARK  status: ('A' for Active; 'I' for Inactive)
REMARK    1  A    between atoms: C_4  and  N_5
REMARK    2  A    between atoms: N_5  and  C_6
REMARK    3  A    between atoms: C_6  and  C_7
REMARK    4  A    between atoms: C_7  and  O_8
REMARK                            x       y       z     vdW  Elec       q    Type
REMARK                         _______ _______ _______ _____ _____    ______ ____
ROOT
ATOM      1  O   UNL     1       2.754   2.022  17.653  0.00  0.00    +0.000 OA
ATOM      2  C   UNL     1       3.122   3.187  17.702  0.00  0.00    +0.000 C 
ATOM      3  C   UNL     1       4.122   3.682  16.746  0.00  0.00    +0.000 C 
ATOM      4  C   UNL     1       4.547   4.958  16.715  0.00  0.00    +0.000 C 
ATOM      5  C   UNL     1       3.940   5.966  17.646  0.00  0.00    +0.000 C 
ATOM      6  O   UNL     1       4.197   7.163  17.544  0.00  0.00    +0.000 OA
ATOM      7  C   UNL     1       2.978   5.468  18.674  0.00  0.00    +0.000 A 
ATOM      8  C   UNL     1       2.450   6.345  19.634  0.00  0.00    +0.000 A 
ATOM      9  C   UNL     1       1.605   5.860  20.638  0.00  0.00    +0.000 A 
ATOM     10  C   UNL     1       1.272   4.507  20.685  0.00  0.00    +0.000 A 
ATOM     11  C   UNL     1       1.766   3.638  19.717  0.00  0.00    +0.000 A 
ATOM     12  C   UNL     1       2.615   4.121  18.713  0.00  0.00    +0.000 A 
ENDROOT
BRANCH   4  13
ATOM     13  N   UNL     1       5.548   5.376  15.861  0.00  0.00    +0.000 N 
ATOM     14  H   UNL     1       5.270   5.441  14.879  0.00  0.00    +0.000 HD
BRANCH  13  15
ATOM     15  C   UNL     1       6.986   5.271  16.115  0.00  0.00    +0.000 C 
BRANCH  15  16
ATOM     16  C   UNL     1       7.328   5.015  17.590  0.00  0.00    +0.000 C 
BRANCH  16  17
ATOM     17  O   UNL     1       8.332   4.010  17.720  0.00  0.00    +0.000 OA
ATOM     18  H   UNL     1       8.707   3.880  16.835  0.00  0.00    +0.000 HD
ENDBRANCH  16  17
ENDBRANCH  15  16
ENDBRANCH  13  15
ENDBRANCH   4  13
TORSDOF 4
ENDMDL
MODEL 4
REMARK VINA RESULT:      -6.3      1.978      5.685
REMARK  Name = 
REMARK  4 active torsions:
REMARK  status: ('A' for Active; 'I' for Inactive)
REMARK    1  A    between atoms: C_4  and  N_5
REMARK    2  A    between atoms: N_5  and  C_6
REMARK    3  A    between atoms: C_6  and  C_7
REMARK    4  A    between atoms: C_7  and  O_8
REMARK                            x       y       z     vdW  Elec       q    Type
REMARK                         _______ _______ _______ _____ _____    ______ ____
ROOT
ATOM      1  O   UNL     1       6.382   5.334  19.797  0.00  0.00    +0.000 OA
ATOM      2  C   UNL     1       5.525   4.872  19.058  0.00  0.00    +0.000 C 
ATOM      3  C   UNL     1       4.202   4.523  19.594  0.00  0.00    +0.000 C 
ATOM      4  C   UNL     1       3.200   4.046  18.834  0.00  0.00    +0.000 C 
ATOM      5  C   UNL     1       3.387   3.916  17.352  0.00  0.00    +0.000 C 
ATOM      6  O   UNL     1       2.449   3.625  16.614  0.00  0.00    +0.000 OA
ATOM      7  C   UNL     1       4.746   4.193  16.799  0.00  0.00    +0.000 A 
ATOM      8  C   UNL     1       5.010   3.996  15.435  0.00  0.00    +0.000 A 
ATOM      9  C   UNL     1       6.303   4.191  14.935  0.00  0.00    +0.000 A 
ATOM     10  C   UNL     1       7.333   4.592  15.784  0.00  0.00    +0.000 A 
ATOM     11  C   UNL     1       7.071   4.820  17.132  0.00  0.00    +0.000 A 
ATOM     12  C   UNL     1       5.778   4.623  17.634  0.00  0.00    +0.000 A 
ENDROOT
BRANCH   4  13
ATOM     13  N   UNL     1       1.994   3.648  19.378  0.00  0.00    +0.000 N 
ATOM     14  H   UNL     1       1.272   3.420  18.692  0.00  0.00    +0.000 HD
BRANCH  13  15
ATOM     15  C   UNL     1       1.521   3.966  20.727  0.00  0.00    +0.000 C 
BRANCH  15  16
ATOM     16  C   UNL     1       1.492   2.750  21.666  0.00  0.00    +0.000 C 
BRANCH  16  17
ATOM     17  O   UNL     1       2.808   2.383  22.074  0.00  0.00    +0.000 OA
ATOM     18  H   UNL     1       2.831   2.471  23.040  0.00  0.00    +0.000 HD
ENDBRANCH  16  17
ENDBRANCH  15  16
ENDBRANCH  13  15
ENDBRANCH   4  13
TORSDOF 4
ENDMDL
MODEL 5
REMARK VINA RESULT:      -6.2      2.033      2.382
REMARK  Name = 
REMARK  4 active torsions:
REMARK  status: ('A' for Active; 'I' for Inactive)
REMARK    1  A    between atoms: C_4  and  N_5
REMARK    2  A    between atoms: N_5  and  C_6
REMARK    3  A    between atoms: C_6  and  C_7
REMARK    4  A    between atoms: C_7  and  O_8
REMARK                            x       y       z     vdW  Elec       q    Type
REMARK                         _______ _______ _______ _____ _____    ______ ____
ROOT
ATOM      1  O   UNL     1       2.160   6.783  20.044  0.00  0.00    +0.000 OA
ATOM      2  C   UNL     1       2.684   6.057  19.212  0.00  0.00    +0.000 C 
ATOM      3  C   UNL     1       3.753   6.579  18.350  0.00  0.00    +0.000 C 
ATOM      4  C   UNL     1       4.400   5.829  17.440  0.00  0.00    +0.000 C 
ATOM      5  C   UNL     1       4.085   4.368  17.321  0.00  0.00    +0.000 C 
ATOM      6  O   UNL     1       4.757   3.627  16.607  0.00  0.00    +0.000 OA
ATOM      7  C   UNL     1       2.952   3.835  18.134  0.00  0.00    +0.000 A 
ATOM      8  C   UNL     1       2.546   2.499  17.995  0.00  0.00    +0.000 A 
ATOM      9  C   UNL     1       1.439   2.024  18.707  0.00  0.00    +0.000 A 
ATOM     10  C   UNL     1       0.740   2.869  19.567  0.00  0.00    +0.000 A 
ATOM     11  C   UNL     1       1.156   4.187  19.733  0.00  0.00    +0.000 A 
ATOM     12  C   UNL     1       2.262   4.665  19.019  0.00  0.00    +0.000 A 
ENDROOT
BRANCH   4  13
ATOM     13  N   UNL     1       5.343   6.367  16.586  0.00  0.00    +0.000 N 
ATOM     14  H   UNL     1       5.161   6.203  15.593  0.00  0.00    +0.000 HD
BRANCH  13  15
ATOM     15  C   UNL     1       6.725   6.695  16.939  0.00  0.00    +0.000 C 
BRANCH  15  16
ATOM     16  C   UNL     1       7.395   5.639  17.830  0.00  0.00    +0.000 C 
BRANCH  16  17
ATOM     17  O   UNL     1       7.793   4.500  17.070  0.00  0.00    +0.000 OA
ATOM     18  H   UNL     1       7.834   3.755  17.691  0.00  0.00    +0.000 HD
ENDBRANCH  16  17
ENDBRANCH  15  16
ENDBRANCH  13  15
ENDBRANCH   4  13
TORSDOF 4
ENDMDL
MODEL 6
REMARK VINA RESULT:      -6.1      2.234      2.549
REMARK  Name = 
REMARK  4 active torsions:
REMARK  status: ('A' for Active; 'I' for Inactive)
REMARK    1  A    between atoms: C_4  and  N_5
REMARK    2  A    between atoms: N_5  and  C_6
REMARK    3  A    between atoms: C_6  and  C_7
REMARK    4  A    between atoms: C_7  and  O_8
REMARK                            x       y       z     vdW  Elec       q    Type
REMARK                         _______ _______ _______ _____ _____    ______ ____
ROOT
ATOM      1  O   UNL     1       3.414   1.774  17.786  0.00  0.00    +0.000 OA
ATOM      2  C   UNL     1       3.560   2.987  17.833  0.00  0.00    +0.000 C 
ATOM      3  C   UNL     1       4.473   3.653  16.894  0.00  0.00    +0.000 C 
ATOM      4  C   UNL     1       4.656   4.986  16.862  0.00  0.00    +0.000 C 
ATOM      5  C   UNL     1       3.854   5.869  17.771  0.00  0.00    +0.000 C 
ATOM      6  O   UNL     1       3.889   7.092  17.665  0.00  0.00    +0.000 OA
ATOM      7  C   UNL     1       2.977   5.207  18.783  0.00  0.00    +0.000 A 
ATOM      8  C   UNL     1       2.276   5.976  19.724  0.00  0.00    +0.000 A 
ATOM      9  C   UNL     1       1.512   5.348  20.714  0.00  0.00    +0.000 A 
ATOM     10  C   UNL     1       1.432   3.957  20.765  0.00  0.00    +0.000 A 
ATOM     11  C   UNL     1       2.100   3.189  19.815  0.00  0.00    +0.000 A 
ATOM     12  C   UNL     1       2.868   3.816  18.826  0.00  0.00    +0.000 A 
ENDROOT
BRANCH   4  13
ATOM     13  N   UNL     1       5.582   5.578  16.025  0.00  0.00    +0.000 N 
ATOM     14  H   UNL     1       5.205   6.318  15.430  0.00  0.00    +0.000 HD
BRANCH  13  15
ATOM     15  C   UNL     1       6.839   4.973  15.580  0.00  0.00    +0.000 C 
BRANCH  15  16
ATOM     16  C   UNL     1       6.867   4.661  14.077  0.00  0.00    +0.000 C 
BRANCH  16  17
ATOM     17  O   UNL     1       6.320   3.372  13.807  0.00  0.00    +0.000 OA
ATOM     18  H   UNL     1       6.088   3.363  12.865  0.00  0.00    +0.000 HD
ENDBRANCH  16  17
ENDBRANCH  15  16
ENDBRANCH  13  15
ENDBRANCH   4  13
TORSDOF 4
ENDMDL
MODEL 7
REMARK VINA RESULT:      -6.1      2.054      2.383
REMARK  Name = 
REMARK  4 active torsions:
REMARK  status: ('A' for Active; 'I' for Inactive)
REMARK    1  A    between atoms: C_4  and  N_5
REMARK    2  A    between atoms: N_5  and  C_6
REMARK    3  A    between atoms: C_6  and  C_7
REMARK    4  A    between atoms: C_7  and  O_8
REMARK                            x       y       z     vdW  Elec       q    Type
REMARK                         _______ _______ _______ _____ _____    ______ ____
ROOT
ATOM      1  O   UNL     1       3.495   1.572  17.847  0.00  0.00    +0.000 OA
ATOM      2  C   UNL     1       3.577   2.791  17.887  0.00  0.00    +0.000 C 
ATOM      3  C   UNL     1       4.457   3.500  16.948  0.00  0.00    +0.000 C 
ATOM      4  C   UNL     1       4.569   4.840  16.908  0.00  0.00    +0.000 C 
ATOM      5  C   UNL     1       3.716   5.684  17.808  0.00  0.00    +0.000 C 
ATOM      6  O   UNL     1       3.686   6.907  17.694  0.00  0.00    +0.000 OA
ATOM      7  C   UNL     1       2.872   4.983  18.820  0.00  0.00    +0.000 A 
ATOM      8  C   UNL     1       2.126   5.719  19.754  0.00  0.00    +0.000 A 
ATOM      9  C   UNL     1       1.392   5.057  20.745  0.00  0.00    +0.000 A 
ATOM     10  C   UNL     1       1.387   3.664  20.804  0.00  0.00    +0.000 A 
ATOM     11  C   UNL     1       2.099   2.927  19.862  0.00  0.00    +0.000 A 
ATOM     12  C   UNL     1       2.836   3.589  18.872  0.00  0.00    +0.000 A 
ENDROOT
BRANCH   4  13
ATOM     13  N   UNL     1       5.465   5.475  16.072  0.00  0.00    +0.000 N 
ATOM     14  H   UNL     1       5.157   5.557  15.100  0.00  0.00    +0.000 HD
BRANCH  13  15
ATOM     15  C   UNL     1       6.906   5.595  16.299  0.00  0.00    +0.000 C 
BRANCH  15  16
ATOM     16  C   UNL     1       7.264   6.509  17.481  0.00  0.00    +0.000 C 
BRANCH  16  17
ATOM     17  O   UNL     1       7.734   7.777  17.029  0.00  0.00    +0.000 OA
ATOM     18  H   UNL     1       7.819   8.336  17.817  0.00  0.00    +0.000 HD
ENDBRANCH  16  17
ENDBRANCH  15  16
ENDBRANCH  13  15
ENDBRANCH   4  13
TORSDOF 4
ENDMDL
MODEL 8
REMARK VINA RESULT:      -6.0      2.539      5.388
REMARK  Name = 
REMARK  4 active torsions:
REMARK  status: ('A' for Active; 'I' for Inactive)
REMARK    1  A    between atoms: C_4  and  N_5
REMARK    2  A    between atoms: N_5  and  C_6
REMARK    3  A    between atoms: C_6  and  C_7
REMARK    4  A    between atoms: C_7  and  O_8
REMARK                            x       y       z     vdW  Elec       q    Type
REMARK                         _______ _______ _______ _____ _____    ______ ____
ROOT
ATOM      1  O   UNL     1       3.459   7.743  17.695  0.00  0.00    +0.000 OA
ATOM      2  C   UNL     1       3.440   6.521  17.679  0.00  0.00    +0.000 C 
ATOM      3  C   UNL     1       2.367   5.793  18.370  0.00  0.00    +0.000 C 
ATOM      4  C   UNL     1       2.260   4.452  18.362  0.00  0.00    +0.000 C 
ATOM      5  C   UNL     1       3.231   3.633  17.563  0.00  0.00    +0.000 C 
ATOM      6  O   UNL     1       3.074   2.424  17.416  0.00  0.00    +0.000 OA
ATOM      7  C   UNL     1       4.371   4.348  16.916  0.00  0.00    +0.000 A 
ATOM      8  C   UNL     1       5.365   3.627  16.236  0.00  0.00    +0.000 A 
ATOM      9  C   UNL     1       6.468   4.294  15.692  0.00  0.00    +0.000 A 
ATOM     10  C   UNL     1       6.582   5.679  15.812  0.00  0.00    +0.000 A 
ATOM     11  C   UNL     1       5.584   6.403  16.457  0.00  0.00    +0.000 A 
ATOM     12  C   UNL     1       4.481   5.736  17.005  0.00  0.00    +0.000 A 
ENDROOT
BRANCH   4  13
ATOM     13  N   UNL     1       1.290   3.790  19.089  0.00  0.00    +0.000 N 
ATOM     14  H   UNL     1       0.547   3.372  18.525  0.00  0.00    +0.000 HD
BRANCH  13  15
ATOM     15  C   UNL     1       0.970   4.026  20.497  0.00  0.00    +0.000 C 
BRANCH  15  16
ATOM     16  C   UNL     1       2.077   3.573  21.460  0.00  0.00    +0.000 C 
BRANCH  16  17
ATOM     17  O   UNL     1       1.686   2.408  22.184  0.00  0.00    +0.000 OA
ATOM     18  H   UNL     1       1.463   2.704  23.080  0.00  0.00    +0.000 HD
ENDBRANCH  16  17
ENDBRANCH  15  16
ENDBRANCH  13  15
ENDBRANCH   4  13
TORSDOF 4
ENDMDL
MODEL 9
REMARK VINA RESULT:      -6.0      2.485      5.204
REMARK  Name = 
REMARK  4 active torsions:
REMARK  status: ('A' for Active; 'I' for Inactive)
REMARK    1  A    between atoms: C_4  and  N_5
REMARK    2  A    between atoms: N_5  and  C_6
REMARK    3  A    between atoms: C_6  and  C_7
REMARK    4  A    between atoms: C_7  and  O_8
REMARK                            x       y       z     vdW  Elec       q    Type
REMARK                         _______ _______ _______ _____ _____    ______ ____
ROOT
ATOM      1  O   UNL     1       3.264   7.832  17.106  0.00  0.00    +0.000 OA
ATOM      2  C   UNL     1       3.524   6.753  17.619  0.00  0.00    +0.000 C 
ATOM      3  C   UNL     1       2.446   5.932  18.188  0.00  0.00    +0.000 C 
ATOM      4  C   UNL     1       2.652   4.720  18.735  0.00  0.00    +0.000 C 
ATOM      5  C   UNL     1       4.026   4.120  18.718  0.00  0.00    +0.000 C 
ATOM      6  O   UNL     1       4.219   2.960  19.073  0.00  0.00    +0.000 OA
ATOM      7  C   UNL     1       5.146   4.969  18.213  0.00  0.00    +0.000 A 
ATOM      8  C   UNL     1       6.468   4.500  18.262  0.00  0.00    +0.000 A 
ATOM      9  C   UNL     1       7.521   5.327  17.853  0.00  0.00    +0.000 A 
ATOM     10  C   UNL     1       7.264   6.614  17.385  0.00  0.00    +0.000 A 
ATOM     11  C   UNL     1       5.953   7.074  17.304  0.00  0.00    +0.000 A 
ATOM     12  C   UNL     1       4.898   6.249  17.716  0.00  0.00    +0.000 A 
ENDROOT
BRANCH   4  13
ATOM     13  N   UNL     1       1.634   4.006  19.336  0.00  0.00    +0.000 N 
ATOM     14  H   UNL     1       0.885   3.718  18.703  0.00  0.00    +0.000 HD
BRANCH  13  15
ATOM     15  C   UNL     1       1.293   4.040  20.759  0.00  0.00    +0.000 C 
BRANCH  15  16
ATOM     16  C   UNL     1       1.500   2.694  21.469  0.00  0.00    +0.000 C 
BRANCH  16  17
ATOM     17  O   UNL     1       2.851   2.539  21.897  0.00  0.00    +0.000 OA
ATOM     18  H   UNL     1       3.388   3.109  21.324  0.00  0.00    +0.000 HD
ENDBRANCH  16  17
ENDBRANCH  15  16
ENDBRANCH  13  15
ENDBRANCH   4  13
TORSDOF 4
ENDMDL
