MODEL 1
REMARK VINA RESULT:      -6.3      0.000      0.000
REMARK  Name = 
REMARK  11 active torsions:
REMARK  status: ('A' for Active; 'I' for Inactive)
REMARK    1  A    between atoms: C_1  and  C_2
REMARK    2  A    between atoms: C_2  and  C_3
REMARK    3  A    between atoms: C_3  and  C_4
REMARK    4  A    between atoms: C_4  and  C_5
REMARK    5  A    between atoms: C_6  and  N_7
REMARK    6  A    between atoms: N_10  and  C_11
REMARK    7  A    between atoms: C_14  and  C_15
REMARK    8  A    between atoms: C_15  and  O_16
REMARK    9  A    between atoms: C_18  and  C_19
REMARK   10  A    between atoms: C_20  and  O_21
REMARK   11  A    between atoms: O_21  and  C_22
REMARK                            x       y       z     vdW  Elec       q    Type
REMARK                         _______ _______ _______ _____ _____    ______ ____
ROOT
ATOM      1  N   UNL     1       2.893   6.984  18.793  0.00  0.00    +0.000 N 
ATOM      2  C   UNL     1       2.389   8.027  18.046  0.00  0.00    +0.000 C 
ATOM      3  O   UNL     1       2.726   8.281  16.900  0.00  0.00    +0.000 OA
ATOM      4  N   UNL     1       1.422   8.715  18.735  0.00  0.00    +0.000 N 
ATOM      5  H   UNL     1       2.673   7.007  19.777  0.00  0.00    +0.000 HD
ATOM      6  H   UNL     1       1.386   8.577  19.733  0.00  0.00    +0.000 HD
ENDROOT
BRANCH   1   8
ATOM      7  C   UNL     1       3.492   4.597  17.912  0.00  0.00    +0.000 C 
ATOM      8  C   UNL     1       3.948   6.059  18.303  0.00  0.00    +0.000 C 
ATOM      9  C   UNL     1       4.782   5.475  19.472  0.00  0.00    +0.000 C 
ATOM     10  C   UNL     1       6.296   5.509  19.291  0.00  0.00    +0.000 C 
ATOM     11  C   UNL     1       4.039   4.120  19.311  0.00  0.00    +0.000 C 
BRANCH   7  13
ATOM     12  C   UNL     1       5.031   5.083  15.916  0.00  0.00    +0.000 C 
ATOM     13  C   UNL     1       4.296   4.021  16.719  0.00  0.00    +0.000 C 
ENDBRANCH   7  13
BRANCH   7  14
ATOM     14  C   UNL     1       1.959   4.435  17.757  0.00  0.00    +0.000 C 
ATOM     15  C   UNL     1       1.303   3.510  18.769  0.00  0.00    +0.000 C 
ENDBRANCH   7  14
BRANCH  11  16
ATOM     16  O   UNL     1       4.896   2.955  19.356  0.00  0.00    +0.000 OA
ATOM     17  C   UNL     1       4.530   1.917  20.251  0.00  0.00    +0.000 C 
ENDBRANCH  11  16
ENDBRANCH   1   8
BRANCH   4  18
ATOM     18  C   UNL     1       0.859   9.951  18.238  0.00  0.00    +0.000 C 
ATOM     19  C   UNL     1       1.773  11.056  18.664  0.00  0.00    +0.000 C 
ATOM     20  C   UNL     1       1.241  11.818  19.625  0.00  0.00    +0.000 C 
ATOM     21  C   UNL     1      -0.152  11.386  19.982  0.00  0.00    +0.000 C 
ATOM     22  C   UNL     1      -0.475  10.350  18.888  0.00  0.00    +0.000 C 
BRANCH  21  23
ATOM     23  C   UNL     1      -0.283  10.853  21.415  0.00  0.00    +0.000 C 
BRANCH  23  24
ATOM     24  O   UNL     1       0.947  10.400  21.967  0.00  0.00    +0.000 OA
ATOM     25  H   UNL     1       1.656  10.627  21.340  0.00  0.00    +0.000 HD
ENDBRANCH  23  24
ENDBRANCH  21  23
ENDBRANCH   4  18
TORSDOF 7
ENDMDL
MODEL 2
REMARK VINA RESULT:      -6.3      4.420      8.737
REMARK  Name = 
REMARK  11 active torsions:
REMARK  status: ('A' for Active; 'I' for Inactive)
REMARK    1  A    between atoms: C_1  and  C_2
REMARK    2  A    between atoms: C_2  and  C_3
REMARK    3  A    between atoms: C_3  and  C_4
REMARK    4  A    between atoms: C_4  and  C_5
REMARK    5  A    between atoms: C_6  and  N_7
REMARK    6  A    between atoms: N_10  and  C_11
REMARK    7  A    between atoms: C_14  and  C_15
REMARK    8  A    between atoms: C_15  and  O_16
REMARK    9  A    between atoms: C_18  and  C_19
REMARK   10  A    between atoms: C_20  and  O_21
REMARK   11  A    between atoms: O_21  and  C_22
REMARK                            x       y       z     vdW  Elec       q    Type
REMARK                         _______ _______ _______ _____ _____    ______ ____
ROOT
ATOM      1  N   UNL     1       6.104   3.927  15.762  0.00  0.00    +0.000 N 
ATOM      2  C   UNL     1       6.415   4.289  14.469  0.00  0.00    +0.000 C 
ATOM      3  O   UNL     1       6.794   5.400  14.134  0.00  0.00    +0.000 OA
ATOM      4  N   UNL     1       6.292   3.225  13.609  0.00  0.00    +0.000 N 
ATOM      5  H   UNL     1       5.623   3.046  15.865  0.00  0.00    +0.000 HD
ATOM      6  H   UNL     1       5.759   2.434  13.934  0.00  0.00    +0.000 HD
ENDROOT
BRANCH   1   8
ATOM      7  C   UNL     1       5.020   4.725  18.003  0.00  0.00    +0.000 C 
ATOM      8  C   UNL     1       6.154   4.869  16.911  0.00  0.00    +0.000 C 
ATOM      9  C   UNL     1       5.595   6.263  16.530  0.00  0.00    +0.000 C 
ATOM     10  C   UNL     1       6.443   7.459  16.954  0.00  0.00    +0.000 C 
ATOM     11  C   UNL     1       4.296   5.948  17.322  0.00  0.00    +0.000 C 
BRANCH   7  13
ATOM     12  C   UNL     1       7.025   5.288  19.503  0.00  0.00    +0.000 C 
ATOM     13  C   UNL     1       5.526   5.041  19.432  0.00  0.00    +0.000 C 
ENDBRANCH   7  13
BRANCH   7  14
ATOM     14  C   UNL     1       4.221   3.401  17.911  0.00  0.00    +0.000 C 
ATOM     15  C   UNL     1       2.814   3.535  17.350  0.00  0.00    +0.000 C 
ENDBRANCH   7  14
BRANCH  11  16
ATOM     16  O   UNL     1       3.827   7.028  18.162  0.00  0.00    +0.000 OA
ATOM     17  C   UNL     1       2.430   7.276  18.178  0.00  0.00    +0.000 C 
ENDBRANCH  11  16
ENDBRANCH   1   8
BRANCH   4  18
ATOM     18  C   UNL     1       6.397   3.383  12.175  0.00  0.00    +0.000 C 
ATOM     19  C   UNL     1       5.039   3.128  11.601  0.00  0.00    +0.000 C 
ATOM     20  C   UNL     1       4.975   1.970  10.936  0.00  0.00    +0.000 C 
ATOM     21  C   UNL     1       6.298   1.261  10.905  0.00  0.00    +0.000 C 
ATOM     22  C   UNL     1       7.260   2.319  11.480  0.00  0.00    +0.000 C 
BRANCH  21  23
ATOM     23  C   UNL     1       6.300  -0.073  11.664  0.00  0.00    +0.000 C 
BRANCH  23  24
ATOM     24  O   UNL     1       5.801  -1.163  10.898  0.00  0.00    +0.000 OA
ATOM     25  H   UNL     1       4.977  -1.468  11.318  0.00  0.00    +0.000 HD
ENDBRANCH  23  24
ENDBRANCH  21  23
ENDBRANCH   4  18
TORSDOF 7
ENDMDL
MODEL 3
REMARK VINA RESULT:      -6.2      1.668      2.990
REMARK  Name = 
REMARK  11 active torsions:
REMARK  status: ('A' for Active; 'I' for Inactive)
REMARK    1  A    between atoms: C_1  and  C_2
REMARK    2  A    between atoms: C_2  and  C_3
REMARK    3  A    between atoms: C_3  and  C_4
REMARK    4  A    between atoms: C_4  and  C_5
REMARK    5  A    between atoms: C_6  and  N_7
REMARK    6  A    between atoms: N_10  and  C_11
REMARK    7  A    between atoms: C_14  and  C_15
REMARK    8  A    between atoms: C_15  and  O_16
REMARK    9  A    between atoms: C_18  and  C_19
REMARK   10  A    between atoms: C_20  and  O_21
REMARK   11  A    between atoms: O_21  and  C_22
REMARK                            x       y       z     vdW  Elec       q    Type
REMARK                         _______ _______ _______ _____ _____    ______ ____
ROOT
ATOM      1  N   UNL     1       2.353   7.401  19.233  0.00  0.00    +0.000 N 
ATOM      2  C   UNL     1       1.674   8.292  20.035  0.00  0.00    +0.000 C 
ATOM      3  O   UNL     1       1.561   8.185  21.246  0.00  0.00    +0.000 OA
ATOM      4  N   UNL     1       1.181   9.347  19.306  0.00  0.00    +0.000 N 
ATOM      5  H   UNL     1       2.203   7.506  18.241  0.00  0.00    +0.000 HD
ATOM      6  H   UNL     1       1.125   9.225  18.307  0.00  0.00    +0.000 HD
ENDROOT
BRANCH   1   8
ATOM      7  C   UNL     1       3.889   5.348  18.726  0.00  0.00    +0.000 C 
ATOM      8  C   UNL     1       3.002   6.166  19.746  0.00  0.00    +0.000 C 
ATOM      9  C   UNL     1       2.004   4.983  19.811  0.00  0.00    +0.000 C 
ATOM     10  C   UNL     1       2.004   4.182  21.110  0.00  0.00    +0.000 C 
ATOM     11  C   UNL     1       2.670   4.365  18.551  0.00  0.00    +0.000 C 
BRANCH   7  13
ATOM     12  C   UNL     1       6.387   5.503  19.294  0.00  0.00    +0.000 C 
ATOM     13  C   UNL     1       5.112   4.680  19.401  0.00  0.00    +0.000 C 
ENDBRANCH   7  13
BRANCH   7  14
ATOM     14  C   UNL     1       4.247   6.127  17.436  0.00  0.00    +0.000 C 
ATOM     15  C   UNL     1       4.746   5.272  16.282  0.00  0.00    +0.000 C 
ENDBRANCH   7  14
BRANCH  11  16
ATOM     16  O   UNL     1       2.913   2.941  18.636  0.00  0.00    +0.000 OA
ATOM     17  C   UNL     1       2.567   2.157  17.505  0.00  0.00    +0.000 C 
ENDBRANCH  11  16
ENDBRANCH   1   8
BRANCH   4  18
ATOM     18  C   UNL     1       0.289  10.328  19.884  0.00  0.00    +0.000 C 
ATOM     19  C   UNL     1      -0.634  10.780  18.797  0.00  0.00    +0.000 C 
ATOM     20  C   UNL     1      -0.377  12.029  18.396  0.00  0.00    +0.000 C 
ATOM     21  C   UNL     1       0.740  12.657  19.179  0.00  0.00    +0.000 C 
ATOM     22  C   UNL     1       0.973  11.636  20.310  0.00  0.00    +0.000 C 
BRANCH  21  23
ATOM     23  C   UNL     1       1.986  12.962  18.338  0.00  0.00    +0.000 C 
BRANCH  23  24
ATOM     24  O   UNL     1       2.421  11.862  17.546  0.00  0.00    +0.000 OA
ATOM     25  H   UNL     1       2.101  12.005  16.638  0.00  0.00    +0.000 HD
ENDBRANCH  23  24
ENDBRANCH  21  23
ENDBRANCH   4  18
TORSDOF 7
ENDMDL
MODEL 4
REMARK VINA RESULT:      -6.2      1.089      1.366
REMARK  Name = 
REMARK  11 active torsions:
REMARK  status: ('A' for Active; 'I' for Inactive)
REMARK    1  A    between atoms: C_1  and  C_2
REMARK    2  A    between atoms: C_2  and  C_3
REMARK    3  A    between atoms: C_3  and  C_4
REMARK    4  A    between atoms: C_4  and  C_5
REMARK    5  A    between atoms: C_6  and  N_7
REMARK    6  A    between atoms: N_10  and  C_11
REMARK    7  A    between atoms: C_14  and  C_15
REMARK    8  A    between atoms: C_15  and  O_16
REMARK    9  A    between atoms: C_18  and  C_19
REMARK   10  A    between atoms: C_20  and  O_21
REMARK   11  A    between atoms: O_21  and  C_22
REMARK                            x       y       z     vdW  Elec       q    Type
REMARK                         _______ _______ _______ _____ _____    ______ ____
ROOT
ATOM      1  N   UNL     1       2.639   7.111  19.356  0.00  0.00    +0.000 N 
ATOM      2  C   UNL     1       1.904   8.111  18.757  0.00  0.00    +0.000 C 
ATOM      3  O   UNL     1       1.769   8.242  17.550  0.00  0.00    +0.000 OA
ATOM      4  N   UNL     1       1.299   8.915  19.692  0.00  0.00    +0.000 N 
ATOM      5  H   UNL     1       2.824   7.234  20.340  0.00  0.00    +0.000 HD
ATOM      6  H   UNL     1       1.655   8.868  20.633  0.00  0.00    +0.000 HD
ENDROOT
BRANCH   1   8
ATOM      7  C   UNL     1       2.888   4.592  18.702  0.00  0.00    +0.000 C 
ATOM      8  C   UNL     1       3.398   6.084  18.595  0.00  0.00    +0.000 C 
ATOM      9  C   UNL     1       4.702   5.680  19.327  0.00  0.00    +0.000 C 
ATOM     10  C   UNL     1       5.963   5.637  18.469  0.00  0.00    +0.000 C 
ATOM     11  C   UNL     1       4.037   4.341  19.750  0.00  0.00    +0.000 C 
BRANCH   7  13
ATOM     12  C   UNL     1       2.430   2.426  17.404  0.00  0.00    +0.000 C 
ATOM     13  C   UNL     1       3.085   3.799  17.387  0.00  0.00    +0.000 C 
ENDBRANCH   7  13
BRANCH   7  14
ATOM     14  C   UNL     1       1.465   4.454  19.297  0.00  0.00    +0.000 C 
ATOM     15  C   UNL     1       1.413   3.987  20.744  0.00  0.00    +0.000 C 
ENDBRANCH   7  14
BRANCH  11  16
ATOM     16  O   UNL     1       4.878   3.175  19.587  0.00  0.00    +0.000 OA
ATOM     17  C   UNL     1       4.593   2.052  20.406  0.00  0.00    +0.000 C 
ENDBRANCH  11  16
ENDBRANCH   1   8
BRANCH   4  18
ATOM     18  C   UNL     1       0.611  10.134  19.325  0.00  0.00    +0.000 C 
ATOM     19  C   UNL     1       1.446  11.276  19.813  0.00  0.00    +0.000 C 
ATOM     20  C   UNL     1       0.892  11.904  20.855  0.00  0.00    +0.000 C 
ATOM     21  C   UNL     1      -0.443  11.322  21.222  0.00  0.00    +0.000 C 
ATOM     22  C   UNL     1      -0.722  10.356  20.054  0.00  0.00    +0.000 C 
BRANCH  21  23
ATOM     23  C   UNL     1      -0.465  10.661  22.607  0.00  0.00    +0.000 C 
BRANCH  23  24
ATOM     24  O   UNL     1       0.628   9.778  22.834  0.00  0.00    +0.000 OA
ATOM     25  H   UNL     1       1.317  10.274  23.310  0.00  0.00    +0.000 HD
ENDBRANCH  23  24
ENDBRANCH  21  23
ENDBRANCH   4  18
TORSDOF 7
ENDMDL
MODEL 5
REMARK VINA RESULT:      -6.0      1.503      2.136
REMARK  Name = 
REMARK  11 active torsions:
REMARK  status: ('A' for Active; 'I' for Inactive)
REMARK    1  A    between atoms: C_1  and  C_2
REMARK    2  A    between atoms: C_2  and  C_3
REMARK    3  A    between atoms: C_3  and  C_4
REMARK    4  A    between atoms: C_4  and  C_5
REMARK    5  A    between atoms: C_6  and  N_7
REMARK    6  A    between atoms: N_10  and  C_11
REMARK    7  A    between atoms: C_14  and  C_15
REMARK    8  A    between atoms: C_15  and  O_16
REMARK    9  A    between atoms: C_18  and  C_19
REMARK   10  A    between atoms: C_20  and  O_21
REMARK   11  A    between atoms: O_21  and  C_22
REMARK                            x       y       z     vdW  Elec       q    Type
REMARK                         _______ _______ _______ _____ _____    ______ ____
ROOT
ATOM      1  N   UNL     1       2.244   6.799  19.182  0.00  0.00    +0.000 N 
ATOM      2  C   UNL     1       2.177   8.133  18.842  0.00  0.00    +0.000 C 
ATOM      3  O   UNL     1       2.785   8.640  17.913  0.00  0.00    +0.000 OA
ATOM      4  N   UNL     1       1.300   8.812  19.652  0.00  0.00    +0.000 N 
ATOM      5  H   UNL     1       1.849   6.557  20.078  0.00  0.00    +0.000 HD
ATOM      6  H   UNL     1       1.037   8.365  20.516  0.00  0.00    +0.000 HD
ENDROOT
BRANCH   1   8
ATOM      7  C   UNL     1       2.748   4.287  18.663  0.00  0.00    +0.000 C 
ATOM      8  C   UNL     1       3.105   5.815  18.475  0.00  0.00    +0.000 C 
ATOM      9  C   UNL     1       4.441   5.584  19.225  0.00  0.00    +0.000 C 
ATOM     10  C   UNL     1       5.702   5.622  18.368  0.00  0.00    +0.000 C 
ATOM     11  C   UNL     1       3.913   4.209  19.721  0.00  0.00    +0.000 C 
BRANCH   7  13
ATOM     12  C   UNL     1       2.479   2.032  17.467  0.00  0.00    +0.000 C 
ATOM     13  C   UNL     1       3.027   3.449  17.391  0.00  0.00    +0.000 C 
ENDBRANCH   7  13
BRANCH   7  14
ATOM     14  C   UNL     1       1.343   4.038  19.268  0.00  0.00    +0.000 C 
ATOM     15  C   UNL     1       1.332   3.673  20.743  0.00  0.00    +0.000 C 
ENDBRANCH   7  14
BRANCH  11  16
ATOM     16  O   UNL     1       4.867   3.126  19.617  0.00  0.00    +0.000 OA
ATOM     17  C   UNL     1       4.655   1.996  20.448  0.00  0.00    +0.000 C 
ENDBRANCH  11  16
ENDBRANCH   1   8
BRANCH   4  18
ATOM     18  C   UNL     1       1.178  10.253  19.611  0.00  0.00    +0.000 C 
ATOM     19  C   UNL     1       0.268  10.651  20.730  0.00  0.00    +0.000 C 
ATOM     20  C   UNL     1      -0.926  11.067  20.295  0.00  0.00    +0.000 C 
ATOM     21  C   UNL     1      -1.012  11.067  18.796  0.00  0.00    +0.000 C 
ATOM     22  C   UNL     1       0.444  10.794  18.374  0.00  0.00    +0.000 C 
BRANCH  21  23
ATOM     23  C   UNL     1      -2.030  10.064  18.238  0.00  0.00    +0.000 C 
BRANCH  23  24
ATOM     24  O   UNL     1      -1.828   9.752  16.864  0.00  0.00    +0.000 OA
ATOM     25  H   UNL     1      -2.140   8.842  16.718  0.00  0.00    +0.000 HD
ENDBRANCH  23  24
ENDBRANCH  21  23
ENDBRANCH   4  18
TORSDOF 7
ENDMDL
MODEL 6
REMARK VINA RESULT:      -5.9      2.083      7.715
REMARK  Name = 
REMARK  11 active torsions:
REMARK  status: ('A' for Active; 'I' for Inactive)
REMARK    1  A    between atoms: C_1  and  C_2
REMARK    2  A    between atoms: C_2  and  C_3
REMARK    3  A    between atoms: C_3  and  C_4
REMARK    4  A    between atoms: C_4  and  C_5
REMARK    5  A    between atoms: C_6  and  N_7
REMARK    6  A    between atoms: N_10  and  C_11
REMARK    7  A    between atoms: C_14  and  C_15
REMARK    8  A    between atoms: C_15  and  O_16
REMARK    9  A    between atoms: C_18  and  C_19
REMARK   10  A    between atoms: C_20  and  O_21
REMARK   11  A    between atoms: O_21  and  C_22
REMARK                            x       y       z     vdW  Elec       q    Type
REMARK                         _______ _______ _______ _____ _____    ______ ____
ROOT
ATOM      1  N   UNL     1       0.851   9.307  19.114  0.00  0.00    +0.000 N 
ATOM      2  C   UNL     1       1.809   8.564  18.459  0.00  0.00    +0.000 C 
ATOM      3  O   UNL     1       2.284   8.852  17.371  0.00  0.00    +0.000 OA
ATOM      4  N   UNL     1       2.201   7.481  19.208  0.00  0.00    +0.000 N 
ATOM      5  H   UNL     1       0.413   8.856  19.903  0.00  0.00    +0.000 HD
ATOM      6  H   UNL     1       1.595   7.207  19.965  0.00  0.00    +0.000 HD
ENDROOT
BRANCH   1   8
ATOM      7  C   UNL     1      -0.003  11.739  19.551  0.00  0.00    +0.000 C 
ATOM      8  C   UNL     1       0.243  10.541  18.549  0.00  0.00    +0.000 C 
ATOM      9  C   UNL     1      -1.288  10.391  18.368  0.00  0.00    +0.000 C 
ATOM     10  C   UNL     1      -1.847  10.841  17.022  0.00  0.00    +0.000 C 
ATOM     11  C   UNL     1      -1.513  11.293  19.613  0.00  0.00    +0.000 C 
BRANCH   7  13
ATOM     12  C   UNL     1       1.593  13.334  18.329  0.00  0.00    +0.000 C 
ATOM     13  C   UNL     1       0.193  13.123  18.885  0.00  0.00    +0.000 C 
ENDBRANCH   7  13
BRANCH   7  14
ATOM     14  C   UNL     1       0.742  11.594  20.902  0.00  0.00    +0.000 C 
ATOM     15  C   UNL     1      -0.116  11.121  22.064  0.00  0.00    +0.000 C 
ENDBRANCH   7  14
BRANCH  11  16
ATOM     16  O   UNL     1      -2.538  12.301  19.447  0.00  0.00    +0.000 OA
ATOM     17  C   UNL     1      -3.275  12.671  20.601  0.00  0.00    +0.000 C 
ENDBRANCH  11  16
ENDBRANCH   1   8
BRANCH   4  18
ATOM     18  C   UNL     1       3.069   6.454  18.675  0.00  0.00    +0.000 C 
ATOM     19  C   UNL     1       2.212   5.522  17.878  0.00  0.00    +0.000 C 
ATOM     20  C   UNL     1       2.056   4.336  18.475  0.00  0.00    +0.000 C 
ATOM     21  C   UNL     1       2.823   4.245  19.762  0.00  0.00    +0.000 C 
ATOM     22  C   UNL     1       3.680   5.525  19.735  0.00  0.00    +0.000 C 
BRANCH  21  23
ATOM     23  C   UNL     1       1.929   4.110  21.003  0.00  0.00    +0.000 C 
BRANCH  23  24
ATOM     24  O   UNL     1       0.716   3.408  20.756  0.00  0.00    +0.000 OA
ATOM     25  H   UNL     1       0.242   3.329  21.603  0.00  0.00    +0.000 HD
ENDBRANCH  23  24
ENDBRANCH  21  23
ENDBRANCH   4  18
TORSDOF 7
ENDMDL
MODEL 7
REMARK VINA RESULT:      -5.8      1.693      3.135
REMARK  Name = 
REMARK  11 active torsions:
REMARK  status: ('A' for Active; 'I' for Inactive)
REMARK    1  A    between atoms: C_1  and  C_2
REMARK    2  A    between atoms: C_2  and  C_3
REMARK    3  A    between atoms: C_3  and  C_4
REMARK    4  A    between atoms: C_4  and  C_5
REMARK    5  A    between atoms: C_6  and  N_7
REMARK    6  A    between atoms: N_10  and  C_11
REMARK    7  A    between atoms: C_14  and  C_15
REMARK    8  A    between atoms: C_15  and  O_16
REMARK    9  A    between atoms: C_18  and  C_19
REMARK   10  A    between atoms: C_20  and  O_21
REMARK   11  A    between atoms: O_21  and  C_22
REMARK                            x       y       z     vdW  Elec       q    Type
REMARK                         _______ _______ _______ _____ _____    ______ ____
ROOT
ATOM      1  N   UNL     1       2.373   7.451  18.683  0.00  0.00    +0.000 N 
ATOM      2  C   UNL     1       1.733   8.280  19.579  0.00  0.00    +0.000 C 
ATOM      3  O   UNL     1       1.698   8.096  20.786  0.00  0.00    +0.000 OA
ATOM      4  N   UNL     1       1.181   9.367  18.948  0.00  0.00    +0.000 N 
ATOM      5  H   UNL     1       2.160   7.612  17.710  0.00  0.00    +0.000 HD
ATOM      6  H   UNL     1       1.064   9.305  17.949  0.00  0.00    +0.000 HD
ENDROOT
BRANCH   1   8
ATOM      7  C   UNL     1       4.420   5.865  18.328  0.00  0.00    +0.000 C 
ATOM      8  C   UNL     1       3.070   6.198  19.078  0.00  0.00    +0.000 C 
ATOM      9  C   UNL     1       2.414   4.953  18.430  0.00  0.00    +0.000 C 
ATOM     10  C   UNL     1       2.147   3.778  19.366  0.00  0.00    +0.000 C 
ATOM     11  C   UNL     1       3.601   4.860  17.431  0.00  0.00    +0.000 C 
BRANCH   7  13
ATOM     12  C   UNL     1       6.892   5.535  18.934  0.00  0.00    +0.000 C 
ATOM     13  C   UNL     1       5.451   5.158  19.242  0.00  0.00    +0.000 C 
ENDBRANCH   7  13
BRANCH   7  14
ATOM     14  C   UNL     1       5.014   7.058  17.539  0.00  0.00    +0.000 C 
ATOM     15  C   UNL     1       4.994   6.905  16.026  0.00  0.00    +0.000 C 
ENDBRANCH   7  14
BRANCH  11  16
ATOM     16  O   UNL     1       4.122   3.524  17.239  0.00  0.00    +0.000 OA
ATOM     17  C   UNL     1       5.035   3.334  16.169  0.00  0.00    +0.000 C 
ENDBRANCH  11  16
ENDBRANCH   1   8
BRANCH   4  18
ATOM     18  C   UNL     1       0.314  10.296  19.640  0.00  0.00    +0.000 C 
ATOM     19  C   UNL     1      -0.644  10.842  18.628  0.00  0.00    +0.000 C 
ATOM     20  C   UNL     1      -0.395  12.121  18.328  0.00  0.00    +0.000 C 
ATOM     21  C   UNL     1       0.751  12.676  19.125  0.00  0.00    +0.000 C 
ATOM     22  C   UNL     1       1.017  11.561  20.154  0.00  0.00    +0.000 C 
BRANCH  21  23
ATOM     23  C   UNL     1       1.969  13.052  18.270  0.00  0.00    +0.000 C 
BRANCH  23  24
ATOM     24  O   UNL     1       2.500  11.961  17.527  0.00  0.00    +0.000 OA
ATOM     25  H   UNL     1       2.582  12.246  16.600  0.00  0.00    +0.000 HD
ENDBRANCH  23  24
ENDBRANCH  21  23
ENDBRANCH   4  18
TORSDOF 7
ENDMDL
MODEL 8
REMARK VINA RESULT:      -5.8      1.985      3.576
REMARK  Name = 
REMARK  11 active torsions:
REMARK  status: ('A' for Active; 'I' for Inactive)
REMARK    1  A    between atoms: C_1  and  C_2
REMARK    2  A    between atoms: C_2  and  C_3
REMARK    3  A    between atoms: C_3  and  C_4
REMARK    4  A    between atoms: C_4  and  C_5
REMARK    5  A    between atoms: C_6  and  N_7
REMARK    6  A    between atoms: N_10  and  C_11
REMARK    7  A    between atoms: C_14  and  C_15
REMARK    8  A    between atoms: C_15  and  O_16
REMARK    9  A    between atoms: C_18  and  C_19
REMARK   10  A    between atoms: C_20  and  O_21
REMARK   11  A    between atoms: O_21  and  C_22
REMARK                            x       y       z     vdW  Elec       q    Type
REMARK                         _______ _______ _______ _____ _____    ______ ____
ROOT
ATOM      1  N   UNL     1       3.579   7.190  17.952  0.00  0.00    +0.000 N 
ATOM      2  C   UNL     1       2.593   7.531  18.853  0.00  0.00    +0.000 C 
ATOM      3  O   UNL     1       2.307   6.877  19.844  0.00  0.00    +0.000 OA
ATOM      4  N   UNL     1       2.007   8.728  18.524  0.00  0.00    +0.000 N 
ATOM      5  H   UNL     1       3.577   7.709  17.087  0.00  0.00    +0.000 HD
ATOM      6  H   UNL     1       2.147   9.062  17.583  0.00  0.00    +0.000 HD
ENDROOT
BRANCH   1   8
ATOM      7  C   UNL     1       5.793   5.950  17.326  0.00  0.00    +0.000 C 
ATOM      8  C   UNL     1       4.391   5.949  18.056  0.00  0.00    +0.000 C 
ATOM      9  C   UNL     1       3.893   4.857  17.076  0.00  0.00    +0.000 C 
ATOM     10  C   UNL     1       3.722   3.461  17.665  0.00  0.00    +0.000 C 
ATOM     11  C   UNL     1       5.115   5.139  16.158  0.00  0.00    +0.000 C 
BRANCH   7  13
ATOM     12  C   UNL     1       6.664   5.133  19.598  0.00  0.00    +0.000 C 
ATOM     13  C   UNL     1       6.863   5.131  18.090  0.00  0.00    +0.000 C 
ENDBRANCH   7  13
BRANCH   7  14
ATOM     14  C   UNL     1       6.282   7.357  16.902  0.00  0.00    +0.000 C 
ATOM     15  C   UNL     1       7.638   7.763  17.457  0.00  0.00    +0.000 C 
ENDBRANCH   7  14
BRANCH  11  16
ATOM     16  O   UNL     1       5.781   3.953  15.663  0.00  0.00    +0.000 OA
ATOM     17  C   UNL     1       6.323   4.015  14.354  0.00  0.00    +0.000 C 
ENDBRANCH  11  16
ENDBRANCH   1   8
BRANCH   4  18
ATOM     18  C   UNL     1       0.835   9.223  19.213  0.00  0.00    +0.000 C 
ATOM     19  C   UNL     1      -0.134   9.676  18.167  0.00  0.00    +0.000 C 
ATOM     20  C   UNL     1      -0.251  11.007  18.121  0.00  0.00    +0.000 C 
ATOM     21  C   UNL     1       0.588  11.685  19.166  0.00  0.00    +0.000 C 
ATOM     22  C   UNL     1       1.071  10.503  20.029  0.00  0.00    +0.000 C 
BRANCH  21  23
ATOM     23  C   UNL     1       1.717  12.545  18.585  0.00  0.00    +0.000 C 
BRANCH  23  24
ATOM     24  O   UNL     1       2.476  11.884  17.579  0.00  0.00    +0.000 OA
ATOM     25  H   UNL     1       3.367  12.277  17.572  0.00  0.00    +0.000 HD
ENDBRANCH  23  24
ENDBRANCH  21  23
ENDBRANCH   4  18
TORSDOF 7
ENDMDL
MODEL 9
REMARK VINA RESULT:      -5.8      1.349      1.895
REMARK  Name = 
REMARK  11 active torsions:
REMARK  status: ('A' for Active; 'I' for Inactive)
REMARK    1  A    between atoms: C_1  and  C_2
REMARK    2  A    between atoms: C_2  and  C_3
REMARK    3  A    between atoms: C_3  and  C_4
REMARK    4  A    between atoms: C_4  and  C_5
REMARK    5  A    between atoms: C_6  and  N_7
REMARK    6  A    between atoms: N_10  and  C_11
REMARK    7  A    between atoms: C_14  and  C_15
REMARK    8  A    between atoms: C_15  and  O_16
REMARK    9  A    between atoms: C_18  and  C_19
REMARK   10  A    between atoms: C_20  and  O_21
REMARK   11  A    between atoms: O_21  and  C_22
REMARK                            x       y       z     vdW  Elec       q    Type
REMARK                         _______ _______ _______ _____ _____    ______ ____
ROOT
ATOM      1  N   UNL     1       2.494   6.686  18.690  0.00  0.00    +0.000 N 
ATOM      2  C   UNL     1       2.455   8.044  18.456  0.00  0.00    +0.000 C 
ATOM      3  O   UNL     1       3.293   8.658  17.815  0.00  0.00    +0.000 OA
ATOM      4  N   UNL     1       1.326   8.612  18.994  0.00  0.00    +0.000 N 
ATOM      5  H   UNL     1       1.852   6.345  19.390  0.00  0.00    +0.000 HD
ATOM      6  H   UNL     1       0.831   8.074  19.688  0.00  0.00    +0.000 HD
ENDROOT
BRANCH   1   8
ATOM      7  C   UNL     1       3.235   4.287  17.962  0.00  0.00    +0.000 C 
ATOM      8  C   UNL     1       3.595   5.804  18.220  0.00  0.00    +0.000 C 
ATOM      9  C   UNL     1       4.520   5.376  19.386  0.00  0.00    +0.000 C 
ATOM     10  C   UNL     1       6.019   5.506  19.130  0.00  0.00    +0.000 C 
ATOM     11  C   UNL     1       3.876   3.962  19.364  0.00  0.00    +0.000 C 
BRANCH   7  13
ATOM     12  C   UNL     1       4.736   4.721  15.926  0.00  0.00    +0.000 C 
ATOM     13  C   UNL     1       4.027   3.679  16.778  0.00  0.00    +0.000 C 
ENDBRANCH   7  13
BRANCH   7  14
ATOM     14  C   UNL     1       1.714   4.003  17.895  0.00  0.00    +0.000 C 
ATOM     15  C   UNL     1       1.186   3.060  18.965  0.00  0.00    +0.000 C 
ENDBRANCH   7  14
BRANCH  11  16
ATOM     16  O   UNL     1       4.821   2.870  19.454  0.00  0.00    +0.000 OA
ATOM     17  C   UNL     1       4.572   1.879  20.439  0.00  0.00    +0.000 C 
ENDBRANCH  11  16
ENDBRANCH   1   8
BRANCH   4  18
ATOM     18  C   UNL     1       1.133  10.044  19.032  0.00  0.00    +0.000 C 
ATOM     19  C   UNL     1       0.293  10.345  20.234  0.00  0.00    +0.000 C 
ATOM     20  C   UNL     1      -0.948  10.719  19.909  0.00  0.00    +0.000 C 
ATOM     21  C   UNL     1      -1.149  10.782  18.422  0.00  0.00    +0.000 C 
ATOM     22  C   UNL     1       0.283  10.602  17.881  0.00  0.00    +0.000 C 
BRANCH  21  23
ATOM     23  C   UNL     1      -2.158   9.754  17.893  0.00  0.00    +0.000 C 
BRANCH  23  24
ATOM     24  O   UNL     1      -2.293   9.767  16.477  0.00  0.00    +0.000 OA
ATOM     25  H   UNL     1      -1.502   9.344  16.099  0.00  0.00    +0.000 HD
ENDBRANCH  23  24
ENDBRANCH  21  23
ENDBRANCH   4  18
TORSDOF 7
ENDMDL
