MODEL 1
REMARK VINA RESULT:      -8.0      0.000      0.000
REMARK  Name = 
REMARK  3 active torsions:
REMARK  status: ('A' for Active; 'I' for Inactive)
REMARK    1  A    between atoms: C_2  and  C_14
REMARK    2  A    between atoms: N_3  and  C_4
REMARK    3  A    between atoms: C_20  and  O_21
REMARK                            x       y       z     vdW  Elec       q    Type
REMARK                         _______ _______ _______ _____ _____    ______ ____
ROOT
ATOM      1  O   UNL     1       6.707   4.241  16.762  0.00  0.00    +0.000 OA
ATOM      2  C   UNL     1       5.878   4.408  15.875  0.00  0.00    +0.000 C 
ATOM      3  N   UNL     1       4.533   4.654  16.069  0.00  0.00    +0.000 N 
ATOM      4  H   UNL     1       3.948   4.651  15.241  0.00  0.00    +0.000 HD
ENDROOT
BRANCH   3   5
ATOM      5  C   UNL     1       3.892   4.689  17.330  0.00  0.00    +0.000 A 
ATOM      6  C   UNL     1       4.014   5.731  18.245  0.00  0.00    +0.000 A 
ATOM      7  N   UNL     1       3.483   5.725  19.490  0.00  0.00    +0.000 NA
ATOM      8  C   UNL     1       2.814   4.634  19.878  0.00  0.00    +0.000 A 
ATOM      9  C   UNL     1       2.341   4.572  21.179  0.00  0.00    +0.000 A 
ATOM     10  C   UNL     1       1.659   3.452  21.654  0.00  0.00    +0.000 A 
ATOM     11  C   UNL     1       1.426   2.374  20.807  0.00  0.00    +0.000 A 
ATOM     12  C   UNL     1       1.882   2.416  19.489  0.00  0.00    +0.000 A 
ATOM     13  C   UNL     1       2.590   3.536  19.019  0.00  0.00    +0.000 A 
ATOM     14  C   UNL     1       3.122   3.595  17.719  0.00  0.00    +0.000 A 
ENDBRANCH   3   5
BRANCH   2  15
ATOM     15  C   UNL     1       6.351   4.312  14.467  0.00  0.00    +0.000 A 
ATOM     16  C   UNL     1       5.621   3.459  13.622  0.00  0.00    +0.000 A 
ATOM     17  C   UNL     1       5.940   3.363  12.271  0.00  0.00    +0.000 A 
ATOM     18 CL   UNL     1       5.038   2.314  11.251  0.00  0.00    +0.000 Cl
ATOM     19  C   UNL     1       6.984   4.117  11.742  0.00  0.00    +0.000 A 
ATOM     20  C   UNL     1       7.725   4.963  12.573  0.00  0.00    +0.000 A 
ATOM     21  C   UNL     1       7.414   5.056  13.933  0.00  0.00    +0.000 A 
BRANCH  21  22
ATOM     22  O   UNL     1       8.151   5.891  14.729  0.00  0.00    +0.000 OA
ATOM     23  H   UNL     1       7.694   5.994  15.583  0.00  0.00    +0.000 HD
ENDBRANCH  21  22
ENDBRANCH   2  15
TORSDOF 3
ENDMDL
MODEL 2
REMARK VINA RESULT:      -8.0      1.219      1.259
REMARK  Name = 
REMARK  3 active torsions:
REMARK  status: ('A' for Active; 'I' for Inactive)
REMARK    1  A    between atoms: C_2  and  C_14
REMARK    2  A    between atoms: N_3  and  C_4
REMARK    3  A    between atoms: C_20  and  O_21
REMARK                            x       y       z     vdW  Elec       q    Type
REMARK                         _______ _______ _______ _____ _____    ______ ____
ROOT
ATOM      1  O   UNL     1       5.180   5.713  16.072  0.00  0.00    +0.000 OA
ATOM      2  C   UNL     1       5.360   4.561  15.694  0.00  0.00    +0.000 C 
ATOM      3  N   UNL     1       5.005   3.422  16.389  0.00  0.00    +0.000 N 
ATOM      4  H   UNL     1       5.326   2.539  16.007  0.00  0.00    +0.000 HD
ENDROOT
BRANCH   3   5
ATOM      5  C   UNL     1       4.428   3.411  17.681  0.00  0.00    +0.000 A 
ATOM      6  C   UNL     1       5.156   3.352  18.866  0.00  0.00    +0.000 A 
ATOM      7  N   UNL     1       4.607   3.243  20.099  0.00  0.00    +0.000 NA
ATOM      8  C   UNL     1       3.275   3.163  20.184  0.00  0.00    +0.000 A 
ATOM      9  C   UNL     1       2.700   2.960  21.428  0.00  0.00    +0.000 A 
ATOM     10  C   UNL     1       1.319   2.842  21.583  0.00  0.00    +0.000 A 
ATOM     11  C   UNL     1       0.488   2.946  20.472  0.00  0.00    +0.000 A 
ATOM     12  C   UNL     1       1.041   3.161  19.209  0.00  0.00    +0.000 A 
ATOM     13  C   UNL     1       2.436   3.257  19.053  0.00  0.00    +0.000 A 
ATOM     14  C   UNL     1       3.039   3.410  17.792  0.00  0.00    +0.000 A 
ENDBRANCH   3   5
BRANCH   2  15
ATOM     15  C   UNL     1       6.048   4.368  14.388  0.00  0.00    +0.000 A 
ATOM     16  C   UNL     1       5.425   3.498  13.478  0.00  0.00    +0.000 A 
ATOM     17  C   UNL     1       5.951   3.315  12.204  0.00  0.00    +0.000 A 
ATOM     18 CL   UNL     1       5.177   2.245  11.103  0.00  0.00    +0.000 Cl
ATOM     19  C   UNL     1       7.100   3.999  11.815  0.00  0.00    +0.000 A 
ATOM     20  C   UNL     1       7.736   4.861  12.712  0.00  0.00    +0.000 A 
ATOM     21  C   UNL     1       7.216   5.041  13.998  0.00  0.00    +0.000 A 
BRANCH  21  22
ATOM     22  O   UNL     1       7.854   5.890  14.861  0.00  0.00    +0.000 OA
ATOM     23  H   UNL     1       7.876   6.780  14.466  0.00  0.00    +0.000 HD
ENDBRANCH  21  22
ENDBRANCH   2  15
TORSDOF 3
ENDMDL
MODEL 3
REMARK VINA RESULT:      -7.9      2.993      7.634
REMARK  Name = 
REMARK  3 active torsions:
REMARK  status: ('A' for Active; 'I' for Inactive)
REMARK    1  A    between atoms: C_2  and  C_14
REMARK    2  A    between atoms: N_3  and  C_4
REMARK    3  A    between atoms: C_20  and  O_21
REMARK                            x       y       z     vdW  Elec       q    Type
REMARK                         _______ _______ _______ _____ _____    ______ ____
ROOT
ATOM      1  O   UNL     1       6.378   4.057  18.986  0.00  0.00    +0.000 OA
ATOM      2  C   UNL     1       5.215   4.051  18.600  0.00  0.00    +0.000 C 
ATOM      3  N   UNL     1       4.802   4.190  17.290  0.00  0.00    +0.000 N 
ATOM      4  H   UNL     1       3.804   4.287  17.137  0.00  0.00    +0.000 HD
ENDROOT
BRANCH   3   5
ATOM      5  C   UNL     1       5.664   4.425  16.192  0.00  0.00    +0.000 A 
ATOM      6  C   UNL     1       6.668   5.389  16.173  0.00  0.00    +0.000 A 
ATOM      7  N   UNL     1       7.429   5.683  15.093  0.00  0.00    +0.000 NA
ATOM      8  C   UNL     1       7.186   5.018  13.959  0.00  0.00    +0.000 A 
ATOM      9  C   UNL     1       7.892   5.367  12.819  0.00  0.00    +0.000 A 
ATOM     10  C   UNL     1       7.668   4.731  11.598  0.00  0.00    +0.000 A 
ATOM     11  C   UNL     1       6.729   3.709  11.515  0.00  0.00    +0.000 A 
ATOM     12  C   UNL     1       6.012   3.330  12.650  0.00  0.00    +0.000 A 
ATOM     13  C   UNL     1       6.223   3.989  13.875  0.00  0.00    +0.000 A 
ATOM     14  C   UNL     1       5.479   3.683  15.028  0.00  0.00    +0.000 A 
ENDBRANCH   3   5
BRANCH   2  15
ATOM     15  C   UNL     1       4.151   3.910  19.632  0.00  0.00    +0.000 A 
ATOM     16  C   UNL     1       3.289   5.008  19.792  0.00  0.00    +0.000 A 
ATOM     17  C   UNL     1       2.218   4.940  20.677  0.00  0.00    +0.000 A 
ATOM     18 CL   UNL     1       1.174   6.293  20.863  0.00  0.00    +0.000 Cl
ATOM     19  C   UNL     1       1.986   3.778  21.409  0.00  0.00    +0.000 A 
ATOM     20  C   UNL     1       2.841   2.681  21.267  0.00  0.00    +0.000 A 
ATOM     21  C   UNL     1       3.924   2.748  20.386  0.00  0.00    +0.000 A 
BRANCH  21  22
ATOM     22  O   UNL     1       4.748   1.663  20.260  0.00  0.00    +0.000 OA
ATOM     23  H   UNL     1       5.647   1.918  20.536  0.00  0.00    +0.000 HD
ENDBRANCH  21  22
ENDBRANCH   2  15
TORSDOF 3
ENDMDL
MODEL 4
REMARK VINA RESULT:      -7.6      2.725      7.447
REMARK  Name = 
REMARK  3 active torsions:
REMARK  status: ('A' for Active; 'I' for Inactive)
REMARK    1  A    between atoms: C_2  and  C_14
REMARK    2  A    between atoms: N_3  and  C_4
REMARK    3  A    between atoms: C_20  and  O_21
REMARK                            x       y       z     vdW  Elec       q    Type
REMARK                         _______ _______ _______ _____ _____    ______ ____
ROOT
ATOM      1  O   UNL     1       3.833   6.609  17.396  0.00  0.00    +0.000 OA
ATOM      2  C   UNL     1       3.762   5.423  17.696  0.00  0.00    +0.000 C 
ATOM      3  N   UNL     1       4.539   4.411  17.169  0.00  0.00    +0.000 N 
ATOM      4  H   UNL     1       4.285   3.464  17.424  0.00  0.00    +0.000 HD
ENDROOT
BRANCH   3   5
ATOM      5  C   UNL     1       5.504   4.583  16.148  0.00  0.00    +0.000 A 
ATOM      6  C   UNL     1       6.585   5.457  16.228  0.00  0.00    +0.000 A 
ATOM      7  N   UNL     1       7.453   5.697  15.217  0.00  0.00    +0.000 NA
ATOM      8  C   UNL     1       7.246   5.070  14.055  0.00  0.00    +0.000 A 
ATOM      9  C   UNL     1       8.070   5.371  12.981  0.00  0.00    +0.000 A 
ATOM     10  C   UNL     1       7.891   4.772  11.735  0.00  0.00    +0.000 A 
ATOM     11  C   UNL     1       6.878   3.836  11.557  0.00  0.00    +0.000 A 
ATOM     12  C   UNL     1       6.042   3.507  12.624  0.00  0.00    +0.000 A 
ATOM     13  C   UNL     1       6.209   4.130  13.874  0.00  0.00    +0.000 A 
ATOM     14  C   UNL     1       5.351   3.876  14.958  0.00  0.00    +0.000 A 
ENDBRANCH   3   5
BRANCH   2  15
ATOM     15  C   UNL     1       2.729   5.030  18.695  0.00  0.00    +0.000 A 
ATOM     16  C   UNL     1       2.081   3.804  18.471  0.00  0.00    +0.000 A 
ATOM     17  C   UNL     1       1.157   3.317  19.390  0.00  0.00    +0.000 A 
ATOM     18 CL   UNL     1       0.371   1.816  19.101  0.00  0.00    +0.000 Cl
ATOM     19  C   UNL     1       0.871   4.039  20.546  0.00  0.00    +0.000 A 
ATOM     20  C   UNL     1       1.501   5.265  20.778  0.00  0.00    +0.000 A 
ATOM     21  C   UNL     1       2.423   5.763  19.852  0.00  0.00    +0.000 A 
BRANCH  21  22
ATOM     22  O   UNL     1       3.030   6.965  20.098  0.00  0.00    +0.000 OA
ATOM     23  H   UNL     1       2.708   7.310  20.950  0.00  0.00    +0.000 HD
ENDBRANCH  21  22
ENDBRANCH   2  15
TORSDOF 3
ENDMDL
MODEL 5
REMARK VINA RESULT:      -7.6      3.045      7.660
REMARK  Name = 
REMARK  3 active torsions:
REMARK  status: ('A' for Active; 'I' for Inactive)
REMARK    1  A    between atoms: C_2  and  C_14
REMARK    2  A    between atoms: N_3  and  C_4
REMARK    3  A    between atoms: C_20  and  O_21
REMARK                            x       y       z     vdW  Elec       q    Type
REMARK                         _______ _______ _______ _____ _____    ______ ____
ROOT
ATOM      1  O   UNL     1       3.902   2.468  17.187  0.00  0.00    +0.000 OA
ATOM      2  C   UNL     1       3.739   3.589  17.653  0.00  0.00    +0.000 C 
ATOM      3  N   UNL     1       4.370   4.739  17.220  0.00  0.00    +0.000 N 
ATOM      4  H   UNL     1       4.228   5.572  17.779  0.00  0.00    +0.000 HD
ENDROOT
BRANCH   3   5
ATOM      5  C   UNL     1       5.355   4.786  16.204  0.00  0.00    +0.000 A 
ATOM      6  C   UNL     1       6.495   5.583  16.251  0.00  0.00    +0.000 A 
ATOM      7  N   UNL     1       7.388   5.706  15.241  0.00  0.00    +0.000 NA
ATOM      8  C   UNL     1       7.147   5.032  14.112  0.00  0.00    +0.000 A 
ATOM      9  C   UNL     1       8.001   5.214  13.035  0.00  0.00    +0.000 A 
ATOM     10  C   UNL     1       7.792   4.562  11.820  0.00  0.00    +0.000 A 
ATOM     11  C   UNL     1       6.716   3.692  11.679  0.00  0.00    +0.000 A 
ATOM     12  C   UNL     1       5.848   3.483  12.752  0.00  0.00    +0.000 A 
ATOM     13  C   UNL     1       6.047   4.159  13.968  0.00  0.00    +0.000 A 
ATOM     14  C   UNL     1       5.163   4.027  15.053  0.00  0.00    +0.000 A 
ENDBRANCH   3   5
BRANCH   2  15
ATOM     15  C   UNL     1       2.803   3.725  18.803  0.00  0.00    +0.000 A 
ATOM     16  C   UNL     1       2.614   5.024  19.302  0.00  0.00    +0.000 A 
ATOM     17  C   UNL     1       1.701   5.261  20.324  0.00  0.00    +0.000 A 
ATOM     18 CL   UNL     1       1.483   6.857  20.925  0.00  0.00    +0.000 Cl
ATOM     19  C   UNL     1       0.959   4.210  20.859  0.00  0.00    +0.000 A 
ATOM     20  C   UNL     1       1.143   2.911  20.378  0.00  0.00    +0.000 A 
ATOM     21  C   UNL     1       2.067   2.667  19.357  0.00  0.00    +0.000 A 
BRANCH  21  22
ATOM     22  O   UNL     1       2.232   1.387  18.900  0.00  0.00    +0.000 OA
ATOM     23  H   UNL     1       1.375   0.926  18.944  0.00  0.00    +0.000 HD
ENDBRANCH  21  22
ENDBRANCH   2  15
TORSDOF 3
ENDMDL
MODEL 6
REMARK VINA RESULT:      -7.4      3.183      7.575
REMARK  Name = 
REMARK  3 active torsions:
REMARK  status: ('A' for Active; 'I' for Inactive)
REMARK    1  A    between atoms: C_2  and  C_14
REMARK    2  A    between atoms: N_3  and  C_4
REMARK    3  A    between atoms: C_20  and  O_21
REMARK                            x       y       z     vdW  Elec       q    Type
REMARK                         _______ _______ _______ _____ _____    ______ ____
ROOT
ATOM      1  O   UNL     1       3.907   7.299  17.036  0.00  0.00    +0.000 OA
ATOM      2  C   UNL     1       3.939   6.275  17.709  0.00  0.00    +0.000 C 
ATOM      3  N   UNL     1       4.730   5.172  17.458  0.00  0.00    +0.000 N 
ATOM      4  H   UNL     1       4.561   4.353  18.031  0.00  0.00    +0.000 HD
ENDROOT
BRANCH   3   5
ATOM      5  C   UNL     1       5.586   5.031  16.340  0.00  0.00    +0.000 A 
ATOM      6  C   UNL     1       6.799   5.697  16.191  0.00  0.00    +0.000 A 
ATOM      7  N   UNL     1       7.574   5.641  15.082  0.00  0.00    +0.000 NA
ATOM      8  C   UNL     1       7.133   4.914  14.049  0.00  0.00    +0.000 A 
ATOM      9  C   UNL     1       7.867   4.917  12.873  0.00  0.00    +0.000 A 
ATOM     10  C   UNL     1       7.449   4.202  11.752  0.00  0.00    +0.000 A 
ATOM     11  C   UNL     1       6.281   3.450  11.808  0.00  0.00    +0.000 A 
ATOM     12  C   UNL     1       5.529   3.421  12.983  0.00  0.00    +0.000 A 
ATOM     13  C   UNL     1       5.940   4.162  14.106  0.00  0.00    +0.000 A 
ATOM     14  C   UNL     1       5.181   4.212  15.288  0.00  0.00    +0.000 A 
ENDBRANCH   3   5
BRANCH   2  15
ATOM     15  C   UNL     1       3.027   6.199  18.884  0.00  0.00    +0.000 A 
ATOM     16  C   UNL     1       3.001   4.976  19.574  0.00  0.00    +0.000 A 
ATOM     17  C   UNL     1       2.239   4.833  20.729  0.00  0.00    +0.000 A 
ATOM     18 CL   UNL     1       2.217   3.329  21.560  0.00  0.00    +0.000 Cl
ATOM     19  C   UNL     1       1.498   5.907  21.217  0.00  0.00    +0.000 A 
ATOM     20  C   UNL     1       1.507   7.128  20.536  0.00  0.00    +0.000 A 
ATOM     21  C   UNL     1       2.264   7.272  19.369  0.00  0.00    +0.000 A 
BRANCH  21  22
ATOM     22  O   UNL     1       2.260   8.476  18.718  0.00  0.00    +0.000 OA
ATOM     23  H   UNL     1       2.366   8.317  17.763  0.00  0.00    +0.000 HD
ENDBRANCH  21  22
ENDBRANCH   2  15
TORSDOF 3
ENDMDL
MODEL 7
REMARK VINA RESULT:      -7.4      6.586      7.997
REMARK  Name = 
REMARK  3 active torsions:
REMARK  status: ('A' for Active; 'I' for Inactive)
REMARK    1  A    between atoms: C_2  and  C_14
REMARK    2  A    between atoms: N_3  and  C_4
REMARK    3  A    between atoms: C_20  and  O_21
REMARK                            x       y       z     vdW  Elec       q    Type
REMARK                         _______ _______ _______ _____ _____    ______ ____
ROOT
ATOM      1  O   UNL     1       7.693  10.040  17.817  0.00  0.00    +0.000 OA
ATOM      2  C   UNL     1       8.656   9.634  18.456  0.00  0.00    +0.000 C 
ATOM      3  N   UNL     1       8.887   8.321  18.817  0.00  0.00    +0.000 N 
ATOM      4  H   UNL     1       9.662   8.154  19.448  0.00  0.00    +0.000 HD
ENDROOT
BRANCH   3   5
ATOM      5  C   UNL     1       8.008   7.245  18.551  0.00  0.00    +0.000 A 
ATOM      6  C   UNL     1       7.875   6.121  19.362  0.00  0.00    +0.000 A 
ATOM      7  N   UNL     1       7.109   5.045  19.063  0.00  0.00    +0.000 NA
ATOM      8  C   UNL     1       6.453   5.051  17.898  0.00  0.00    +0.000 A 
ATOM      9  C   UNL     1       5.736   3.922  17.533  0.00  0.00    +0.000 A 
ATOM     10  C   UNL     1       5.052   3.854  16.320  0.00  0.00    +0.000 A 
ATOM     11  C   UNL     1       5.066   4.945  15.457  0.00  0.00    +0.000 A 
ATOM     12  C   UNL     1       5.770   6.097  15.805  0.00  0.00    +0.000 A 
ATOM     13  C   UNL     1       6.479   6.155  17.018  0.00  0.00    +0.000 A 
ATOM     14  C   UNL     1       7.254   7.271  17.381  0.00  0.00    +0.000 A 
ENDBRANCH   3   5
BRANCH   2  15
ATOM     15  C   UNL     1       9.651  10.644  18.912  0.00  0.00    +0.000 A 
ATOM     16  C   UNL     1      10.359  11.319  17.903  0.00  0.00    +0.000 A 
ATOM     17  C   UNL     1      11.253  12.334  18.229  0.00  0.00    +0.000 A 
ATOM     18 CL   UNL     1      12.113  13.149  16.983  0.00  0.00    +0.000 Cl
ATOM     19  C   UNL     1      11.450  12.695  19.559  0.00  0.00    +0.000 A 
ATOM     20  C   UNL     1      10.759  12.027  20.573  0.00  0.00    +0.000 A 
ATOM     21  C   UNL     1       9.867  10.999  20.252  0.00  0.00    +0.000 A 
BRANCH  21  22
ATOM     22  O   UNL     1       9.199  10.357  21.260  0.00  0.00    +0.000 OA
ATOM     23  H   UNL     1       9.184   9.402  21.068  0.00  0.00    +0.000 HD
ENDBRANCH  21  22
ENDBRANCH   2  15
TORSDOF 3
ENDMDL
MODEL 8
REMARK VINA RESULT:      -7.4      3.364      7.721
REMARK  Name = 
REMARK  3 active torsions:
REMARK  status: ('A' for Active; 'I' for Inactive)
REMARK    1  A    between atoms: C_2  and  C_14
REMARK    2  A    between atoms: N_3  and  C_4
REMARK    3  A    between atoms: C_20  and  O_21
REMARK                            x       y       z     vdW  Elec       q    Type
REMARK                         _______ _______ _______ _____ _____    ______ ____
ROOT
ATOM      1  O   UNL     1       3.804   7.190  17.129  0.00  0.00    +0.000 OA
ATOM      2  C   UNL     1       3.923   6.193  17.831  0.00  0.00    +0.000 C 
ATOM      3  N   UNL     1       4.787   5.142  17.596  0.00  0.00    +0.000 N 
ATOM      4  H   UNL     1       4.689   4.331  18.196  0.00  0.00    +0.000 HD
ENDROOT
BRANCH   3   5
ATOM      5  C   UNL     1       5.632   5.029  16.467  0.00  0.00    +0.000 A 
ATOM      6  C   UNL     1       6.833   5.716  16.311  0.00  0.00    +0.000 A 
ATOM      7  N   UNL     1       7.595   5.687  15.192  0.00  0.00    +0.000 NA
ATOM      8  C   UNL     1       7.153   4.966  14.156  0.00  0.00    +0.000 A 
ATOM      9  C   UNL     1       7.872   4.996  12.972  0.00  0.00    +0.000 A 
ATOM     10  C   UNL     1       7.452   4.289  11.846  0.00  0.00    +0.000 A 
ATOM     11  C   UNL     1       6.296   3.517  11.906  0.00  0.00    +0.000 A 
ATOM     12  C   UNL     1       5.559   3.462  13.090  0.00  0.00    +0.000 A 
ATOM     13  C   UNL     1       5.972   4.195  14.217  0.00  0.00    +0.000 A 
ATOM     14  C   UNL     1       5.228   4.218  15.409  0.00  0.00    +0.000 A 
ENDBRANCH   3   5
BRANCH   2  15
ATOM     15  C   UNL     1       3.040   6.087  19.025  0.00  0.00    +0.000 A 
ATOM     16  C   UNL     1       2.491   7.289  19.503  0.00  0.00    +0.000 A 
ATOM     17  C   UNL     1       1.595   7.281  20.566  0.00  0.00    +0.000 A 
ATOM     18 CL   UNL     1       0.934   8.761  21.140  0.00  0.00    +0.000 Cl
ATOM     19  C   UNL     1       1.226   6.078  21.164  0.00  0.00    +0.000 A 
ATOM     20  C   UNL     1       1.770   4.875  20.705  0.00  0.00    +0.000 A 
ATOM     21  C   UNL     1       2.680   4.879  19.643  0.00  0.00    +0.000 A 
BRANCH  21  22
ATOM     22  O   UNL     1       3.200   3.691  19.208  0.00  0.00    +0.000 OA
ATOM     23  H   UNL     1       4.151   3.810  19.031  0.00  0.00    +0.000 HD
ENDBRANCH  21  22
ENDBRANCH   2  15
TORSDOF 3
ENDMDL
MODEL 9
REMARK VINA RESULT:      -7.4      2.064      2.911
REMARK  Name = 
REMARK  3 active torsions:
REMARK  status: ('A' for Active; 'I' for Inactive)
REMARK    1  A    between atoms: C_2  and  C_14
REMARK    2  A    between atoms: N_3  and  C_4
REMARK    3  A    between atoms: C_20  and  O_21
REMARK                            x       y       z     vdW  Elec       q    Type
REMARK                         _______ _______ _______ _____ _____    ______ ____
ROOT
ATOM      1  O   UNL     1       4.884   3.637  16.608  0.00  0.00    +0.000 OA
ATOM      2  C   UNL     1       5.179   4.637  15.964  0.00  0.00    +0.000 C 
ATOM      3  N   UNL     1       4.896   5.939  16.327  0.00  0.00    +0.000 N 
ATOM      4  H   UNL     1       5.094   6.655  15.637  0.00  0.00    +0.000 HD
ENDROOT
BRANCH   3   5
ATOM      5  C   UNL     1       4.163   6.316  17.477  0.00  0.00    +0.000 A 
ATOM      6  C   UNL     1       4.061   5.543  18.631  0.00  0.00    +0.000 A 
ATOM      7  N   UNL     1       3.283   5.853  19.695  0.00  0.00    +0.000 NA
ATOM      8  C   UNL     1       2.544   6.965  19.625  0.00  0.00    +0.000 A 
ATOM      9  C   UNL     1       1.674   7.251  20.665  0.00  0.00    +0.000 A 
ATOM     10  C   UNL     1       0.856   8.381  20.641  0.00  0.00    +0.000 A 
ATOM     11  C   UNL     1       0.920   9.257  19.564  0.00  0.00    +0.000 A 
ATOM     12  C   UNL     1       1.795   8.998  18.508  0.00  0.00    +0.000 A 
ATOM     13  C   UNL     1       2.602   7.846  18.523  0.00  0.00    +0.000 A 
ATOM     14  C   UNL     1       3.451   7.513  17.454  0.00  0.00    +0.000 A 
ENDBRANCH   3   5
BRANCH   2  15
ATOM     15  C   UNL     1       5.877   4.435  14.664  0.00  0.00    +0.000 A 
ATOM     16  C   UNL     1       5.216   3.630  13.721  0.00  0.00    +0.000 A 
ATOM     17  C   UNL     1       5.753   3.447  12.451  0.00  0.00    +0.000 A 
ATOM     18 CL   UNL     1       4.932   2.457  11.310  0.00  0.00    +0.000 Cl
ATOM     19  C   UNL     1       6.950   4.065  12.100  0.00  0.00    +0.000 A 
ATOM     20  C   UNL     1       7.623   4.862  13.031  0.00  0.00    +0.000 A 
ATOM     21  C   UNL     1       7.092   5.041  14.312  0.00  0.00    +0.000 A 
BRANCH  21  22
ATOM     22  O   UNL     1       7.767   5.825  15.208  0.00  0.00    +0.000 OA
ATOM     23  H   UNL     1       8.122   6.602  14.740  0.00  0.00    +0.000 HD
ENDBRANCH  21  22
ENDBRANCH   2  15
TORSDOF 3
ENDMDL
