MODEL 1
REMARK VINA RESULT:      -9.8      0.000      0.000
REMARK  Name = 
REMARK  6 active torsions:
REMARK  status: ('A' for Active; 'I' for Inactive)
REMARK    1  A    between atoms: C_1  and  O_2
REMARK    2  A    between atoms: O_2  and  C_3
REMARK    3  A    between atoms: C_10  and  C_11
REMARK    4  A    between atoms: C_11  and  C_12
REMARK    5  A    between atoms: C_27  and  O_28
REMARK    6  A    between atoms: O_28  and  C_29
REMARK                            x       y       z     vdW  Elec       q    Type
REMARK                         _______ _______ _______ _____ _____    ______ ____
ROOT
ATOM      1  C   UNL     1       5.783   4.884  15.858  0.00  0.00    +0.000 A 
ATOM      2  C   UNL     1       4.757   3.952  16.055  0.00  0.00    +0.000 A 
ATOM      3  C   UNL     1       3.799   4.106  17.066  0.00  0.00    +0.000 A 
ATOM      4  C   UNL     1       2.785   3.153  17.207  0.00  0.00    +0.000 A 
ATOM      5  N   UNL     1       1.825   3.255  18.186  0.00  0.00    +0.000 N 
ATOM      6  O   UNL     1       0.912   2.382  18.292  0.00  0.00    +0.000 OA
ATOM      7  C   UNL     1       1.883   4.323  19.059  0.00  0.00    +0.000 A 
ATOM      8  C   UNL     1       2.884   5.306  18.973  0.00  0.00    +0.000 A 
ATOM      9  C   UNL     1       3.854   5.210  17.943  0.00  0.00    +0.000 A 
ATOM     10  C   UNL     1       4.901   6.134  17.737  0.00  0.00    +0.000 A 
ATOM     11  C   UNL     1       5.863   5.986  16.718  0.00  0.00    +0.000 A 
ENDROOT
BRANCH   1  13
ATOM     12  C   UNL     1       6.333   4.007  13.715  0.00  0.00    +0.000 C 
ATOM     13  O   UNL     1       6.729   4.723  14.882  0.00  0.00    +0.000 OA
ENDBRANCH   1  13
BRANCH  11  14
ATOM     14  O   UNL     1       6.778   7.006  16.723  0.00  0.00    +0.000 OA
ATOM     15  C   UNL     1       7.707   7.094  17.795  0.00  0.00    +0.000 C 
ENDBRANCH  11  14
BRANCH   8  16
ATOM     16  C   UNL     1       2.889   6.389  20.032  0.00  0.00    +0.000 C 
BRANCH  16  17
ATOM     17  C   UNL     1       2.010   7.592  19.763  0.00  0.00    +0.000 A 
ATOM     18  C   UNL     1       2.008   8.186  18.489  0.00  0.00    +0.000 A 
ATOM     19  C   UNL     1       1.317   9.377  18.229  0.00  0.00    +0.000 A 
ATOM     20  C   UNL     1       0.630   9.946  19.297  0.00  0.00    +0.000 A 
ATOM     21  O   UNL     1      -0.059  11.119  19.255  0.00  0.00    +0.000 OA
ATOM     22  C   UNL     1      -0.583  11.316  20.496  0.00  0.00    +0.000 A 
ATOM     23  C   UNL     1      -1.354  12.410  20.882  0.00  0.00    +0.000 A 
ATOM     24  C   UNL     1      -1.821  12.414  22.200  0.00  0.00    +0.000 A 
ATOM     25  C   UNL     1      -1.520  11.369  23.076  0.00  0.00    +0.000 A 
ATOM     26  C   UNL     1      -0.725  10.288  22.665  0.00  0.00    +0.000 A 
ATOM     27  C   UNL     1      -0.245  10.264  21.342  0.00  0.00    +0.000 A 
ATOM     28  C   UNL     1       0.568   9.386  20.567  0.00  0.00    +0.000 A 
ATOM     29  C   UNL     1       1.269   8.188  20.807  0.00  0.00    +0.000 A 
ENDBRANCH  16  17
ENDBRANCH   8  16
TORSDOF 4
ENDMDL
MODEL 2
REMARK VINA RESULT:      -8.7      3.305      9.032
REMARK  Name = 
REMARK  6 active torsions:
REMARK  status: ('A' for Active; 'I' for Inactive)
REMARK    1  A    between atoms: C_1  and  O_2
REMARK    2  A    between atoms: O_2  and  C_3
REMARK    3  A    between atoms: C_10  and  C_11
REMARK    4  A    between atoms: C_11  and  C_12
REMARK    5  A    between atoms: C_27  and  O_28
REMARK    6  A    between atoms: O_28  and  C_29
REMARK                            x       y       z     vdW  Elec       q    Type
REMARK                         _______ _______ _______ _____ _____    ______ ____
ROOT
ATOM      1  C   UNL     1      -3.618  11.343  18.053  0.00  0.00    +0.000 A 
ATOM      2  C   UNL     1      -3.053  12.057  19.117  0.00  0.00    +0.000 A 
ATOM      3  C   UNL     1      -1.688  11.977  19.422  0.00  0.00    +0.000 A 
ATOM      4  C   UNL     1      -1.173  12.725  20.486  0.00  0.00    +0.000 A 
ATOM      5  N   UNL     1       0.157  12.678  20.829  0.00  0.00    +0.000 N 
ATOM      6  O   UNL     1       0.602  13.369  21.795  0.00  0.00    +0.000 OA
ATOM      7  C   UNL     1       0.996  11.853  20.108  0.00  0.00    +0.000 A 
ATOM      8  C   UNL     1       0.535  11.069  19.036  0.00  0.00    +0.000 A 
ATOM      9  C   UNL     1      -0.833  11.145  18.669  0.00  0.00    +0.000 A 
ATOM     10  C   UNL     1      -1.421  10.424  17.607  0.00  0.00    +0.000 A 
ATOM     11  C   UNL     1      -2.792  10.505  17.293  0.00  0.00    +0.000 A 
ENDROOT
BRANCH   1  13
ATOM     12  C   UNL     1      -5.829  10.663  18.613  0.00  0.00    +0.000 C 
ATOM     13  O   UNL     1      -4.955  11.407  17.768  0.00  0.00    +0.000 OA
ENDBRANCH   1  13
BRANCH  11  14
ATOM     14  O   UNL     1      -3.123   9.711  16.227  0.00  0.00    +0.000 OA
ATOM     15  C   UNL     1      -3.080  10.260  14.918  0.00  0.00    +0.000 C 
ENDBRANCH  11  14
BRANCH   8  16
ATOM     16  C   UNL     1       1.533  10.146  18.368  0.00  0.00    +0.000 C 
BRANCH  16  17
ATOM     17  C   UNL     1       1.660   8.758  18.958  0.00  0.00    +0.000 A 
ATOM     18  C   UNL     1       1.265   8.524  20.288  0.00  0.00    +0.000 A 
ATOM     19  C   UNL     1       1.487   7.294  20.920  0.00  0.00    +0.000 A 
ATOM     20  C   UNL     1       2.121   6.310  20.166  0.00  0.00    +0.000 A 
ATOM     21  O   UNL     1       2.463   5.072  20.616  0.00  0.00    +0.000 OA
ATOM     22  C   UNL     1       3.055   4.422  19.576  0.00  0.00    +0.000 A 
ATOM     23  C   UNL     1       3.561   3.125  19.620  0.00  0.00    +0.000 A 
ATOM     24  C   UNL     1       4.109   2.626  18.434  0.00  0.00    +0.000 A 
ATOM     25  C   UNL     1       4.143   3.401  17.272  0.00  0.00    +0.000 A 
ATOM     26  C   UNL     1       3.642   4.712  17.263  0.00  0.00    +0.000 A 
ATOM     27  C   UNL     1       3.085   5.233  18.447  0.00  0.00    +0.000 A 
ATOM     28  C   UNL     1       2.501   6.472  18.840  0.00  0.00    +0.000 A 
ATOM     29  C   UNL     1       2.267   7.717  18.223  0.00  0.00    +0.000 A 
ENDBRANCH  16  17
ENDBRANCH   8  16
TORSDOF 4
ENDMDL
MODEL 3
REMARK VINA RESULT:      -8.3      3.174      8.619
REMARK  Name = 
REMARK  6 active torsions:
REMARK  status: ('A' for Active; 'I' for Inactive)
REMARK    1  A    between atoms: C_1  and  O_2
REMARK    2  A    between atoms: O_2  and  C_3
REMARK    3  A    between atoms: C_10  and  C_11
REMARK    4  A    between atoms: C_11  and  C_12
REMARK    5  A    between atoms: C_27  and  O_28
REMARK    6  A    between atoms: O_28  and  C_29
REMARK                            x       y       z     vdW  Elec       q    Type
REMARK                         _______ _______ _______ _____ _____    ______ ____
ROOT
ATOM      1  C   UNL     1      -3.526  11.302  18.122  0.00  0.00    +0.000 A 
ATOM      2  C   UNL     1      -2.712  11.589  19.224  0.00  0.00    +0.000 A 
ATOM      3  C   UNL     1      -1.382  11.155  19.297  0.00  0.00    +0.000 A 
ATOM      4  C   UNL     1      -0.608  11.484  20.414  0.00  0.00    +0.000 A 
ATOM      5  N   UNL     1       0.700  11.077  20.536  0.00  0.00    +0.000 N 
ATOM      6  O   UNL     1       1.384  11.392  21.556  0.00  0.00    +0.000 OA
ATOM      7  C   UNL     1       1.249  10.308  19.529  0.00  0.00    +0.000 A 
ATOM      8  C   UNL     1       0.517   9.937  18.388  0.00  0.00    +0.000 A 
ATOM      9  C   UNL     1      -0.822  10.384  18.255  0.00  0.00    +0.000 A 
ATOM     10  C   UNL     1      -1.660  10.096  17.156  0.00  0.00    +0.000 A 
ATOM     11  C   UNL     1      -2.996  10.535  17.077  0.00  0.00    +0.000 A 
ENDROOT
BRANCH   1  13
ATOM     12  C   UNL     1      -5.725  11.155  19.021  0.00  0.00    +0.000 C 
ATOM     13  O   UNL     1      -4.831  11.712  18.061  0.00  0.00    +0.000 OA
ENDBRANCH   1  13
BRANCH  11  14
ATOM     14  O   UNL     1      -3.604  10.125  15.920  0.00  0.00    +0.000 OA
ATOM     15  C   UNL     1      -2.915  10.277  14.687  0.00  0.00    +0.000 C 
ENDBRANCH  11  14
BRANCH   8  16
ATOM     16  C   UNL     1       1.202   9.030  17.386  0.00  0.00    +0.000 C 
BRANCH  16  17
ATOM     17  C   UNL     1       2.087   7.945  17.963  0.00  0.00    +0.000 A 
ATOM     18  C   UNL     1       3.443   7.880  17.595  0.00  0.00    +0.000 A 
ATOM     19  C   UNL     1       4.268   6.820  17.994  0.00  0.00    +0.000 A 
ATOM     20  C   UNL     1       3.678   5.829  18.774  0.00  0.00    +0.000 A 
ATOM     21  O   UNL     1       4.299   4.703  19.219  0.00  0.00    +0.000 OA
ATOM     22  C   UNL     1       3.382   4.004  19.944  0.00  0.00    +0.000 A 
ATOM     23  C   UNL     1       3.612   2.781  20.570  0.00  0.00    +0.000 A 
ATOM     24  C   UNL     1       2.545   2.237  21.291  0.00  0.00    +0.000 A 
ATOM     25  C   UNL     1       1.315   2.895  21.368  0.00  0.00    +0.000 A 
ATOM     26  C   UNL     1       1.107   4.117  20.712  0.00  0.00    +0.000 A 
ATOM     27  C   UNL     1       2.169   4.684  19.981  0.00  0.00    +0.000 A 
ATOM     28  C   UNL     1       2.355   5.858  19.195  0.00  0.00    +0.000 A 
ATOM     29  C   UNL     1       1.543   6.935  18.784  0.00  0.00    +0.000 A 
ENDBRANCH  16  17
ENDBRANCH   8  16
TORSDOF 4
ENDMDL
MODEL 4
REMARK VINA RESULT:      -8.3      1.889      3.969
REMARK  Name = 
REMARK  6 active torsions:
REMARK  status: ('A' for Active; 'I' for Inactive)
REMARK    1  A    between atoms: C_1  and  O_2
REMARK    2  A    between atoms: O_2  and  C_3
REMARK    3  A    between atoms: C_10  and  C_11
REMARK    4  A    between atoms: C_11  and  C_12
REMARK    5  A    between atoms: C_27  and  O_28
REMARK    6  A    between atoms: O_28  and  C_29
REMARK                            x       y       z     vdW  Elec       q    Type
REMARK                         _______ _______ _______ _____ _____    ______ ____
ROOT
ATOM      1  C   UNL     1       3.560   2.899  17.735  0.00  0.00    +0.000 A 
ATOM      2  C   UNL     1       4.728   3.648  17.547  0.00  0.00    +0.000 A 
ATOM      3  C   UNL     1       4.712   5.048  17.504  0.00  0.00    +0.000 A 
ATOM      4  C   UNL     1       5.910   5.748  17.331  0.00  0.00    +0.000 A 
ATOM      5  N   UNL     1       5.947   7.121  17.277  0.00  0.00    +0.000 N 
ATOM      6  O   UNL     1       7.046   7.735  17.125  0.00  0.00    +0.000 OA
ATOM      7  C   UNL     1       4.760   7.818  17.380  0.00  0.00    +0.000 A 
ATOM      8  C   UNL     1       3.523   7.170  17.544  0.00  0.00    +0.000 A 
ATOM      9  C   UNL     1       3.496   5.755  17.628  0.00  0.00    +0.000 A 
ATOM     10  C   UNL     1       2.327   4.982  17.806  0.00  0.00    +0.000 A 
ATOM     11  C   UNL     1       2.340   3.575  17.855  0.00  0.00    +0.000 A 
ENDROOT
BRANCH   1  13
ATOM     12  C   UNL     1       3.926   0.911  18.993  0.00  0.00    +0.000 C 
ATOM     13  O   UNL     1       3.575   1.530  17.758  0.00  0.00    +0.000 OA
ENDBRANCH   1  13
BRANCH  11  14
ATOM     14  O   UNL     1       1.084   3.055  18.030  0.00  0.00    +0.000 OA
ATOM     15  C   UNL     1       0.568   2.926  19.346  0.00  0.00    +0.000 C 
ENDBRANCH  11  14
BRANCH   8  16
ATOM     16  C   UNL     1       2.281   8.036  17.569  0.00  0.00    +0.000 C 
BRANCH  16  17
ATOM     17  C   UNL     1       1.798   8.472  18.936  0.00  0.00    +0.000 A 
ATOM     18  C   UNL     1       2.051   7.664  20.059  0.00  0.00    +0.000 A 
ATOM     19  C   UNL     1       1.510   7.956  21.317  0.00  0.00    +0.000 A 
ATOM     20  C   UNL     1       0.706   9.089  21.404  0.00  0.00    +0.000 A 
ATOM     21  O   UNL     1       0.057   9.510  22.524  0.00  0.00    +0.000 OA
ATOM     22  C   UNL     1      -0.612  10.648  22.191  0.00  0.00    +0.000 A 
ATOM     23  C   UNL     1      -1.411  11.396  23.052  0.00  0.00    +0.000 A 
ATOM     24  C   UNL     1      -1.993  12.551  22.523  0.00  0.00    +0.000 A 
ATOM     25  C   UNL     1      -1.779  12.924  21.193  0.00  0.00    +0.000 A 
ATOM     26  C   UNL     1      -0.983  12.141  20.343  0.00  0.00    +0.000 A 
ATOM     27  C   UNL     1      -0.387  10.974  20.857  0.00  0.00    +0.000 A 
ATOM     28  C   UNL     1       0.449   9.942  20.339  0.00  0.00    +0.000 A 
ATOM     29  C   UNL     1       1.004   9.631  19.081  0.00  0.00    +0.000 A 
ENDBRANCH  16  17
ENDBRANCH   8  16
TORSDOF 4
ENDMDL
MODEL 5
REMARK VINA RESULT:      -8.1      2.171      3.284
REMARK  Name = 
REMARK  6 active torsions:
REMARK  status: ('A' for Active; 'I' for Inactive)
REMARK    1  A    between atoms: C_1  and  O_2
REMARK    2  A    between atoms: O_2  and  C_3
REMARK    3  A    between atoms: C_10  and  C_11
REMARK    4  A    between atoms: C_11  and  C_12
REMARK    5  A    between atoms: C_27  and  O_28
REMARK    6  A    between atoms: O_28  and  C_29
REMARK                            x       y       z     vdW  Elec       q    Type
REMARK                         _______ _______ _______ _____ _____    ______ ____
ROOT
ATOM      1  C   UNL     1       6.946   4.578  14.509  0.00  0.00    +0.000 A 
ATOM      2  C   UNL     1       7.607   4.830  15.717  0.00  0.00    +0.000 A 
ATOM      3  C   UNL     1       6.914   4.964  16.927  0.00  0.00    +0.000 A 
ATOM      4  C   UNL     1       7.626   5.198  18.108  0.00  0.00    +0.000 A 
ATOM      5  N   UNL     1       6.994   5.343  19.320  0.00  0.00    +0.000 N 
ATOM      6  O   UNL     1       7.660   5.549  20.379  0.00  0.00    +0.000 OA
ATOM      7  C   UNL     1       5.616   5.270  19.358  0.00  0.00    +0.000 A 
ATOM      8  C   UNL     1       4.846   5.048  18.203  0.00  0.00    +0.000 A 
ATOM      9  C   UNL     1       5.507   4.871  16.961  0.00  0.00    +0.000 A 
ATOM     10  C   UNL     1       4.856   4.627  15.732  0.00  0.00    +0.000 A 
ATOM     11  C   UNL     1       5.548   4.486  14.514  0.00  0.00    +0.000 A 
ENDROOT
BRANCH   1  13
ATOM     12  C   UNL     1       8.161   5.666  12.775  0.00  0.00    +0.000 C 
ATOM     13  O   UNL     1       7.623   4.466  13.324  0.00  0.00    +0.000 OA
ENDBRANCH   1  13
BRANCH  11  14
ATOM     14  O   UNL     1       4.699   4.262  13.463  0.00  0.00    +0.000 OA
ATOM     15  C   UNL     1       5.030   3.262  12.510  0.00  0.00    +0.000 C 
ENDBRANCH  11  14
BRANCH   8  16
ATOM     16  C   UNL     1       3.339   5.062  18.357  0.00  0.00    +0.000 C 
BRANCH  16  17
ATOM     17  C   UNL     1       2.696   6.424  18.514  0.00  0.00    +0.000 A 
ATOM     18  C   UNL     1       2.855   7.393  17.508  0.00  0.00    +0.000 A 
ATOM     19  C   UNL     1       2.395   8.707  17.666  0.00  0.00    +0.000 A 
ATOM     20  C   UNL     1       1.771   9.008  18.873  0.00  0.00    +0.000 A 
ATOM     21  O   UNL     1       1.300  10.234  19.231  0.00  0.00    +0.000 OA
ATOM     22  C   UNL     1       0.763  10.105  20.476  0.00  0.00    +0.000 A 
ATOM     23  C   UNL     1       0.178  11.132  21.213  0.00  0.00    +0.000 A 
ATOM     24  C   UNL     1      -0.340  10.788  22.465  0.00  0.00    +0.000 A 
ATOM     25  C   UNL     1      -0.266   9.477  22.942  0.00  0.00    +0.000 A 
ATOM     26  C   UNL     1       0.345   8.466  22.185  0.00  0.00    +0.000 A 
ATOM     27  C   UNL     1       0.873   8.791  20.921  0.00  0.00    +0.000 A 
ATOM     28  C   UNL     1       1.555   8.085  19.887  0.00  0.00    +0.000 A 
ATOM     29  C   UNL     1       2.024   6.768  19.707  0.00  0.00    +0.000 A 
ENDBRANCH  16  17
ENDBRANCH   8  16
TORSDOF 4
ENDMDL
MODEL 6
REMARK VINA RESULT:      -8.0      3.489      9.321
REMARK  Name = 
REMARK  6 active torsions:
REMARK  status: ('A' for Active; 'I' for Inactive)
REMARK    1  A    between atoms: C_1  and  O_2
REMARK    2  A    between atoms: O_2  and  C_3
REMARK    3  A    between atoms: C_10  and  C_11
REMARK    4  A    between atoms: C_11  and  C_12
REMARK    5  A    between atoms: C_27  and  O_28
REMARK    6  A    between atoms: O_28  and  C_29
REMARK                            x       y       z     vdW  Elec       q    Type
REMARK                         _______ _______ _______ _____ _____    ______ ____
ROOT
ATOM      1  C   UNL     1      -4.453  11.761  17.958  0.00  0.00    +0.000 A 
ATOM      2  C   UNL     1      -4.133  12.126  19.272  0.00  0.00    +0.000 A 
ATOM      3  C   UNL     1      -2.812  12.127  19.739  0.00  0.00    +0.000 A 
ATOM      4  C   UNL     1      -2.547  12.517  21.056  0.00  0.00    +0.000 A 
ATOM      5  N   UNL     1      -1.270  12.531  21.565  0.00  0.00    +0.000 N 
ATOM      6  O   UNL     1      -1.052  12.893  22.760  0.00  0.00    +0.000 OA
ATOM      7  C   UNL     1      -0.230  12.129  20.750  0.00  0.00    +0.000 A 
ATOM      8  C   UNL     1      -0.436  11.716  19.423  0.00  0.00    +0.000 A 
ATOM      9  C   UNL     1      -1.753  11.732  18.895  0.00  0.00    +0.000 A 
ATOM     10  C   UNL     1      -2.095  11.357  17.578  0.00  0.00    +0.000 A 
ATOM     11  C   UNL     1      -3.420  11.360  17.101  0.00  0.00    +0.000 A 
ENDROOT
BRANCH   1  13
ATOM     12  C   UNL     1      -6.326  12.998  17.165  0.00  0.00    +0.000 C 
ATOM     13  O   UNL     1      -5.746  11.742  17.508  0.00  0.00    +0.000 OA
ENDBRANCH   1  13
BRANCH  11  14
ATOM     14  O   UNL     1      -3.498  10.952  15.796  0.00  0.00    +0.000 OA
ATOM     15  C   UNL     1      -2.914   9.711  15.425  0.00  0.00    +0.000 C 
ENDBRANCH  11  14
BRANCH   8  16
ATOM     16  C   UNL     1       0.771  11.226  18.650  0.00  0.00    +0.000 C 
BRANCH  16  17
ATOM     17  C   UNL     1       1.227   9.813  18.946  0.00  0.00    +0.000 A 
ATOM     18  C   UNL     1       0.861   9.199  20.157  0.00  0.00    +0.000 A 
ATOM     19  C   UNL     1       1.367   7.949  20.535  0.00  0.00    +0.000 A 
ATOM     20  C   UNL     1       2.255   7.342  19.652  0.00  0.00    +0.000 A 
ATOM     21  O   UNL     1       2.886   6.154  19.862  0.00  0.00    +0.000 OA
ATOM     22  C   UNL     1       3.658   5.915  18.766  0.00  0.00    +0.000 A 
ATOM     23  C   UNL     1       4.476   4.803  18.582  0.00  0.00    +0.000 A 
ATOM     24  C   UNL     1       5.171   4.730  17.372  0.00  0.00    +0.000 A 
ATOM     25  C   UNL     1       5.046   5.731  16.405  0.00  0.00    +0.000 A 
ATOM     26  C   UNL     1       4.228   6.850  16.625  0.00  0.00    +0.000 A 
ATOM     27  C   UNL     1       3.518   6.942  17.838  0.00  0.00    +0.000 A 
ATOM     28  C   UNL     1       2.626   7.884  18.429  0.00  0.00    +0.000 A 
ATOM     29  C   UNL     1       2.104   9.142  18.066  0.00  0.00    +0.000 A 
ENDBRANCH  16  17
ENDBRANCH   8  16
TORSDOF 4
ENDMDL
MODEL 7
REMARK VINA RESULT:      -7.8      1.413      2.072
REMARK  Name = 
REMARK  6 active torsions:
REMARK  status: ('A' for Active; 'I' for Inactive)
REMARK    1  A    between atoms: C_1  and  O_2
REMARK    2  A    between atoms: O_2  and  C_3
REMARK    3  A    between atoms: C_10  and  C_11
REMARK    4  A    between atoms: C_11  and  C_12
REMARK    5  A    between atoms: C_27  and  O_28
REMARK    6  A    between atoms: O_28  and  C_29
REMARK                            x       y       z     vdW  Elec       q    Type
REMARK                         _______ _______ _______ _____ _____    ______ ____
ROOT
ATOM      1  C   UNL     1       6.479   5.040  17.174  0.00  0.00    +0.000 A 
ATOM      2  C   UNL     1       5.414   4.190  17.497  0.00  0.00    +0.000 A 
ATOM      3  C   UNL     1       4.112   4.672  17.683  0.00  0.00    +0.000 A 
ATOM      4  C   UNL     1       3.082   3.777  17.989  0.00  0.00    +0.000 A 
ATOM      5  N   UNL     1       1.788   4.199  18.186  0.00  0.00    +0.000 N 
ATOM      6  O   UNL     1       0.869   3.369  18.457  0.00  0.00    +0.000 OA
ATOM      7  C   UNL     1       1.514   5.549  18.095  0.00  0.00    +0.000 A 
ATOM      8  C   UNL     1       2.509   6.497  17.801  0.00  0.00    +0.000 A 
ATOM      9  C   UNL     1       3.835   6.051  17.571  0.00  0.00    +0.000 A 
ATOM     10  C   UNL     1       4.923   6.894  17.254  0.00  0.00    +0.000 A 
ATOM     11  C   UNL     1       6.233   6.414  17.061  0.00  0.00    +0.000 A 
ENDROOT
BRANCH   1  13
ATOM     12  C   UNL     1       8.525   4.376  18.194  0.00  0.00    +0.000 C 
ATOM     13  O   UNL     1       7.755   4.570  17.011  0.00  0.00    +0.000 OA
ENDBRANCH   1  13
BRANCH  11  14
ATOM     14  O   UNL     1       7.113   7.423  16.770  0.00  0.00    +0.000 OA
ATOM     15  C   UNL     1       7.828   8.041  17.830  0.00  0.00    +0.000 C 
ENDBRANCH  11  14
BRANCH   8  16
ATOM     16  C   UNL     1       2.103   7.957  17.801  0.00  0.00    +0.000 C 
BRANCH  16  17
ATOM     17  C   UNL     1       1.625   8.518  19.124  0.00  0.00    +0.000 A 
ATOM     18  C   UNL     1       1.904   7.830  20.318  0.00  0.00    +0.000 A 
ATOM     19  C   UNL     1       1.370   8.236  21.548  0.00  0.00    +0.000 A 
ATOM     20  C   UNL     1       0.545   9.356  21.531  0.00  0.00    +0.000 A 
ATOM     21  O   UNL     1      -0.100   9.875  22.611  0.00  0.00    +0.000 OA
ATOM     22  C   UNL     1      -0.794  10.963  22.174  0.00  0.00    +0.000 A 
ATOM     23  C   UNL     1      -1.599  11.778  22.967  0.00  0.00    +0.000 A 
ATOM     24  C   UNL     1      -2.208  12.864  22.332  0.00  0.00    +0.000 A 
ATOM     25  C   UNL     1      -2.013  13.107  20.970  0.00  0.00    +0.000 A 
ATOM     26  C   UNL     1      -1.211  12.258  20.192  0.00  0.00    +0.000 A 
ATOM     27  C   UNL     1      -0.588  11.158  20.812  0.00  0.00    +0.000 A 
ATOM     28  C   UNL     1       0.263  10.095  20.390  0.00  0.00    +0.000 A 
ATOM     29  C   UNL     1       0.811   9.671  19.163  0.00  0.00    +0.000 A 
ENDBRANCH  16  17
ENDBRANCH   8  16
TORSDOF 4
ENDMDL
MODEL 8
REMARK VINA RESULT:      -7.8      3.253      9.357
REMARK  Name = 
REMARK  6 active torsions:
REMARK  status: ('A' for Active; 'I' for Inactive)
REMARK    1  A    between atoms: C_1  and  O_2
REMARK    2  A    between atoms: O_2  and  C_3
REMARK    3  A    between atoms: C_10  and  C_11
REMARK    4  A    between atoms: C_11  and  C_12
REMARK    5  A    between atoms: C_27  and  O_28
REMARK    6  A    between atoms: O_28  and  C_29
REMARK                            x       y       z     vdW  Elec       q    Type
REMARK                         _______ _______ _______ _____ _____    ______ ____
ROOT
ATOM      1  C   UNL     1      -3.321  12.352  19.648  0.00  0.00    +0.000 A 
ATOM      2  C   UNL     1      -2.378  12.999  20.457  0.00  0.00    +0.000 A 
ATOM      3  C   UNL     1      -1.001  12.800  20.293  0.00  0.00    +0.000 A 
ATOM      4  C   UNL     1      -0.102  13.484  21.118  0.00  0.00    +0.000 A 
ATOM      5  N   UNL     1       1.258  13.321  21.001  0.00  0.00    +0.000 N 
ATOM      6  O   UNL     1       2.055  13.955  21.756  0.00  0.00    +0.000 OA
ATOM      7  C   UNL     1       1.738  12.440  20.052  0.00  0.00    +0.000 A 
ATOM      8  C   UNL     1       0.884  11.717  19.202  0.00  0.00    +0.000 A 
ATOM      9  C   UNL     1      -0.517  11.912  19.309  0.00  0.00    +0.000 A 
ATOM     10  C   UNL     1      -1.482  11.262  18.509  0.00  0.00    +0.000 A 
ATOM     11  C   UNL     1      -2.867  11.462  18.666  0.00  0.00    +0.000 A 
ENDROOT
BRANCH   1  13
ATOM     12  C   UNL     1      -5.114  12.808  21.147  0.00  0.00    +0.000 C 
ATOM     13  O   UNL     1      -4.667  12.533  19.822  0.00  0.00    +0.000 OA
ENDBRANCH   1  13
BRANCH  11  14
ATOM     14  O   UNL     1      -3.599  10.717  17.780  0.00  0.00    +0.000 OA
ATOM     15  C   UNL     1      -2.927   9.787  16.942  0.00  0.00    +0.000 C 
ENDBRANCH  11  14
BRANCH   8  16
ATOM     16  C   UNL     1       1.523  10.726  18.251  0.00  0.00    +0.000 C 
BRANCH  16  17
ATOM     17  C   UNL     1       1.699   9.316  18.774  0.00  0.00    +0.000 A 
ATOM     18  C   UNL     1       1.198   8.972  20.042  0.00  0.00    +0.000 A 
ATOM     19  C   UNL     1       1.452   7.723  20.624  0.00  0.00    +0.000 A 
ATOM     20  C   UNL     1       2.229   6.836  19.885  0.00  0.00    +0.000 A 
ATOM     21  O   UNL     1       2.621   5.600  20.297  0.00  0.00    +0.000 OA
ATOM     22  C   UNL     1       3.358   5.059  19.288  0.00  0.00    +0.000 A 
ATOM     23  C   UNL     1       3.956   3.802  19.310  0.00  0.00    +0.000 A 
ATOM     24  C   UNL     1       4.651   3.418  18.159  0.00  0.00    +0.000 A 
ATOM     25  C   UNL     1       4.736   4.265  17.051  0.00  0.00    +0.000 A 
ATOM     26  C   UNL     1       4.139   5.535  17.064  0.00  0.00    +0.000 A 
ATOM     27  C   UNL     1       3.433   5.940  18.213  0.00  0.00    +0.000 A 
ATOM     28  C   UNL     1       2.721   7.108  18.615  0.00  0.00    +0.000 A 
ATOM     29  C   UNL     1       2.452   8.369  18.047  0.00  0.00    +0.000 A 
ENDBRANCH  16  17
ENDBRANCH   8  16
TORSDOF 4
ENDMDL
MODEL 9
REMARK VINA RESULT:      -7.8      4.258      9.727
REMARK  Name = 
REMARK  6 active torsions:
REMARK  status: ('A' for Active; 'I' for Inactive)
REMARK    1  A    between atoms: C_1  and  O_2
REMARK    2  A    between atoms: O_2  and  C_3
REMARK    3  A    between atoms: C_10  and  C_11
REMARK    4  A    between atoms: C_11  and  C_12
REMARK    5  A    between atoms: C_27  and  O_28
REMARK    6  A    between atoms: O_28  and  C_29
REMARK                            x       y       z     vdW  Elec       q    Type
REMARK                         _______ _______ _______ _____ _____    ______ ____
ROOT
ATOM      1  C   UNL     1      -4.906  12.058  18.518  0.00  0.00    +0.000 A 
ATOM      2  C   UNL     1      -5.464  12.519  19.717  0.00  0.00    +0.000 A 
ATOM      3  C   UNL     1      -4.671  12.846  20.825  0.00  0.00    +0.000 A 
ATOM      4  C   UNL     1      -5.278  13.318  21.993  0.00  0.00    +0.000 A 
ATOM      5  N   UNL     1      -4.547  13.648  23.109  0.00  0.00    +0.000 N 
ATOM      6  O   UNL     1      -5.118  14.079  24.155  0.00  0.00    +0.000 OA
ATOM      7  C   UNL     1      -3.176  13.487  23.070  0.00  0.00    +0.000 A 
ATOM      8  C   UNL     1      -2.510  13.006  21.930  0.00  0.00    +0.000 A 
ATOM      9  C   UNL     1      -3.269  12.696  20.772  0.00  0.00    +0.000 A 
ATOM     10  C   UNL     1      -2.725  12.220  19.559  0.00  0.00    +0.000 A 
ATOM     11  C   UNL     1      -3.517  11.896  18.441  0.00  0.00    +0.000 A 
ENDROOT
BRANCH   1  13
ATOM     12  C   UNL     1      -6.927  12.405  17.307  0.00  0.00    +0.000 C 
ATOM     13  O   UNL     1      -5.683  11.722  17.442  0.00  0.00    +0.000 OA
ENDBRANCH   1  13
BRANCH  11  14
ATOM     14  O   UNL     1      -2.763  11.451  17.387  0.00  0.00    +0.000 OA
ATOM     15  C   UNL     1      -1.950  10.299  17.559  0.00  0.00    +0.000 C 
ENDBRANCH  11  14
BRANCH   8  16
ATOM     16  C   UNL     1      -1.013  12.801  22.031  0.00  0.00    +0.000 C 
BRANCH  16  17
ATOM     17  C   UNL     1      -0.519  11.380  21.860  0.00  0.00    +0.000 A 
ATOM     18  C   UNL     1      -0.597  10.478  22.936  0.00  0.00    +0.000 A 
ATOM     19  C   UNL     1      -0.032   9.198  22.870  0.00  0.00    +0.000 A 
ATOM     20  C   UNL     1       0.613   8.860  21.684  0.00  0.00    +0.000 A 
ATOM     21  O   UNL     1       1.259   7.687  21.446  0.00  0.00    +0.000 OA
ATOM     22  C   UNL     1       1.747   7.752  20.176  0.00  0.00    +0.000 A 
ATOM     23  C   UNL     1       2.483   6.754  19.542  0.00  0.00    +0.000 A 
ATOM     24  C   UNL     1       2.871   7.005  18.222  0.00  0.00    +0.000 A 
ATOM     25  C   UNL     1       2.534   8.202  17.585  0.00  0.00    +0.000 A 
ATOM     26  C   UNL     1       1.807   9.197  18.255  0.00  0.00    +0.000 A 
ATOM     27  C   UNL     1       1.406   8.965  19.585  0.00  0.00    +0.000 A 
ATOM     28  C   UNL     1       0.691   9.696  20.578  0.00  0.00    +0.000 A 
ATOM     29  C   UNL     1       0.115  10.979  20.664  0.00  0.00    +0.000 A 
ENDBRANCH  16  17
ENDBRANCH   8  16
TORSDOF 4
ENDMDL
