MODEL 1
REMARK VINA RESULT:      -8.5      0.000      0.000
REMARK  Name = 
REMARK  9 active torsions:
REMARK  status: ('A' for Active; 'I' for Inactive)
REMARK    1  A    between atoms: C_1  and  C_2
REMARK    2  A    between atoms: C_2  and  C_3
REMARK    3  A    between atoms: C_3  and  C_4
REMARK    4  A    between atoms: C_3  and  N_5
REMARK    5  A    between atoms: C_6  and  C_8
REMARK    6  A    between atoms: C_12  and  S_13
REMARK    7  A    between atoms: S_13  and  C_14
REMARK    8  A    between atoms: C_14  and  C_15
REMARK    9  A    between atoms: C_15  and  O_17
REMARK                            x       y       z     vdW  Elec       q    Type
REMARK                         _______ _______ _______ _____ _____    ______ ____
ROOT
ATOM      1  C   UNL     1       5.715   5.153  15.628  0.00  0.00    +0.000 A 
ATOM      2  C   UNL     1       5.522   6.462  16.053  0.00  0.00    +0.000 A 
ATOM      3  C   UNL     1       4.627   6.724  17.095  0.00  0.00    +0.000 A 
ATOM      4  C   UNL     1       3.936   5.683  17.786  0.00  0.00    +0.000 A 
ATOM      5  C   UNL     1       3.035   5.839  18.898  0.00  0.00    +0.000 A 
ATOM      6  C   UNL     1       2.437   4.694  19.487  0.00  0.00    +0.000 A 
ATOM      7  C   UNL     1       2.729   3.451  18.911  0.00  0.00    +0.000 A 
ATOM      8  N   UNL     1       3.572   3.301  17.866  0.00  0.00    +0.000 NA
ATOM      9  C   UNL     1       4.164   4.370  17.336  0.00  0.00    +0.000 A 
ATOM     10  C   UNL     1       5.034   4.125  16.284  0.00  0.00    +0.000 A 
ATOM     11  C   UNL     1       2.197   2.144  19.449  0.00  0.00    +0.000 C 
ATOM     12  C   UNL     1       1.059   2.273  20.451  0.00  0.00    +0.000 C 
ATOM     13  C   UNL     1       1.344   3.416  21.406  0.00  0.00    +0.000 C 
ATOM     14  C   UNL     1       1.457   4.737  20.637  0.00  0.00    +0.000 C 
ENDROOT
BRANCH   1  16
ATOM     15  N   UNL     1       6.176   4.008  13.532  0.00  0.00    +0.000 N 
ATOM     16  C   UNL     1       6.650   4.873  14.500  0.00  0.00    +0.000 C 
ATOM     17  O   UNL     1       7.745   5.413  14.460  0.00  0.00    +0.000 OA
ATOM     18  H   UNL     1       5.202   3.740  13.542  0.00  0.00    +0.000 HD
BRANCH  15  19
ATOM     19  C   UNL     1       6.952   3.646  12.351  0.00  0.00    +0.000 C 
ATOM     20  C   UNL     1       7.251   4.892  11.512  0.00  0.00    +0.000 C 
BRANCH  19  22
ATOM     21  C   UNL     1       4.706   2.887  11.386  0.00  0.00    +0.000 C 
ATOM     22  C   UNL     1       6.200   2.604  11.506  0.00  0.00    +0.000 C 
ENDBRANCH  19  22
ENDBRANCH  15  19
ENDBRANCH   1  16
BRANCH   5  23
ATOM     23  S   UNL     1       2.555   7.544  19.336  0.00  0.00    +0.000 S 
BRANCH  23  24
ATOM     24  C   UNL     1       1.755   8.251  17.853  0.00  0.00    +0.000 C 
BRANCH  24  25
ATOM     25  C   UNL     1       1.251   9.666  17.989  0.00  0.00    +0.000 C 
ATOM     26  O   UNL     1       0.151   9.936  18.444  0.00  0.00    +0.000 OA
BRANCH  25  27
ATOM     27  O   UNL     1       2.058  10.612  17.458  0.00  0.00    +0.000 OA
ATOM     28  H   UNL     1       2.995  10.348  17.498  0.00  0.00    +0.000 HD
ENDBRANCH  25  27
ENDBRANCH  24  25
ENDBRANCH  23  24
ENDBRANCH   5  23
TORSDOF 7
ENDMDL
MODEL 2
REMARK VINA RESULT:      -8.4      3.713      8.016
REMARK  Name = 
REMARK  9 active torsions:
REMARK  status: ('A' for Active; 'I' for Inactive)
REMARK    1  A    between atoms: C_1  and  C_2
REMARK    2  A    between atoms: C_2  and  C_3
REMARK    3  A    between atoms: C_3  and  C_4
REMARK    4  A    between atoms: C_3  and  N_5
REMARK    5  A    between atoms: C_6  and  C_8
REMARK    6  A    between atoms: C_12  and  S_13
REMARK    7  A    between atoms: S_13  and  C_14
REMARK    8  A    between atoms: C_14  and  C_15
REMARK    9  A    between atoms: C_15  and  O_17
REMARK                            x       y       z     vdW  Elec       q    Type
REMARK                         _______ _______ _______ _____ _____    ______ ____
ROOT
ATOM      1  C   UNL     1       1.335   9.433  19.157  0.00  0.00    +0.000 A 
ATOM      2  C   UNL     1       2.119   9.378  18.011  0.00  0.00    +0.000 A 
ATOM      3  C   UNL     1       2.843   8.215  17.727  0.00  0.00    +0.000 A 
ATOM      4  C   UNL     1       2.765   7.049  18.548  0.00  0.00    +0.000 A 
ATOM      5  C   UNL     1       3.428   5.791  18.321  0.00  0.00    +0.000 A 
ATOM      6  C   UNL     1       3.234   4.718  19.229  0.00  0.00    +0.000 A 
ATOM      7  C   UNL     1       2.425   4.963  20.347  0.00  0.00    +0.000 A 
ATOM      8  N   UNL     1       1.804   6.143  20.564  0.00  0.00    +0.000 NA
ATOM      9  C   UNL     1       1.954   7.139  19.693  0.00  0.00    +0.000 A 
ATOM     10  C   UNL     1       1.261   8.307  19.978  0.00  0.00    +0.000 A 
ATOM     11  C   UNL     1       2.099   3.910  21.379  0.00  0.00    +0.000 C 
ATOM     12  C   UNL     1       2.962   2.658  21.320  0.00  0.00    +0.000 C 
ATOM     13  C   UNL     1       3.177   2.250  19.875  0.00  0.00    +0.000 C 
ATOM     14  C   UNL     1       3.897   3.365  19.109  0.00  0.00    +0.000 C 
ENDROOT
BRANCH   1  16
ATOM     15  N   UNL     1       0.421  10.954  20.821  0.00  0.00    +0.000 N 
ATOM     16  C   UNL     1       0.581  10.681  19.476  0.00  0.00    +0.000 C 
ATOM     17  O   UNL     1       0.171  11.398  18.576  0.00  0.00    +0.000 OA
ATOM     18  H   UNL     1       0.934  10.412  21.501  0.00  0.00    +0.000 HD
BRANCH  15  19
ATOM     19  C   UNL     1      -0.270  12.144  21.305  0.00  0.00    +0.000 C 
ATOM     20  C   UNL     1       0.711  13.315  21.426  0.00  0.00    +0.000 C 
BRANCH  19  22
ATOM     21  C   UNL     1      -0.878  10.403  23.080  0.00  0.00    +0.000 C 
ATOM     22  C   UNL     1      -0.937  11.869  22.663  0.00  0.00    +0.000 C 
ENDBRANCH  19  22
ENDBRANCH  15  19
ENDBRANCH   1  16
BRANCH   5  23
ATOM     23  S   UNL     1       4.659   5.740  16.975  0.00  0.00    +0.000 S 
BRANCH  23  24
ATOM     24  C   UNL     1       6.248   6.264  17.709  0.00  0.00    +0.000 C 
BRANCH  24  25
ATOM     25  C   UNL     1       6.906   5.268  18.631  0.00  0.00    +0.000 C 
ATOM     26  O   UNL     1       6.942   5.411  19.843  0.00  0.00    +0.000 OA
BRANCH  25  27
ATOM     27  O   UNL     1       7.562   4.263  18.009  0.00  0.00    +0.000 OA
ATOM     28  H   UNL     1       8.482   4.509  17.802  0.00  0.00    +0.000 HD
ENDBRANCH  25  27
ENDBRANCH  24  25
ENDBRANCH  23  24
ENDBRANCH   5  23
TORSDOF 7
ENDMDL
MODEL 3
REMARK VINA RESULT:      -8.3      2.532      4.171
REMARK  Name = 
REMARK  9 active torsions:
REMARK  status: ('A' for Active; 'I' for Inactive)
REMARK    1  A    between atoms: C_1  and  C_2
REMARK    2  A    between atoms: C_2  and  C_3
REMARK    3  A    between atoms: C_3  and  C_4
REMARK    4  A    between atoms: C_3  and  N_5
REMARK    5  A    between atoms: C_6  and  C_8
REMARK    6  A    between atoms: C_12  and  S_13
REMARK    7  A    between atoms: S_13  and  C_14
REMARK    8  A    between atoms: C_14  and  C_15
REMARK    9  A    between atoms: C_15  and  O_17
REMARK                            x       y       z     vdW  Elec       q    Type
REMARK                         _______ _______ _______ _____ _____    ______ ____
ROOT
ATOM      1  C   UNL     1       5.515   4.941  16.114  0.00  0.00    +0.000 A 
ATOM      2  C   UNL     1       5.173   3.981  17.059  0.00  0.00    +0.000 A 
ATOM      3  C   UNL     1       4.305   4.320  18.102  0.00  0.00    +0.000 A 
ATOM      4  C   UNL     1       3.705   5.611  18.206  0.00  0.00    +0.000 A 
ATOM      5  C   UNL     1       2.766   6.046  19.208  0.00  0.00    +0.000 A 
ATOM      6  C   UNL     1       2.247   7.366  19.162  0.00  0.00    +0.000 A 
ATOM      7  C   UNL     1       2.724   8.207  18.147  0.00  0.00    +0.000 A 
ATOM      8  N   UNL     1       3.607   7.804  17.208  0.00  0.00    +0.000 NA
ATOM      9  C   UNL     1       4.066   6.553  17.226  0.00  0.00    +0.000 A 
ATOM     10  C   UNL     1       4.949   6.214  16.211  0.00  0.00    +0.000 A 
ATOM     11  C   UNL     1       2.239   9.624  17.951  0.00  0.00    +0.000 C 
ATOM     12  C   UNL     1       1.447  10.203  19.114  0.00  0.00    +0.000 C 
ATOM     13  C   UNL     1       0.497   9.155  19.660  0.00  0.00    +0.000 C 
ATOM     14  C   UNL     1       1.281   7.941  20.171  0.00  0.00    +0.000 C 
ENDROOT
BRANCH   1  16
ATOM     15  N   UNL     1       5.889   3.997  13.904  0.00  0.00    +0.000 N 
ATOM     16  C   UNL     1       6.460   4.590  15.014  0.00  0.00    +0.000 C 
ATOM     17  O   UNL     1       7.649   4.849  15.119  0.00  0.00    +0.000 OA
ATOM     18  H   UNL     1       4.884   3.974  13.816  0.00  0.00    +0.000 HD
BRANCH  15  19
ATOM     19  C   UNL     1       6.667   3.612  12.731  0.00  0.00    +0.000 C 
ATOM     20  C   UNL     1       7.187   4.858  12.007  0.00  0.00    +0.000 C 
BRANCH  19  22
ATOM     21  C   UNL     1       4.398   3.282  11.594  0.00  0.00    +0.000 C 
ATOM     22  C   UNL     1       5.818   2.757  11.775  0.00  0.00    +0.000 C 
ENDBRANCH  19  22
ENDBRANCH  15  19
ENDBRANCH   1  16
BRANCH   5  23
ATOM     23  S   UNL     1       2.473   4.914  20.608  0.00  0.00    +0.000 S 
BRANCH  23  24
ATOM     24  C   UNL     1       1.017   3.905  20.160  0.00  0.00    +0.000 C 
BRANCH  24  25
ATOM     25  C   UNL     1       1.179   3.019  18.950  0.00  0.00    +0.000 C 
ATOM     26  O   UNL     1       0.928   3.394  17.816  0.00  0.00    +0.000 OA
BRANCH  25  27
ATOM     27  O   UNL     1       1.507   1.736  19.224  0.00  0.00    +0.000 OA
ATOM     28  H   UNL     1       0.716   1.190  19.384  0.00  0.00    +0.000 HD
ENDBRANCH  25  27
ENDBRANCH  24  25
ENDBRANCH  23  24
ENDBRANCH   5  23
TORSDOF 7
ENDMDL
MODEL 4
REMARK VINA RESULT:      -8.2      2.769      4.513
REMARK  Name = 
REMARK  9 active torsions:
REMARK  status: ('A' for Active; 'I' for Inactive)
REMARK    1  A    between atoms: C_1  and  C_2
REMARK    2  A    between atoms: C_2  and  C_3
REMARK    3  A    between atoms: C_3  and  C_4
REMARK    4  A    between atoms: C_3  and  N_5
REMARK    5  A    between atoms: C_6  and  C_8
REMARK    6  A    between atoms: C_12  and  S_13
REMARK    7  A    between atoms: S_13  and  C_14
REMARK    8  A    between atoms: C_14  and  C_15
REMARK    9  A    between atoms: C_15  and  O_17
REMARK                            x       y       z     vdW  Elec       q    Type
REMARK                         _______ _______ _______ _____ _____    ______ ____
ROOT
ATOM      1  C   UNL     1       5.304   5.005  16.492  0.00  0.00    +0.000 A 
ATOM      2  C   UNL     1       4.951   4.146  17.527  0.00  0.00    +0.000 A 
ATOM      3  C   UNL     1       4.085   4.594  18.529  0.00  0.00    +0.000 A 
ATOM      4  C   UNL     1       3.497   5.895  18.503  0.00  0.00    +0.000 A 
ATOM      5  C   UNL     1       2.561   6.436  19.454  0.00  0.00    +0.000 A 
ATOM      6  C   UNL     1       2.056   7.750  19.277  0.00  0.00    +0.000 A 
ATOM      7  C   UNL     1       2.543   8.482  18.185  0.00  0.00    +0.000 A 
ATOM      8  N   UNL     1       3.423   7.979  17.293  0.00  0.00    +0.000 NA
ATOM      9  C   UNL     1       3.870   6.732  17.436  0.00  0.00    +0.000 A 
ATOM     10  C   UNL     1       4.751   6.286  16.462  0.00  0.00    +0.000 A 
ATOM     11  C   UNL     1       2.072   9.877  17.849  0.00  0.00    +0.000 C 
ATOM     12  C   UNL     1       1.284  10.576  18.947  0.00  0.00    +0.000 C 
ATOM     13  C   UNL     1       0.322   9.596  19.591  0.00  0.00    +0.000 C 
ATOM     14  C   UNL     1       1.093   8.431  20.222  0.00  0.00    +0.000 C 
ENDROOT
BRANCH   1  16
ATOM     15  N   UNL     1       5.664   4.147  14.244  0.00  0.00    +0.000 N 
ATOM     16  C   UNL     1       6.248   4.537  15.435  0.00  0.00    +0.000 C 
ATOM     17  O   UNL     1       7.452   4.539  15.641  0.00  0.00    +0.000 OA
ATOM     18  H   UNL     1       4.685   4.337  14.087  0.00  0.00    +0.000 HD
BRANCH  15  19
ATOM     19  C   UNL     1       6.444   3.686  13.101  0.00  0.00    +0.000 C 
ATOM     20  C   UNL     1       7.246   4.846  12.504  0.00  0.00    +0.000 C 
BRANCH  19  22
ATOM     21  C   UNL     1       6.100   1.810  11.394  0.00  0.00    +0.000 C 
ATOM     22  C   UNL     1       5.525   3.070  12.032  0.00  0.00    +0.000 C 
ENDBRANCH  19  22
ENDBRANCH  15  19
ENDBRANCH   1  16
BRANCH   5  23
ATOM     23  S   UNL     1       2.254   5.450  20.959  0.00  0.00    +0.000 S 
BRANCH  23  24
ATOM     24  C   UNL     1       1.084   4.131  20.481  0.00  0.00    +0.000 C 
BRANCH  24  25
ATOM     25  C   UNL     1       1.560   2.717  20.706  0.00  0.00    +0.000 C 
ATOM     26  O   UNL     1       1.591   1.879  19.819  0.00  0.00    +0.000 OA
BRANCH  25  27
ATOM     27  O   UNL     1       1.837   2.408  21.993  0.00  0.00    +0.000 OA
ATOM     28  H   UNL     1       1.150   1.837  22.380  0.00  0.00    +0.000 HD
ENDBRANCH  25  27
ENDBRANCH  24  25
ENDBRANCH  23  24
ENDBRANCH   5  23
TORSDOF 7
ENDMDL
MODEL 5
REMARK VINA RESULT:      -8.1      3.710      7.727
REMARK  Name = 
REMARK  9 active torsions:
REMARK  status: ('A' for Active; 'I' for Inactive)
REMARK    1  A    between atoms: C_1  and  C_2
REMARK    2  A    between atoms: C_2  and  C_3
REMARK    3  A    between atoms: C_3  and  C_4
REMARK    4  A    between atoms: C_3  and  N_5
REMARK    5  A    between atoms: C_6  and  C_8
REMARK    6  A    between atoms: C_12  and  S_13
REMARK    7  A    between atoms: S_13  and  C_14
REMARK    8  A    between atoms: C_14  and  C_15
REMARK    9  A    between atoms: C_15  and  O_17
REMARK                            x       y       z     vdW  Elec       q    Type
REMARK                         _______ _______ _______ _____ _____    ______ ____
ROOT
ATOM      1  C   UNL     1       1.440   9.345  19.226  0.00  0.00    +0.000 A 
ATOM      2  C   UNL     1       2.194   9.277  18.059  0.00  0.00    +0.000 A 
ATOM      3  C   UNL     1       2.879   8.097  17.750  0.00  0.00    +0.000 A 
ATOM      4  C   UNL     1       2.792   6.928  18.565  0.00  0.00    +0.000 A 
ATOM      5  C   UNL     1       3.415   5.655  18.314  0.00  0.00    +0.000 A 
ATOM      6  C   UNL     1       3.216   4.581  19.220  0.00  0.00    +0.000 A 
ATOM      7  C   UNL     1       2.442   4.840  20.360  0.00  0.00    +0.000 A 
ATOM      8  N   UNL     1       1.858   6.034  20.600  0.00  0.00    +0.000 NA
ATOM      9  C   UNL     1       2.012   7.032  19.732  0.00  0.00    +0.000 A 
ATOM     10  C   UNL     1       1.358   8.215  20.041  0.00  0.00    +0.000 A 
ATOM     11  C   UNL     1       2.114   3.788  21.394  0.00  0.00    +0.000 C 
ATOM     12  C   UNL     1       2.943   2.515  21.305  0.00  0.00    +0.000 C 
ATOM     13  C   UNL     1       3.110   2.112  19.853  0.00  0.00    +0.000 C 
ATOM     14  C   UNL     1       3.839   3.212  19.075  0.00  0.00    +0.000 C 
ENDROOT
BRANCH   1  16
ATOM     15  N   UNL     1      -0.350  10.927  18.765  0.00  0.00    +0.000 N 
ATOM     16  C   UNL     1       0.728  10.610  19.571  0.00  0.00    +0.000 C 
ATOM     17  O   UNL     1       1.092  11.280  20.525  0.00  0.00    +0.000 OA
ATOM     18  H   UNL     1      -0.696  10.242  18.109  0.00  0.00    +0.000 HD
BRANCH  15  19
ATOM     19  C   UNL     1      -1.168  12.115  18.978  0.00  0.00    +0.000 C 
ATOM     20  C   UNL     1      -2.606  11.858  18.517  0.00  0.00    +0.000 C 
BRANCH  19  22
ATOM     21  C   UNL     1      -0.307  14.520  19.130  0.00  0.00    +0.000 C 
ATOM     22  C   UNL     1      -0.578  13.321  18.228  0.00  0.00    +0.000 C 
ENDBRANCH  19  22
ENDBRANCH  15  19
ENDBRANCH   1  16
BRANCH   5  23
ATOM     23  S   UNL     1       4.609   5.581  16.936  0.00  0.00    +0.000 S 
BRANCH  23  24
ATOM     24  C   UNL     1       6.209   6.151  17.610  0.00  0.00    +0.000 C 
BRANCH  24  25
ATOM     25  C   UNL     1       6.875   5.224  18.596  0.00  0.00    +0.000 C 
ATOM     26  O   UNL     1       6.764   5.352  19.805  0.00  0.00    +0.000 OA
BRANCH  25  27
ATOM     27  O   UNL     1       7.706   4.310  18.046  0.00  0.00    +0.000 OA
ATOM     28  H   UNL     1       7.238   3.483  17.832  0.00  0.00    +0.000 HD
ENDBRANCH  25  27
ENDBRANCH  24  25
ENDBRANCH  23  24
ENDBRANCH   5  23
TORSDOF 7
ENDMDL
MODEL 6
REMARK VINA RESULT:      -8.1      3.659      7.745
REMARK  Name = 
REMARK  9 active torsions:
REMARK  status: ('A' for Active; 'I' for Inactive)
REMARK    1  A    between atoms: C_1  and  C_2
REMARK    2  A    between atoms: C_2  and  C_3
REMARK    3  A    between atoms: C_3  and  C_4
REMARK    4  A    between atoms: C_3  and  N_5
REMARK    5  A    between atoms: C_6  and  C_8
REMARK    6  A    between atoms: C_12  and  S_13
REMARK    7  A    between atoms: S_13  and  C_14
REMARK    8  A    between atoms: C_14  and  C_15
REMARK    9  A    between atoms: C_15  and  O_17
REMARK                            x       y       z     vdW  Elec       q    Type
REMARK                         _______ _______ _______ _____ _____    ______ ____
ROOT
ATOM      1  C   UNL     1       1.543   9.524  19.013  0.00  0.00    +0.000 A 
ATOM      2  C   UNL     1       2.311   9.388  17.863  0.00  0.00    +0.000 A 
ATOM      3  C   UNL     1       2.956   8.173  17.604  0.00  0.00    +0.000 A 
ATOM      4  C   UNL     1       2.812   7.037  18.456  0.00  0.00    +0.000 A 
ATOM      5  C   UNL     1       3.390   5.733  18.258  0.00  0.00    +0.000 A 
ATOM      6  C   UNL     1       3.136   4.699  19.196  0.00  0.00    +0.000 A 
ATOM      7  C   UNL     1       2.355   5.025  20.314  0.00  0.00    +0.000 A 
ATOM      8  N   UNL     1       1.814   6.248  20.505  0.00  0.00    +0.000 NA
ATOM      9  C   UNL     1       2.019   7.210  19.606  0.00  0.00    +0.000 A 
ATOM     10  C   UNL     1       1.406   8.426  19.865  0.00  0.00    +0.000 A 
ATOM     11  C   UNL     1       1.973   4.023  21.377  0.00  0.00    +0.000 C 
ATOM     12  C   UNL     1       2.753   2.717  21.345  0.00  0.00    +0.000 C 
ATOM     13  C   UNL     1       2.927   2.258  19.910  0.00  0.00    +0.000 C 
ATOM     14  C   UNL     1       3.709   3.304  19.108  0.00  0.00    +0.000 C 
ENDROOT
BRANCH   1  16
ATOM     15  N   UNL     1      -0.396  10.737  19.840  0.00  0.00    +0.000 N 
ATOM     16  C   UNL     1       0.875  10.826  19.304  0.00  0.00    +0.000 C 
ATOM     17  O   UNL     1       1.457  11.877  19.090  0.00  0.00    +0.000 OA
ATOM     18  H   UNL     1      -0.742   9.840  20.150  0.00  0.00    +0.000 HD
BRANCH  15  19
ATOM     19  C   UNL     1      -1.180  11.912  20.204  0.00  0.00    +0.000 C 
ATOM     20  C   UNL     1      -1.542  11.868  21.692  0.00  0.00    +0.000 C 
BRANCH  19  22
ATOM     21  C   UNL     1      -2.248  11.554  17.906  0.00  0.00    +0.000 C 
ATOM     22  C   UNL     1      -2.456  11.997  19.350  0.00  0.00    +0.000 C 
ENDBRANCH  19  22
ENDBRANCH  15  19
ENDBRANCH   1  16
BRANCH   5  23
ATOM     23  S   UNL     1       4.601   5.568  16.904  0.00  0.00    +0.000 S 
BRANCH  23  24
ATOM     24  C   UNL     1       6.204   6.136  17.573  0.00  0.00    +0.000 C 
BRANCH  24  25
ATOM     25  C   UNL     1       6.856   5.223  18.581  0.00  0.00    +0.000 C 
ATOM     26  O   UNL     1       6.764   5.394  19.786  0.00  0.00    +0.000 OA
BRANCH  25  27
ATOM     27  O   UNL     1       7.654   4.269  18.052  0.00  0.00    +0.000 OA
ATOM     28  H   UNL     1       8.370   4.656  17.517  0.00  0.00    +0.000 HD
ENDBRANCH  25  27
ENDBRANCH  24  25
ENDBRANCH  23  24
ENDBRANCH   5  23
TORSDOF 7
ENDMDL
MODEL 7
REMARK VINA RESULT:      -8.0      3.477      8.204
REMARK  Name = 
REMARK  9 active torsions:
REMARK  status: ('A' for Active; 'I' for Inactive)
REMARK    1  A    between atoms: C_1  and  C_2
REMARK    2  A    between atoms: C_2  and  C_3
REMARK    3  A    between atoms: C_3  and  C_4
REMARK    4  A    between atoms: C_3  and  N_5
REMARK    5  A    between atoms: C_6  and  C_8
REMARK    6  A    between atoms: C_12  and  S_13
REMARK    7  A    between atoms: S_13  and  C_14
REMARK    8  A    between atoms: C_14  and  C_15
REMARK    9  A    between atoms: C_15  and  O_17
REMARK                            x       y       z     vdW  Elec       q    Type
REMARK                         _______ _______ _______ _____ _____    ______ ____
ROOT
ATOM      1  C   UNL     1       1.526   8.660  19.374  0.00  0.00    +0.000 A 
ATOM      2  C   UNL     1       1.509   7.683  20.363  0.00  0.00    +0.000 A 
ATOM      3  C   UNL     1       2.256   6.514  20.189  0.00  0.00    +0.000 A 
ATOM      4  C   UNL     1       3.090   6.304  19.049  0.00  0.00    +0.000 A 
ATOM      5  C   UNL     1       3.933   5.164  18.797  0.00  0.00    +0.000 A 
ATOM      6  C   UNL     1       4.717   5.114  17.616  0.00  0.00    +0.000 A 
ATOM      7  C   UNL     1       4.590   6.181  16.717  0.00  0.00    +0.000 A 
ATOM      8  N   UNL     1       3.798   7.251  16.948  0.00  0.00    +0.000 NA
ATOM      9  C   UNL     1       3.090   7.318  18.075  0.00  0.00    +0.000 A 
ATOM     10  C   UNL     1       2.324   8.462  18.245  0.00  0.00    +0.000 A 
ATOM     11  C   UNL     1       5.385   6.285  15.437  0.00  0.00    +0.000 C 
ATOM     12  C   UNL     1       6.091   5.006  15.010  0.00  0.00    +0.000 C 
ATOM     13  C   UNL     1       6.704   4.330  16.221  0.00  0.00    +0.000 C 
ATOM     14  C   UNL     1       5.615   3.960  17.233  0.00  0.00    +0.000 C 
ENDROOT
BRANCH   1  16
ATOM     15  N   UNL     1       0.454  10.267  20.851  0.00  0.00    +0.000 N 
ATOM     16  C   UNL     1       0.710   9.897  19.544  0.00  0.00    +0.000 C 
ATOM     17  O   UNL     1       0.333  10.525  18.567  0.00  0.00    +0.000 OA
ATOM     18  H   UNL     1       0.941   9.801  21.603  0.00  0.00    +0.000 HD
BRANCH  15  19
ATOM     19  C   UNL     1      -0.309  11.462  21.195  0.00  0.00    +0.000 C 
ATOM     20  C   UNL     1       0.590  12.701  21.133  0.00  0.00    +0.000 C 
BRANCH  19  22
ATOM     21  C   UNL     1      -0.596  10.001  23.277  0.00  0.00    +0.000 C 
ATOM     22  C   UNL     1      -0.928  11.325  22.597  0.00  0.00    +0.000 C 
ENDBRANCH  19  22
ENDBRANCH  15  19
ENDBRANCH   1  16
BRANCH   5  23
ATOM     23  S   UNL     1       3.762   3.747  19.934  0.00  0.00    +0.000 S 
BRANCH  23  24
ATOM     24  C   UNL     1       2.166   2.953  19.533  0.00  0.00    +0.000 C 
BRANCH  24  25
ATOM     25  C   UNL     1       1.779   2.956  18.075  0.00  0.00    +0.000 C 
ATOM     26  O   UNL     1       1.040   3.796  17.587  0.00  0.00    +0.000 OA
BRANCH  25  27
ATOM     27  O   UNL     1       2.213   1.887  17.369  0.00  0.00    +0.000 OA
ATOM     28  H   UNL     1       2.047   1.996  16.415  0.00  0.00    +0.000 HD
ENDBRANCH  25  27
ENDBRANCH  24  25
ENDBRANCH  23  24
ENDBRANCH   5  23
TORSDOF 7
ENDMDL
MODEL 8
REMARK VINA RESULT:      -8.0      3.562      8.187
REMARK  Name = 
REMARK  9 active torsions:
REMARK  status: ('A' for Active; 'I' for Inactive)
REMARK    1  A    between atoms: C_1  and  C_2
REMARK    2  A    between atoms: C_2  and  C_3
REMARK    3  A    between atoms: C_3  and  C_4
REMARK    4  A    between atoms: C_3  and  N_5
REMARK    5  A    between atoms: C_6  and  C_8
REMARK    6  A    between atoms: C_12  and  S_13
REMARK    7  A    between atoms: S_13  and  C_14
REMARK    8  A    between atoms: C_14  and  C_15
REMARK    9  A    between atoms: C_15  and  O_17
REMARK                            x       y       z     vdW  Elec       q    Type
REMARK                         _______ _______ _______ _____ _____    ______ ____
ROOT
ATOM      1  C   UNL     1       1.688   8.450  19.284  0.00  0.00    +0.000 A 
ATOM      2  C   UNL     1       1.752   7.491  20.288  0.00  0.00    +0.000 A 
ATOM      3  C   UNL     1       2.540   6.351  20.103  0.00  0.00    +0.000 A 
ATOM      4  C   UNL     1       3.335   6.156  18.933  0.00  0.00    +0.000 A 
ATOM      5  C   UNL     1       4.214   5.047  18.665  0.00  0.00    +0.000 A 
ATOM      6  C   UNL     1       4.951   5.009  17.453  0.00  0.00    +0.000 A 
ATOM      7  C   UNL     1       4.743   6.054  16.543  0.00  0.00    +0.000 A 
ATOM      8  N   UNL     1       3.917   7.094  16.790  0.00  0.00    +0.000 NA
ATOM      9  C   UNL     1       3.253   7.152  17.943  0.00  0.00    +0.000 A 
ATOM     10  C   UNL     1       2.447   8.266  18.127  0.00  0.00    +0.000 A 
ATOM     11  C   UNL     1       5.480   6.168  15.230  0.00  0.00    +0.000 C 
ATOM     12  C   UNL     1       6.222   4.912  14.795  0.00  0.00    +0.000 C 
ATOM     13  C   UNL     1       6.912   4.283  15.990  0.00  0.00    +0.000 C 
ATOM     14  C   UNL     1       5.880   3.887  17.051  0.00  0.00    +0.000 C 
ENDROOT
BRANCH   1  16
ATOM     15  N   UNL     1       0.685  10.092  20.772  0.00  0.00    +0.000 N 
ATOM     16  C   UNL     1       0.828   9.655  19.469  0.00  0.00    +0.000 C 
ATOM     17  O   UNL     1       0.322  10.204  18.502  0.00  0.00    +0.000 OA
ATOM     18  H   UNL     1       1.269   9.697  21.494  0.00  0.00    +0.000 HD
BRANCH  15  19
ATOM     19  C   UNL     1      -0.102  11.268  21.126  0.00  0.00    +0.000 C 
ATOM     20  C   UNL     1       0.767  12.528  21.057  0.00  0.00    +0.000 C 
BRANCH  19  22
ATOM     21  C   UNL     1      -0.403   9.765  23.175  0.00  0.00    +0.000 C 
ATOM     22  C   UNL     1      -0.704  11.115  22.533  0.00  0.00    +0.000 C 
ENDBRANCH  19  22
ENDBRANCH  15  19
ENDBRANCH   1  16
BRANCH   5  23
ATOM     23  S   UNL     1       4.149   3.645  19.830  0.00  0.00    +0.000 S 
BRANCH  23  24
ATOM     24  C   UNL     1       2.540   2.823  19.560  0.00  0.00    +0.000 C 
BRANCH  24  25
ATOM     25  C   UNL     1       1.583   2.852  20.725  0.00  0.00    +0.000 C 
ATOM     26  O   UNL     1       1.922   2.583  21.867  0.00  0.00    +0.000 OA
BRANCH  25  27
ATOM     27  O   UNL     1       0.291   3.079  20.396  0.00  0.00    +0.000 OA
ATOM     28  H   UNL     1       0.165   3.095  19.431  0.00  0.00    +0.000 HD
ENDBRANCH  25  27
ENDBRANCH  24  25
ENDBRANCH  23  24
ENDBRANCH   5  23
TORSDOF 7
ENDMDL
MODEL 9
REMARK VINA RESULT:      -7.9      3.512      7.966
REMARK  Name = 
REMARK  9 active torsions:
REMARK  status: ('A' for Active; 'I' for Inactive)
REMARK    1  A    between atoms: C_1  and  C_2
REMARK    2  A    between atoms: C_2  and  C_3
REMARK    3  A    between atoms: C_3  and  C_4
REMARK    4  A    between atoms: C_3  and  N_5
REMARK    5  A    between atoms: C_6  and  C_8
REMARK    6  A    between atoms: C_12  and  S_13
REMARK    7  A    between atoms: S_13  and  C_14
REMARK    8  A    between atoms: C_14  and  C_15
REMARK    9  A    between atoms: C_15  and  O_17
REMARK                            x       y       z     vdW  Elec       q    Type
REMARK                         _______ _______ _______ _____ _____    ______ ____
ROOT
ATOM      1  C   UNL     1       1.310   9.457  19.027  0.00  0.00    +0.000 A 
ATOM      2  C   UNL     1       1.106   8.617  20.116  0.00  0.00    +0.000 A 
ATOM      3  C   UNL     1       1.744   7.372  20.155  0.00  0.00    +0.000 A 
ATOM      4  C   UNL     1       2.649   6.947  19.135  0.00  0.00    +0.000 A 
ATOM      5  C   UNL     1       3.391   5.714  19.102  0.00  0.00    +0.000 A 
ATOM      6  C   UNL     1       4.267   5.446  18.018  0.00  0.00    +0.000 A 
ATOM      7  C   UNL     1       4.328   6.400  16.993  0.00  0.00    +0.000 A 
ATOM      8  N   UNL     1       3.631   7.557  17.019  0.00  0.00    +0.000 NA
ATOM      9  C   UNL     1       2.837   7.828  18.054  0.00  0.00    +0.000 A 
ATOM     10  C   UNL     1       2.179   9.048  18.014  0.00  0.00    +0.000 A 
ATOM     11  C   UNL     1       5.238   6.271  15.795  0.00  0.00    +0.000 C 
ATOM     12  C   UNL     1       5.846   4.891  15.592  0.00  0.00    +0.000 C 
ATOM     13  C   UNL     1       6.279   4.319  16.927  0.00  0.00    +0.000 C 
ATOM     14  C   UNL     1       5.073   4.178  17.862  0.00  0.00    +0.000 C 
ENDROOT
BRANCH   1  16
ATOM     15  N   UNL     1      -0.759  10.731  19.148  0.00  0.00    +0.000 N 
ATOM     16  C   UNL     1       0.611  10.774  18.972  0.00  0.00    +0.000 C 
ATOM     17  O   UNL     1       1.249  11.802  18.804  0.00  0.00    +0.000 OA
ATOM     18  H   UNL     1      -1.192   9.871  19.454  0.00  0.00    +0.000 HD
BRANCH  15  19
ATOM     19  C   UNL     1      -1.591  11.929  19.145  0.00  0.00    +0.000 C 
ATOM     20  C   UNL     1      -2.017  12.282  20.573  0.00  0.00    +0.000 C 
BRANCH  19  22
ATOM     21  C   UNL     1      -2.515  11.053  16.925  0.00  0.00    +0.000 C 
ATOM     22  C   UNL     1      -2.830  11.727  18.256  0.00  0.00    +0.000 C 
ENDBRANCH  19  22
ENDBRANCH  15  19
ENDBRANCH   1  16
BRANCH   5  23
ATOM     23  S   UNL     1       2.978   4.471  20.373  0.00  0.00    +0.000 S 
BRANCH  23  24
ATOM     24  C   UNL     1       1.397   3.713  19.858  0.00  0.00    +0.000 C 
BRANCH  24  25
ATOM     25  C   UNL     1       1.384   3.091  18.484  0.00  0.00    +0.000 C 
ATOM     26  O   UNL     1       1.136   3.726  17.471  0.00  0.00    +0.000 OA
BRANCH  25  27
ATOM     27  O   UNL     1       1.546   1.748  18.465  0.00  0.00    +0.000 OA
ATOM     28  H   UNL     1       0.771   1.299  18.081  0.00  0.00    +0.000 HD
ENDBRANCH  25  27
ENDBRANCH  24  25
ENDBRANCH  23  24
ENDBRANCH   5  23
TORSDOF 7
ENDMDL
