MODEL 1
REMARK VINA RESULT:      -6.1      0.000      0.000
REMARK  Name = 
REMARK  7 active torsions:
REMARK  status: ('A' for Active; 'I' for Inactive)
REMARK    1  A    between atoms: C_1  and  N_2
REMARK    2  A    between atoms: N_2  and  C_3
REMARK    3  A    between atoms: N_2  and  C_4
REMARK    4  A    between atoms: C_4  and  C_5
REMARK    5  A    between atoms: C_5  and  N_6
REMARK    6  A    between atoms: N_6  and  C_7
REMARK    7  A    between atoms: N_6  and  C_8
REMARK                            x       y       z     vdW  Elec       q    Type
REMARK                         _______ _______ _______ _____ _____    ______ ____
ROOT
ATOM      1  C   UNL     1       5.206   5.171  17.008  0.00  0.00    +0.000 A 
ATOM      2  C   UNL     1       5.126   6.569  17.095  0.00  0.00    +0.000 A 
ATOM      3  C   UNL     1       3.964   7.166  17.547  0.00  0.00    +0.000 A 
ATOM      4  N   UNL     1       2.875   6.482  17.934  0.00  0.00    +0.000 NA
ATOM      5  C   UNL     1       2.916   5.150  17.864  0.00  0.00    +0.000 A 
ATOM      6  C   UNL     1       1.773   4.457  18.246  0.00  0.00    +0.000 A 
ATOM      7  C   UNL     1       1.700   3.067  18.211  0.00  0.00    +0.000 A 
ATOM      8  C   UNL     1       2.789   2.339  17.766  0.00  0.00    +0.000 A 
ATOM      9  C   UNL     1       3.937   3.013  17.345  0.00  0.00    +0.000 A 
ATOM     10  C   UNL     1       4.048   4.424  17.410  0.00  0.00    +0.000 A 
ENDROOT
BRANCH   1  11
ATOM     11  N   UNL     1       6.375   4.525  16.510  0.00  0.00    +0.000 N 
ATOM     12  C   UNL     1       7.520   4.620  17.432  0.00  0.00    +0.000 C 
BRANCH  11  13
ATOM     13  C   UNL     1       6.694   4.765  15.077  0.00  0.00    +0.000 C 
BRANCH  13  14
ATOM     14  C   UNL     1       6.129   3.648  14.164  0.00  0.00    +0.000 C 
BRANCH  14  16
ATOM     15  C   UNL     1       7.377   4.424  12.263  0.00  0.00    +0.000 C 
ATOM     16  N   UNL     1       6.058   3.967  12.719  0.00  0.00    +0.000 NA
ATOM     17  C   UNL     1       5.642   2.819  11.913  0.00  0.00    +0.000 C 
ENDBRANCH  14  16
ENDBRANCH  13  14
ENDBRANCH  11  13
ENDBRANCH   1  11
TORSDOF 4
ENDMDL
MODEL 2
REMARK VINA RESULT:      -6.0      2.151      5.768
REMARK  Name = 
REMARK  7 active torsions:
REMARK  status: ('A' for Active; 'I' for Inactive)
REMARK    1  A    between atoms: C_1  and  N_2
REMARK    2  A    between atoms: N_2  and  C_3
REMARK    3  A    between atoms: N_2  and  C_4
REMARK    4  A    between atoms: C_4  and  C_5
REMARK    5  A    between atoms: C_5  and  N_6
REMARK    6  A    between atoms: N_6  and  C_7
REMARK    7  A    between atoms: N_6  and  C_8
REMARK                            x       y       z     vdW  Elec       q    Type
REMARK                         _______ _______ _______ _____ _____    ______ ____
ROOT
ATOM      1  C   UNL     1       4.372   5.341  18.093  0.00  0.00    +0.000 A 
ATOM      2  C   UNL     1       5.002   5.403  19.346  0.00  0.00    +0.000 A 
ATOM      3  C   UNL     1       6.360   5.171  19.447  0.00  0.00    +0.000 A 
ATOM      4  N   UNL     1       7.150   4.893  18.397  0.00  0.00    +0.000 NA
ATOM      5  C   UNL     1       6.584   4.826  17.190  0.00  0.00    +0.000 A 
ATOM      6  C   UNL     1       7.411   4.514  16.116  0.00  0.00    +0.000 A 
ATOM      7  C   UNL     1       6.930   4.414  14.813  0.00  0.00    +0.000 A 
ATOM      8  C   UNL     1       5.583   4.610  14.567  0.00  0.00    +0.000 A 
ATOM      9  C   UNL     1       4.726   4.890  15.634  0.00  0.00    +0.000 A 
ATOM     10  C   UNL     1       5.199   5.037  16.961  0.00  0.00    +0.000 A 
ENDROOT
BRANCH   1  11
ATOM     11  N   UNL     1       2.966   5.537  17.960  0.00  0.00    +0.000 N 
ATOM     12  C   UNL     1       2.484   6.733  18.673  0.00  0.00    +0.000 C 
BRANCH  11  13
ATOM     13  C   UNL     1       2.119   4.325  18.113  0.00  0.00    +0.000 C 
BRANCH  13  14
ATOM     14  C   UNL     1       1.389   4.299  19.479  0.00  0.00    +0.000 C 
BRANCH  14  16
ATOM     15  C   UNL     1       1.858   1.952  19.258  0.00  0.00    +0.000 C 
ATOM     16  N   UNL     1       1.142   2.956  20.056  0.00  0.00    +0.000 NA
ATOM     17  C   UNL     1       1.573   2.860  21.450  0.00  0.00    +0.000 C 
ENDBRANCH  14  16
ENDBRANCH  13  14
ENDBRANCH  11  13
ENDBRANCH   1  11
TORSDOF 4
ENDMDL
MODEL 3
REMARK VINA RESULT:      -6.0      1.898      3.658
REMARK  Name = 
REMARK  7 active torsions:
REMARK  status: ('A' for Active; 'I' for Inactive)
REMARK    1  A    between atoms: C_1  and  N_2
REMARK    2  A    between atoms: N_2  and  C_3
REMARK    3  A    between atoms: N_2  and  C_4
REMARK    4  A    between atoms: C_4  and  C_5
REMARK    5  A    between atoms: C_5  and  N_6
REMARK    6  A    between atoms: N_6  and  C_7
REMARK    7  A    between atoms: N_6  and  C_8
REMARK                            x       y       z     vdW  Elec       q    Type
REMARK                         _______ _______ _______ _____ _____    ______ ____
ROOT
ATOM      1  C   UNL     1       3.528   4.802  18.150  0.00  0.00    +0.000 A 
ATOM      2  C   UNL     1       3.546   4.152  16.907  0.00  0.00    +0.000 A 
ATOM      3  C   UNL     1       2.886   2.948  16.749  0.00  0.00    +0.000 A 
ATOM      4  N   UNL     1       2.194   2.342  17.728  0.00  0.00    +0.000 NA
ATOM      5  C   UNL     1       2.155   2.933  18.924  0.00  0.00    +0.000 A 
ATOM      6  C   UNL     1       1.455   2.282  19.933  0.00  0.00    +0.000 A 
ATOM      7  C   UNL     1       1.350   2.803  21.221  0.00  0.00    +0.000 A 
ATOM      8  C   UNL     1       1.976   3.999  21.524  0.00  0.00    +0.000 A 
ATOM      9  C   UNL     1       2.714   4.655  20.536  0.00  0.00    +0.000 A 
ATOM     10  C   UNL     1       2.800   4.165  19.211  0.00  0.00    +0.000 A 
ENDROOT
BRANCH   1  11
ATOM     11  N   UNL     1       4.231   6.025  18.357  0.00  0.00    +0.000 N 
ATOM     12  C   UNL     1       3.643   7.157  17.619  0.00  0.00    +0.000 C 
BRANCH  11  13
ATOM     13  C   UNL     1       5.715   5.942  18.312  0.00  0.00    +0.000 C 
BRANCH  13  14
ATOM     14  C   UNL     1       6.285   6.508  16.987  0.00  0.00    +0.000 C 
BRANCH  14  16
ATOM     15  C   UNL     1       7.621   4.516  17.141  0.00  0.00    +0.000 C 
ATOM     16  N   UNL     1       7.237   5.630  16.265  0.00  0.00    +0.000 NA
ATOM     17  C   UNL     1       6.672   5.095  15.026  0.00  0.00    +0.000 C 
ENDBRANCH  14  16
ENDBRANCH  13  14
ENDBRANCH  11  13
ENDBRANCH   1  11
TORSDOF 4
ENDMDL
MODEL 4
REMARK VINA RESULT:      -5.9      2.075      5.940
REMARK  Name = 
REMARK  7 active torsions:
REMARK  status: ('A' for Active; 'I' for Inactive)
REMARK    1  A    between atoms: C_1  and  N_2
REMARK    2  A    between atoms: N_2  and  C_3
REMARK    3  A    between atoms: N_2  and  C_4
REMARK    4  A    between atoms: C_4  and  C_5
REMARK    5  A    between atoms: C_5  and  N_6
REMARK    6  A    between atoms: N_6  and  C_7
REMARK    7  A    between atoms: N_6  and  C_8
REMARK                            x       y       z     vdW  Elec       q    Type
REMARK                         _______ _______ _______ _____ _____    ______ ____
ROOT
ATOM      1  C   UNL     1       4.592   4.257  17.215  0.00  0.00    +0.000 A 
ATOM      2  C   UNL     1       4.460   4.308  15.818  0.00  0.00    +0.000 A 
ATOM      3  C   UNL     1       5.380   5.010  15.064  0.00  0.00    +0.000 A 
ATOM      4  N   UNL     1       6.434   5.660  15.586  0.00  0.00    +0.000 NA
ATOM      5  C   UNL     1       6.590   5.632  16.912  0.00  0.00    +0.000 A 
ATOM      6  C   UNL     1       7.672   6.329  17.439  0.00  0.00    +0.000 A 
ATOM      7  C   UNL     1       7.932   6.373  18.806  0.00  0.00    +0.000 A 
ATOM      8  C   UNL     1       7.082   5.722  19.682  0.00  0.00    +0.000 A 
ATOM      9  C   UNL     1       5.969   5.045  19.180  0.00  0.00    +0.000 A 
ATOM     10  C   UNL     1       5.708   4.952  17.791  0.00  0.00    +0.000 A 
ENDROOT
BRANCH   1  11
ATOM     11  N   UNL     1       3.639   3.573  18.025  0.00  0.00    +0.000 N 
ATOM     12  C   UNL     1       3.616   2.120  17.782  0.00  0.00    +0.000 C 
BRANCH  11  13
ATOM     13  C   UNL     1       2.304   4.216  18.147  0.00  0.00    +0.000 C 
BRANCH  13  14
ATOM     14  C   UNL     1       1.314   3.341  18.958  0.00  0.00    +0.000 C 
BRANCH  14  16
ATOM     15  C   UNL     1       1.438   2.789  21.293  0.00  0.00    +0.000 C 
ATOM     16  N   UNL     1       1.009   3.811  20.330  0.00  0.00    +0.000 NA
ATOM     17  C   UNL     1       1.672   5.077  20.646  0.00  0.00    +0.000 C 
ENDBRANCH  14  16
ENDBRANCH  13  14
ENDBRANCH  11  13
ENDBRANCH   1  11
TORSDOF 4
ENDMDL
MODEL 5
REMARK VINA RESULT:      -5.9      2.103      5.325
REMARK  Name = 
REMARK  7 active torsions:
REMARK  status: ('A' for Active; 'I' for Inactive)
REMARK    1  A    between atoms: C_1  and  N_2
REMARK    2  A    between atoms: N_2  and  C_3
REMARK    3  A    between atoms: N_2  and  C_4
REMARK    4  A    between atoms: C_4  and  C_5
REMARK    5  A    between atoms: C_5  and  N_6
REMARK    6  A    between atoms: N_6  and  C_7
REMARK    7  A    between atoms: N_6  and  C_8
REMARK                            x       y       z     vdW  Elec       q    Type
REMARK                         _______ _______ _______ _____ _____    ______ ____
ROOT
ATOM      1  C   UNL     1       5.048   5.247  18.379  0.00  0.00    +0.000 A 
ATOM      2  C   UNL     1       6.025   5.540  19.344  0.00  0.00    +0.000 A 
ATOM      3  C   UNL     1       7.362   5.521  18.998  0.00  0.00    +0.000 A 
ATOM      4  N   UNL     1       7.811   5.246  17.762  0.00  0.00    +0.000 NA
ATOM      5  C   UNL     1       6.909   4.962  16.820  0.00  0.00    +0.000 A 
ATOM      6  C   UNL     1       7.389   4.656  15.552  0.00  0.00    +0.000 A 
ATOM      7  C   UNL     1       6.543   4.341  14.492  0.00  0.00    +0.000 A 
ATOM      8  C   UNL     1       5.175   4.310  14.700  0.00  0.00    +0.000 A 
ATOM      9  C   UNL     1       4.670   4.580  15.973  0.00  0.00    +0.000 A 
ATOM     10  C   UNL     1       5.509   4.942  17.055  0.00  0.00    +0.000 A 
ENDROOT
BRANCH   1  11
ATOM     11  N   UNL     1       3.662   5.221  18.712  0.00  0.00    +0.000 N 
ATOM     12  C   UNL     1       3.018   6.541  18.592  0.00  0.00    +0.000 C 
BRANCH  11  13
ATOM     13  C   UNL     1       3.296   4.446  19.927  0.00  0.00    +0.000 C 
BRANCH  13  14
ATOM     14  C   UNL     1       3.533   2.926  19.736  0.00  0.00    +0.000 C 
BRANCH  14  16
ATOM     15  C   UNL     1       1.137   2.780  19.606  0.00  0.00    +0.000 C 
ATOM     16  N   UNL     1       2.396   2.161  19.170  0.00  0.00    +0.000 NA
ATOM     17  C   UNL     1       2.428   2.113  17.708  0.00  0.00    +0.000 C 
ENDBRANCH  14  16
ENDBRANCH  13  14
ENDBRANCH  11  13
ENDBRANCH   1  11
TORSDOF 4
ENDMDL
MODEL 6
REMARK VINA RESULT:      -5.9      1.894      5.459
REMARK  Name = 
REMARK  7 active torsions:
REMARK  status: ('A' for Active; 'I' for Inactive)
REMARK    1  A    between atoms: C_1  and  N_2
REMARK    2  A    between atoms: N_2  and  C_3
REMARK    3  A    between atoms: N_2  and  C_4
REMARK    4  A    between atoms: C_4  and  C_5
REMARK    5  A    between atoms: C_5  and  N_6
REMARK    6  A    between atoms: N_6  and  C_7
REMARK    7  A    between atoms: N_6  and  C_8
REMARK                            x       y       z     vdW  Elec       q    Type
REMARK                         _______ _______ _______ _____ _____    ______ ____
ROOT
ATOM      1  C   UNL     1       5.154   5.138  17.527  0.00  0.00    +0.000 A 
ATOM      2  C   UNL     1       5.952   5.983  18.315  0.00  0.00    +0.000 A 
ATOM      3  C   UNL     1       7.134   6.485  17.806  0.00  0.00    +0.000 A 
ATOM      4  N   UNL     1       7.584   6.225  16.567  0.00  0.00    +0.000 NA
ATOM      5  C   UNL     1       6.849   5.425  15.791  0.00  0.00    +0.000 A 
ATOM      6  C   UNL     1       7.340   5.146  14.520  0.00  0.00    +0.000 A 
ATOM      7  C   UNL     1       6.662   4.321  13.626  0.00  0.00    +0.000 A 
ATOM      8  C   UNL     1       5.467   3.738  14.010  0.00  0.00    +0.000 A 
ATOM      9  C   UNL     1       4.971   3.976  15.293  0.00  0.00    +0.000 A 
ATOM     10  C   UNL     1       5.623   4.842  16.204  0.00  0.00    +0.000 A 
ENDROOT
BRANCH   1  11
ATOM     11  N   UNL     1       3.948   4.572  18.036  0.00  0.00    +0.000 N 
ATOM     12  C   UNL     1       2.918   5.584  18.330  0.00  0.00    +0.000 C 
BRANCH  11  13
ATOM     13  C   UNL     1       4.107   3.513  19.068  0.00  0.00    +0.000 C 
BRANCH  13  14
ATOM     14  C   UNL     1       3.312   2.232  18.707  0.00  0.00    +0.000 C 
BRANCH  14  16
ATOM     15  C   UNL     1       2.153   2.726  20.753  0.00  0.00    +0.000 C 
ATOM     16  N   UNL     1       2.065   2.006  19.476  0.00  0.00    +0.000 NA
ATOM     17  C   UNL     1       0.875   2.452  18.753  0.00  0.00    +0.000 C 
ENDBRANCH  14  16
ENDBRANCH  13  14
ENDBRANCH  11  13
ENDBRANCH   1  11
TORSDOF 4
ENDMDL
MODEL 7
REMARK VINA RESULT:      -5.9      0.936      1.274
REMARK  Name = 
REMARK  7 active torsions:
REMARK  status: ('A' for Active; 'I' for Inactive)
REMARK    1  A    between atoms: C_1  and  N_2
REMARK    2  A    between atoms: N_2  and  C_3
REMARK    3  A    between atoms: N_2  and  C_4
REMARK    4  A    between atoms: C_4  and  C_5
REMARK    5  A    between atoms: C_5  and  N_6
REMARK    6  A    between atoms: N_6  and  C_7
REMARK    7  A    between atoms: N_6  and  C_8
REMARK                            x       y       z     vdW  Elec       q    Type
REMARK                         _______ _______ _______ _____ _____    ______ ____
ROOT
ATOM      1  C   UNL     1       4.414   5.393  17.399  0.00  0.00    +0.000 A 
ATOM      2  C   UNL     1       4.060   6.705  17.748  0.00  0.00    +0.000 A 
ATOM      3  C   UNL     1       2.871   6.946  18.409  0.00  0.00    +0.000 A 
ATOM      4  N   UNL     1       2.006   5.981  18.765  0.00  0.00    +0.000 NA
ATOM      5  C   UNL     1       2.311   4.721  18.449  0.00  0.00    +0.000 A 
ATOM      6  C   UNL     1       1.396   3.737  18.803  0.00  0.00    +0.000 A 
ATOM      7  C   UNL     1       1.606   2.389  18.521  0.00  0.00    +0.000 A 
ATOM      8  C   UNL     1       2.754   2.006  17.850  0.00  0.00    +0.000 A 
ATOM      9  C   UNL     1       3.672   2.979  17.453  0.00  0.00    +0.000 A 
ATOM     10  C   UNL     1       3.498   4.350  17.764  0.00  0.00    +0.000 A 
ENDROOT
BRANCH   1  11
ATOM     11  N   UNL     1       5.615   5.114  16.683  0.00  0.00    +0.000 N 
ATOM     12  C   UNL     1       6.829   5.480  17.434  0.00  0.00    +0.000 C 
BRANCH  11  13
ATOM     13  C   UNL     1       5.622   5.495  15.245  0.00  0.00    +0.000 C 
BRANCH  13  14
ATOM     14  C   UNL     1       5.420   4.266  14.322  0.00  0.00    +0.000 C 
BRANCH  14  16
ATOM     15  C   UNL     1       6.127   3.329  12.225  0.00  0.00    +0.000 C 
ATOM     16  N   UNL     1       6.593   3.867  13.510  0.00  0.00    +0.000 NA
ATOM     17  C   UNL     1       7.505   4.983  13.261  0.00  0.00    +0.000 C 
ENDBRANCH  14  16
ENDBRANCH  13  14
ENDBRANCH  11  13
ENDBRANCH   1  11
TORSDOF 4
ENDMDL
MODEL 8
REMARK VINA RESULT:      -5.9      2.296      6.006
REMARK  Name = 
REMARK  7 active torsions:
REMARK  status: ('A' for Active; 'I' for Inactive)
REMARK    1  A    between atoms: C_1  and  N_2
REMARK    2  A    between atoms: N_2  and  C_3
REMARK    3  A    between atoms: N_2  and  C_4
REMARK    4  A    between atoms: C_4  and  C_5
REMARK    5  A    between atoms: C_5  and  N_6
REMARK    6  A    between atoms: N_6  and  C_7
REMARK    7  A    between atoms: N_6  and  C_8
REMARK                            x       y       z     vdW  Elec       q    Type
REMARK                         _______ _______ _______ _____ _____    ______ ____
ROOT
ATOM      1  C   UNL     1       4.631   4.122  18.053  0.00  0.00    +0.000 A 
ATOM      2  C   UNL     1       5.099   4.683  19.252  0.00  0.00    +0.000 A 
ATOM      3  C   UNL     1       6.269   5.417  19.259  0.00  0.00    +0.000 A 
ATOM      4  N   UNL     1       7.010   5.651  18.163  0.00  0.00    +0.000 NA
ATOM      5  C   UNL     1       6.595   5.132  17.005  0.00  0.00    +0.000 A 
ATOM      6  C   UNL     1       7.385   5.363  15.885  0.00  0.00    +0.000 A 
ATOM      7  C   UNL     1       7.053   4.868  14.626  0.00  0.00    +0.000 A 
ATOM      8  C   UNL     1       5.909   4.103  14.476  0.00  0.00    +0.000 A 
ATOM      9  C   UNL     1       5.118   3.828  15.593  0.00  0.00    +0.000 A 
ATOM     10  C   UNL     1       5.414   4.355  16.874  0.00  0.00    +0.000 A 
ENDROOT
BRANCH   1  11
ATOM     11  N   UNL     1       3.448   3.327  18.019  0.00  0.00    +0.000 N 
ATOM     12  C   UNL     1       2.304   4.026  17.406  0.00  0.00    +0.000 C 
BRANCH  11  13
ATOM     13  C   UNL     1       3.134   2.568  19.258  0.00  0.00    +0.000 C 
BRANCH  13  14
ATOM     14  C   UNL     1       1.613   2.542  19.551  0.00  0.00    +0.000 C 
BRANCH  14  16
ATOM     15  C   UNL     1       1.496   2.452  21.950  0.00  0.00    +0.000 C 
ATOM     16  N   UNL     1       1.176   3.265  20.769  0.00  0.00    +0.000 NA
ATOM     17  C   UNL     1       1.814   4.574  20.900  0.00  0.00    +0.000 C 
ENDBRANCH  14  16
ENDBRANCH  13  14
ENDBRANCH  11  13
ENDBRANCH   1  11
TORSDOF 4
ENDMDL
MODEL 9
REMARK VINA RESULT:      -5.8      2.040      5.229
REMARK  Name = 
REMARK  7 active torsions:
REMARK  status: ('A' for Active; 'I' for Inactive)
REMARK    1  A    between atoms: C_1  and  N_2
REMARK    2  A    between atoms: N_2  and  C_3
REMARK    3  A    between atoms: N_2  and  C_4
REMARK    4  A    between atoms: C_4  and  C_5
REMARK    5  A    between atoms: C_5  and  N_6
REMARK    6  A    between atoms: N_6  and  C_7
REMARK    7  A    between atoms: N_6  and  C_8
REMARK                            x       y       z     vdW  Elec       q    Type
REMARK                         _______ _______ _______ _____ _____    ______ ____
ROOT
ATOM      1  C   UNL     1       4.461   5.683  18.014  0.00  0.00    +0.000 A 
ATOM      2  C   UNL     1       5.014   5.582  19.300  0.00  0.00    +0.000 A 
ATOM      3  C   UNL     1       6.311   5.131  19.458  0.00  0.00    +0.000 A 
ATOM      4  N   UNL     1       7.111   4.783  18.437  0.00  0.00    +0.000 NA
ATOM      5  C   UNL     1       6.616   4.867  17.200  0.00  0.00    +0.000 A 
ATOM      6  C   UNL     1       7.447   4.481  16.155  0.00  0.00    +0.000 A 
ATOM      7  C   UNL     1       7.038   4.523  14.824  0.00  0.00    +0.000 A 
ATOM      8  C   UNL     1       5.755   4.943  14.520  0.00  0.00    +0.000 A 
ATOM      9  C   UNL     1       4.889   5.304  15.555  0.00  0.00    +0.000 A 
ATOM     10  C   UNL     1       5.298   5.308  16.911  0.00  0.00    +0.000 A 
ENDROOT
BRANCH   1  11
ATOM     11  N   UNL     1       3.114   6.108  17.819  0.00  0.00    +0.000 N 
ATOM     12  C   UNL     1       2.937   7.560  18.000  0.00  0.00    +0.000 C 
BRANCH  11  13
ATOM     13  C   UNL     1       2.064   5.260  18.444  0.00  0.00    +0.000 C 
BRANCH  13  14
ATOM     14  C   UNL     1       2.056   3.825  17.859  0.00  0.00    +0.000 C 
BRANCH  14  16
ATOM     15  C   UNL     1       1.463   2.022  19.333  0.00  0.00    +0.000 C 
ATOM     16  N   UNL     1       2.587   2.762  18.746  0.00  0.00    +0.000 NA
ATOM     17  C   UNL     1       3.460   1.828  18.035  0.00  0.00    +0.000 C 
ENDBRANCH  14  16
ENDBRANCH  13  14
ENDBRANCH  11  13
ENDBRANCH   1  11
TORSDOF 4
ENDMDL
