MODEL 1
REMARK VINA RESULT:      -6.5      0.000      0.000
REMARK  Name = 
REMARK  3 active torsions:
REMARK  status: ('A' for Active; 'I' for Inactive)
REMARK    1  A    between atoms: C_6  and  O_7
REMARK    2  A    between atoms: O_7  and  C_8
REMARK    3  A    between atoms: C_8  and  C_9
REMARK                            x       y       z     vdW  Elec       q    Type
REMARK                         _______ _______ _______ _____ _____    ______ ____
ROOT
ATOM      1  O   UNL     1       4.958   4.774  18.139  0.00  0.00    +0.000 OA
ENDROOT
BRANCH   1   7
ATOM      2 CL   UNL     1       5.330   3.614  13.124  0.00  0.00    +0.000 Cl
ATOM      3  C   UNL     1       5.882   4.300  14.600  0.00  0.00    +0.000 A 
ATOM      4  C   UNL     1       7.079   5.001  14.645  0.00  0.00    +0.000 A 
ATOM      5  N   UNL     1       7.560   5.588  15.766  0.00  0.00    +0.000 NA
ATOM      6  C   UNL     1       6.797   5.458  16.878  0.00  0.00    +0.000 A 
ATOM      7  C   UNL     1       5.594   4.758  16.936  0.00  0.00    +0.000 A 
ATOM      8  C   UNL     1       5.127   4.173  15.765  0.00  0.00    +0.000 A 
ENDBRANCH   1   7
BRANCH   1   9
ATOM      9  C   UNL     1       3.705   4.086  18.239  0.00  0.00    +0.000 C 
BRANCH   9  10
ATOM     10  C   UNL     1       3.420   3.871  19.740  0.00  0.00    +0.000 C 
ATOM     11  N   UNL     1       3.124   5.154  20.428  0.00  0.00    +0.000 NA
ATOM     12  C   UNL     1       1.671   5.359  20.447  0.00  0.00    +0.000 C 
ATOM     13  C   UNL     1       1.113   3.973  20.451  0.00  0.00    +0.000 C 
ATOM     14  C   UNL     1       1.617   2.906  21.393  0.00  0.00    +0.000 C 
ATOM     15  C   UNL     1       2.185   3.054  19.999  0.00  0.00    +0.000 C 
ATOM     16  H   UNL     1       3.600   5.922  19.958  0.00  0.00    +0.000 HD
ENDBRANCH   9  10
ENDBRANCH   1   9
TORSDOF 3
ENDMDL
MODEL 2
REMARK VINA RESULT:      -6.5      1.233      1.437
REMARK  Name = 
REMARK  3 active torsions:
REMARK  status: ('A' for Active; 'I' for Inactive)
REMARK    1  A    between atoms: C_6  and  O_7
REMARK    2  A    between atoms: O_7  and  C_8
REMARK    3  A    between atoms: C_8  and  C_9
REMARK                            x       y       z     vdW  Elec       q    Type
REMARK                         _______ _______ _______ _____ _____    ______ ____
ROOT
ATOM      1  O   UNL     1       4.078   5.298  18.219  0.00  0.00    +0.000 OA
ENDROOT
BRANCH   1   7
ATOM      2 CL   UNL     1       5.804   3.838  13.580  0.00  0.00    +0.000 Cl
ATOM      3  C   UNL     1       5.986   4.288  15.228  0.00  0.00    +0.000 A 
ATOM      4  C   UNL     1       7.249   4.397  15.792  0.00  0.00    +0.000 A 
ATOM      5  N   UNL     1       7.465   4.771  17.075  0.00  0.00    +0.000 NA
ATOM      6  C   UNL     1       6.360   5.044  17.809  0.00  0.00    +0.000 A 
ATOM      7  C   UNL     1       5.052   4.944  17.338  0.00  0.00    +0.000 A 
ATOM      8  C   UNL     1       4.867   4.563  16.014  0.00  0.00    +0.000 A 
ENDBRANCH   1   7
BRANCH   1   9
ATOM      9  C   UNL     1       4.079   4.663  19.504  0.00  0.00    +0.000 C 
BRANCH   9  10
ATOM     10  C   UNL     1       3.242   3.372  19.377  0.00  0.00    +0.000 C 
ATOM     11  N   UNL     1       3.028   2.730  20.699  0.00  0.00    +0.000 NA
ATOM     12  C   UNL     1       1.750   3.195  21.251  0.00  0.00    +0.000 C 
ATOM     13  C   UNL     1       0.923   3.492  20.043  0.00  0.00    +0.000 C 
ATOM     14  C   UNL     1       0.802   2.520  18.893  0.00  0.00    +0.000 C 
ATOM     15  C   UNL     1       1.842   3.618  18.887  0.00  0.00    +0.000 C 
ATOM     16  H   UNL     1       3.802   2.947  21.324  0.00  0.00    +0.000 HD
ENDBRANCH   9  10
ENDBRANCH   1   9
TORSDOF 3
ENDMDL
MODEL 3
REMARK VINA RESULT:      -6.5      1.620      2.017
REMARK  Name = 
REMARK  3 active torsions:
REMARK  status: ('A' for Active; 'I' for Inactive)
REMARK    1  A    between atoms: C_6  and  O_7
REMARK    2  A    between atoms: O_7  and  C_8
REMARK    3  A    between atoms: C_8  and  C_9
REMARK                            x       y       z     vdW  Elec       q    Type
REMARK                         _______ _______ _______ _____ _____    ______ ____
ROOT
ATOM      1  O   UNL     1       3.972   6.105  18.604  0.00  0.00    +0.000 OA
ENDROOT
BRANCH   1   7
ATOM      2 CL   UNL     1       6.789   4.380  14.639  0.00  0.00    +0.000 Cl
ATOM      3  C   UNL     1       6.504   4.741  16.295  0.00  0.00    +0.000 A 
ATOM      4  C   UNL     1       7.501   4.543  17.240  0.00  0.00    +0.000 A 
ATOM      5  N   UNL     1       7.352   4.829  18.555  0.00  0.00    +0.000 NA
ATOM      6  C   UNL     1       6.151   5.336  18.920  0.00  0.00    +0.000 A 
ATOM      7  C   UNL     1       5.085   5.553  18.050  0.00  0.00    +0.000 A 
ATOM      8  C   UNL     1       5.273   5.253  16.706  0.00  0.00    +0.000 A 
ENDBRANCH   1   7
BRANCH   1   9
ATOM      9  C   UNL     1       3.427   5.478  19.771  0.00  0.00    +0.000 C 
BRANCH   9  10
ATOM     10  C   UNL     1       2.891   4.097  19.340  0.00  0.00    +0.000 C 
ATOM     11  N   UNL     1       3.398   3.015  20.223  0.00  0.00    +0.000 NA
ATOM     12  C   UNL     1       2.418   2.774  21.289  0.00  0.00    +0.000 C 
ATOM     13  C   UNL     1       1.112   3.141  20.666  0.00  0.00    +0.000 C 
ATOM     14  C   UNL     1       0.702   2.639  19.302  0.00  0.00    +0.000 C 
ATOM     15  C   UNL     1       1.399   3.972  19.472  0.00  0.00    +0.000 C 
ATOM     16  H   UNL     1       4.306   3.272  20.606  0.00  0.00    +0.000 HD
ENDBRANCH   9  10
ENDBRANCH   1   9
TORSDOF 3
ENDMDL
MODEL 4
REMARK VINA RESULT:      -6.5      1.746      2.201
REMARK  Name = 
REMARK  3 active torsions:
REMARK  status: ('A' for Active; 'I' for Inactive)
REMARK    1  A    between atoms: C_6  and  O_7
REMARK    2  A    between atoms: O_7  and  C_8
REMARK    3  A    between atoms: C_8  and  C_9
REMARK                            x       y       z     vdW  Elec       q    Type
REMARK                         _______ _______ _______ _____ _____    ______ ____
ROOT
ATOM      1  O   UNL     1       4.039   5.334  19.630  0.00  0.00    +0.000 OA
ENDROOT
BRANCH   1   7
ATOM      2 CL   UNL     1       5.968   4.016  15.028  0.00  0.00    +0.000 Cl
ATOM      3  C   UNL     1       6.080   4.447  16.688  0.00  0.00    +0.000 A 
ATOM      4  C   UNL     1       7.319   4.597  17.294  0.00  0.00    +0.000 A 
ATOM      5  N   UNL     1       7.480   4.959  18.589  0.00  0.00    +0.000 NA
ATOM      6  C   UNL     1       6.341   5.177  19.290  0.00  0.00    +0.000 A 
ATOM      7  C   UNL     1       5.055   5.033  18.776  0.00  0.00    +0.000 A 
ATOM      8  C   UNL     1       4.927   4.665  17.441  0.00  0.00    +0.000 A 
ENDBRANCH   1   7
BRANCH   1   9
ATOM      9  C   UNL     1       2.762   5.650  19.061  0.00  0.00    +0.000 C 
BRANCH   9  10
ATOM     10  C   UNL     1       1.724   4.722  19.728  0.00  0.00    +0.000 C 
ATOM     11  N   UNL     1       1.311   3.623  18.818  0.00  0.00    +0.000 NA
ATOM     12  C   UNL     1       2.149   2.447  19.083  0.00  0.00    +0.000 C 
ATOM     13  C   UNL     1       2.509   2.582  20.527  0.00  0.00    +0.000 C 
ATOM     14  C   UNL     1       1.478   2.880  21.589  0.00  0.00    +0.000 C 
ATOM     15  C   UNL     1       2.264   3.989  20.924  0.00  0.00    +0.000 C 
ATOM     16  H   UNL     1       1.391   3.923  17.847  0.00  0.00    +0.000 HD
ENDBRANCH   9  10
ENDBRANCH   1   9
TORSDOF 3
ENDMDL
MODEL 5
REMARK VINA RESULT:      -6.5      0.957      1.102
REMARK  Name = 
REMARK  3 active torsions:
REMARK  status: ('A' for Active; 'I' for Inactive)
REMARK    1  A    between atoms: C_6  and  O_7
REMARK    2  A    between atoms: O_7  and  C_8
REMARK    3  A    between atoms: C_8  and  C_9
REMARK                            x       y       z     vdW  Elec       q    Type
REMARK                         _______ _______ _______ _____ _____    ______ ____
ROOT
ATOM      1  O   UNL     1       5.281   4.257  18.081  0.00  0.00    +0.000 OA
ENDROOT
BRANCH   1   7
ATOM      2 CL   UNL     1       5.520   3.518  12.979  0.00  0.00    +0.000 Cl
ATOM      3  C   UNL     1       6.047   4.183  14.474  0.00  0.00    +0.000 A 
ATOM      4  C   UNL     1       7.116   5.066  14.512  0.00  0.00    +0.000 A 
ATOM      5  N   UNL     1       7.566   5.646  15.650  0.00  0.00    +0.000 NA
ATOM      6  C   UNL     1       6.906   5.317  16.786  0.00  0.00    +0.000 A 
ATOM      7  C   UNL     1       5.835   4.427  16.850  0.00  0.00    +0.000 A 
ATOM      8  C   UNL     1       5.396   3.855  15.662  0.00  0.00    +0.000 A 
ENDBRANCH   1   7
BRANCH   1   9
ATOM      9  C   UNL     1       3.920   4.669  18.261  0.00  0.00    +0.000 C 
BRANCH   9  10
ATOM     10  C   UNL     1       3.126   3.430  18.729  0.00  0.00    +0.000 C 
ATOM     11  N   UNL     1       3.279   3.204  20.189  0.00  0.00    +0.000 NA
ATOM     12  C   UNL     1       2.168   3.859  20.890  0.00  0.00    +0.000 C 
ATOM     13  C   UNL     1       1.051   3.828  19.899  0.00  0.00    +0.000 C 
ATOM     14  C   UNL     1       0.676   2.573  19.149  0.00  0.00    +0.000 C 
ATOM     15  C   UNL     1       1.639   3.581  18.562  0.00  0.00    +0.000 C 
ATOM     16  H   UNL     1       4.179   3.560  20.506  0.00  0.00    +0.000 HD
ENDBRANCH   9  10
ENDBRANCH   1   9
TORSDOF 3
ENDMDL
MODEL 6
REMARK VINA RESULT:      -6.4      2.785      3.170
REMARK  Name = 
REMARK  3 active torsions:
REMARK  status: ('A' for Active; 'I' for Inactive)
REMARK    1  A    between atoms: C_6  and  O_7
REMARK    2  A    between atoms: O_7  and  C_8
REMARK    3  A    between atoms: C_8  and  C_9
REMARK                            x       y       z     vdW  Elec       q    Type
REMARK                         _______ _______ _______ _____ _____    ______ ____
ROOT
ATOM      1  O   UNL     1       3.701   5.182  17.365  0.00  0.00    +0.000 OA
ENDROOT
BRANCH   1   7
ATOM      2 CL   UNL     1       7.883   8.203  17.515  0.00  0.00    +0.000 Cl
ATOM      3  C   UNL     1       7.010   6.751  17.804  0.00  0.00    +0.000 A 
ATOM      4  C   UNL     1       7.609   5.691  18.471  0.00  0.00    +0.000 A 
ATOM      5  N   UNL     1       6.973   4.530  18.754  0.00  0.00    +0.000 NA
ATOM      6  C   UNL     1       5.684   4.444  18.346  0.00  0.00    +0.000 A 
ATOM      7  C   UNL     1       5.004   5.445  17.654  0.00  0.00    +0.000 A 
ATOM      8  C   UNL     1       5.686   6.626  17.385  0.00  0.00    +0.000 A 
ENDBRANCH   1   7
BRANCH   1   9
ATOM      9  C   UNL     1       3.354   3.837  17.015  0.00  0.00    +0.000 C 
BRANCH   9  10
ATOM     10  C   UNL     1       2.071   3.478  17.794  0.00  0.00    +0.000 C 
ATOM     11  N   UNL     1       2.067   2.053  18.212  0.00  0.00    +0.000 NA
ATOM     12  C   UNL     1       2.610   1.955  19.572  0.00  0.00    +0.000 C 
ATOM     13  C   UNL     1       2.260   3.268  20.194  0.00  0.00    +0.000 C 
ATOM     14  C   UNL     1       0.872   3.855  20.105  0.00  0.00    +0.000 C 
ATOM     15  C   UNL     1       1.943   4.216  19.098  0.00  0.00    +0.000 C 
ATOM     16  H   UNL     1       2.609   1.494  17.555  0.00  0.00    +0.000 HD
ENDBRANCH   9  10
ENDBRANCH   1   9
TORSDOF 3
ENDMDL
MODEL 7
REMARK VINA RESULT:      -6.4      1.296      1.628
REMARK  Name = 
REMARK  3 active torsions:
REMARK  status: ('A' for Active; 'I' for Inactive)
REMARK    1  A    between atoms: C_6  and  O_7
REMARK    2  A    between atoms: O_7  and  C_8
REMARK    3  A    between atoms: C_8  and  C_9
REMARK                            x       y       z     vdW  Elec       q    Type
REMARK                         _______ _______ _______ _____ _____    ______ ____
ROOT
ATOM      1  O   UNL     1       4.153   5.216  16.894  0.00  0.00    +0.000 OA
ENDROOT
BRANCH   1   7
ATOM      2 CL   UNL     1       6.168   3.419  12.496  0.00  0.00    +0.000 Cl
ATOM      3  C   UNL     1       6.224   4.250  13.999  0.00  0.00    +0.000 A 
ATOM      4  C   UNL     1       7.390   4.880  14.411  0.00  0.00    +0.000 A 
ATOM      5  N   UNL     1       7.496   5.573  15.570  0.00  0.00    +0.000 NA
ATOM      6  C   UNL     1       6.379   5.627  16.334  0.00  0.00    +0.000 A 
ATOM      7  C   UNL     1       5.171   5.012  16.014  0.00  0.00    +0.000 A 
ATOM      8  C   UNL     1       5.095   4.314  14.815  0.00  0.00    +0.000 A 
ENDBRANCH   1   7
BRANCH   1   9
ATOM      9  C   UNL     1       3.884   4.185  17.852  0.00  0.00    +0.000 C 
BRANCH   9  10
ATOM     10  C   UNL     1       2.486   4.463  18.443  0.00  0.00    +0.000 C 
ATOM     11  N   UNL     1       1.438   3.656  17.768  0.00  0.00    +0.000 NA
ATOM     12  C   UNL     1       1.228   2.418  18.528  0.00  0.00    +0.000 C 
ATOM     13  C   UNL     1       1.566   2.798  19.933  0.00  0.00    +0.000 C 
ATOM     14  C   UNL     1       1.016   4.044  20.584  0.00  0.00    +0.000 C 
ATOM     15  C   UNL     1       2.357   4.051  19.883  0.00  0.00    +0.000 C 
ATOM     16  H   UNL     1       1.713   3.458  16.807  0.00  0.00    +0.000 HD
ENDBRANCH   9  10
ENDBRANCH   1   9
TORSDOF 3
ENDMDL
MODEL 8
REMARK VINA RESULT:      -6.4      2.020      2.513
REMARK  Name = 
REMARK  3 active torsions:
REMARK  status: ('A' for Active; 'I' for Inactive)
REMARK    1  A    between atoms: C_6  and  O_7
REMARK    2  A    between atoms: O_7  and  C_8
REMARK    3  A    between atoms: C_8  and  C_9
REMARK                            x       y       z     vdW  Elec       q    Type
REMARK                         _______ _______ _______ _____ _____    ______ ____
ROOT
ATOM      1  O   UNL     1       2.272   5.045  18.305  0.00  0.00    +0.000 OA
ENDROOT
BRANCH   1   7
ATOM      2 CL   UNL     1       6.177   3.665  15.226  0.00  0.00    +0.000 Cl
ATOM      3  C   UNL     1       5.299   4.762  16.216  0.00  0.00    +0.000 A 
ATOM      4  C   UNL     1       5.725   6.074  16.362  0.00  0.00    +0.000 A 
ATOM      5  N   UNL     1       5.067   6.996  17.105  0.00  0.00    +0.000 NA
ATOM      6  C   UNL     1       3.938   6.568  17.718  0.00  0.00    +0.000 A 
ATOM      7  C   UNL     1       3.442   5.268  17.648  0.00  0.00    +0.000 A 
ATOM      8  C   UNL     1       4.139   4.349  16.872  0.00  0.00    +0.000 A 
ENDBRANCH   1   7
BRANCH   1   9
ATOM      9  C   UNL     1       1.396   4.039  17.782  0.00  0.00    +0.000 C 
BRANCH   9  10
ATOM     10  C   UNL     1       1.126   3.031  18.920  0.00  0.00    +0.000 C 
ATOM     11  N   UNL     1       2.013   1.843  18.818  0.00  0.00    +0.000 NA
ATOM     12  C   UNL     1       3.203   2.067  19.648  0.00  0.00    +0.000 C 
ATOM     13  C   UNL     1       2.718   2.967  20.737  0.00  0.00    +0.000 C 
ATOM     14  C   UNL     1       1.451   2.687  21.507  0.00  0.00    +0.000 C 
ATOM     15  C   UNL     1       1.445   3.578  20.284  0.00  0.00    +0.000 C 
ATOM     16  H   UNL     1       2.265   1.677  17.846  0.00  0.00    +0.000 HD
ENDBRANCH   9  10
ENDBRANCH   1   9
TORSDOF 3
ENDMDL
MODEL 9
REMARK VINA RESULT:      -6.3      1.954      2.249
REMARK  Name = 
REMARK  3 active torsions:
REMARK  status: ('A' for Active; 'I' for Inactive)
REMARK    1  A    between atoms: C_6  and  O_7
REMARK    2  A    between atoms: O_7  and  C_8
REMARK    3  A    between atoms: C_8  and  C_9
REMARK                            x       y       z     vdW  Elec       q    Type
REMARK                         _______ _______ _______ _____ _____    ______ ____
ROOT
ATOM      1  O   UNL     1       3.238   4.974  17.504  0.00  0.00    +0.000 OA
ENDROOT
BRANCH   1   7
ATOM      2 CL   UNL     1       7.703   7.562  17.488  0.00  0.00    +0.000 Cl
ATOM      3  C   UNL     1       6.653   6.283  17.024  0.00  0.00    +0.000 A 
ATOM      4  C   UNL     1       7.108   5.263  16.201  0.00  0.00    +0.000 A 
ATOM      5  N   UNL     1       6.343   4.214  15.817  0.00  0.00    +0.000 NA
ATOM      6  C   UNL     1       5.073   4.201  16.289  0.00  0.00    +0.000 A 
ATOM      7  C   UNL     1       4.521   5.187  17.104  0.00  0.00    +0.000 A 
ATOM      8  C   UNL     1       5.337   6.247  17.482  0.00  0.00    +0.000 A 
ENDBRANCH   1   7
BRANCH   1   9
ATOM      9  C   UNL     1       2.871   3.642  17.882  0.00  0.00    +0.000 C 
BRANCH   9  10
ATOM     10  C   UNL     1       3.076   3.528  19.408  0.00  0.00    +0.000 C 
ATOM     11  N   UNL     1       2.946   4.848  20.076  0.00  0.00    +0.000 NA
ATOM     12  C   UNL     1       1.561   5.013  20.536  0.00  0.00    +0.000 C 
ATOM     13  C   UNL     1       1.101   3.616  20.796  0.00  0.00    +0.000 C 
ATOM     14  C   UNL     1       1.922   2.634  21.596  0.00  0.00    +0.000 C 
ATOM     15  C   UNL     1       2.023   2.697  20.088  0.00  0.00    +0.000 C 
ATOM     16  H   UNL     1       3.215   5.593  19.435  0.00  0.00    +0.000 HD
ENDBRANCH   9  10
ENDBRANCH   1   9
TORSDOF 3
ENDMDL
