MODEL 1
REMARK VINA RESULT:      -7.6      0.000      0.000
REMARK  Name = 
REMARK  5 active torsions:
REMARK  status: ('A' for Active; 'I' for Inactive)
REMARK    1  A    between atoms: C_5  and  O_6
REMARK    2  A    between atoms: O_6  and  C_7
REMARK    3  A    between atoms: C_7  and  C_8
REMARK    4  A    between atoms: C_13  and  C_14
REMARK    5  A    between atoms: C_15  and  C_16
REMARK                            x       y       z     vdW  Elec       q    Type
REMARK                         _______ _______ _______ _____ _____    ______ ____
ROOT
ATOM      1 CL   UNL     1       0.856   3.502  20.436  0.00  0.00    +0.000 Cl
ATOM      2  C   UNL     1       2.448   3.966  19.976  0.00  0.00    +0.000 A 
ATOM      3  N   UNL     1       3.206   2.867  19.728  0.00  0.00    +0.000 NA
ATOM      4  C   UNL     1       4.473   3.077  19.333  0.00  0.00    +0.000 A 
ATOM      5  C   UNL     1       5.042   4.331  19.164  0.00  0.00    +0.000 A 
ATOM      6  C   UNL     1       4.243   5.436  19.442  0.00  0.00    +0.000 A 
ATOM      7  C   UNL     1       2.901   5.295  19.822  0.00  0.00    +0.000 A 
ENDROOT
BRANCH   7   8
ATOM      8  C   UNL     1       2.101   6.530  20.086  0.00  0.00    +0.000 C 
ATOM      9  C   UNL     1       2.140   7.656  19.317  0.00  0.00    +0.000 C 
BRANCH   9  10
ATOM     10  C   UNL     1       1.363   8.873  19.567  0.00  0.00    +0.000 A 
ATOM     11  C   UNL     1       1.349   9.849  18.564  0.00  0.00    +0.000 A 
ATOM     12  C   UNL     1       0.698  11.045  18.812  0.00  0.00    +0.000 A 
ATOM     13  N   UNL     1       0.084  11.331  19.975  0.00  0.00    +0.000 NA
ATOM     14  C   UNL     1       0.115  10.381  20.936  0.00  0.00    +0.000 A 
ATOM     15 BR   UNL     1      -0.706  10.785  22.597  0.00  0.00    +0.000 Br
ATOM     16  C   UNL     1       0.737   9.152  20.783  0.00  0.00    +0.000 A 
ENDBRANCH   9  10
ENDBRANCH   7   8
BRANCH   5  17
ATOM     17  O   UNL     1       6.332   4.333  18.724  0.00  0.00    +0.000 OA
BRANCH  17  18
ATOM     18  C   UNL     1       6.557   4.542  17.330  0.00  0.00    +0.000 C 
BRANCH  18  19
ATOM     19  C   UNL     1       7.441   5.781  17.182  0.00  0.00    +0.000 C 
ATOM     20  C   UNL     1       7.809   6.578  18.455  0.00  0.00    +0.000 C 
ATOM     21  C   UNL     1       7.552   7.820  17.587  0.00  0.00    +0.000 C 
ATOM     22  N   UNL     1       6.680   6.983  16.732  0.00  0.00    +0.000 NA
ATOM     23  H   UNL     1       6.744   7.192  15.737  0.00  0.00    +0.000 HD
ENDBRANCH  18  19
ENDBRANCH  17  18
ENDBRANCH   5  17
TORSDOF 5
ENDMDL
MODEL 2
REMARK VINA RESULT:      -7.4      1.459      2.171
REMARK  Name = 
REMARK  5 active torsions:
REMARK  status: ('A' for Active; 'I' for Inactive)
REMARK    1  A    between atoms: C_5  and  O_6
REMARK    2  A    between atoms: O_6  and  C_7
REMARK    3  A    between atoms: C_7  and  C_8
REMARK    4  A    between atoms: C_13  and  C_14
REMARK    5  A    between atoms: C_15  and  C_16
REMARK                            x       y       z     vdW  Elec       q    Type
REMARK                         _______ _______ _______ _____ _____    ______ ____
ROOT
ATOM      1 CL   UNL     1       0.965   4.013  20.584  0.00  0.00    +0.000 Cl
ATOM      2  C   UNL     1       2.542   4.343  19.980  0.00  0.00    +0.000 A 
ATOM      3  N   UNL     1       3.251   3.192  19.859  0.00  0.00    +0.000 NA
ATOM      4  C   UNL     1       4.500   3.293  19.373  0.00  0.00    +0.000 A 
ATOM      5  C   UNL     1       5.095   4.487  18.992  0.00  0.00    +0.000 A 
ATOM      6  C   UNL     1       4.347   5.651  19.143  0.00  0.00    +0.000 A 
ATOM      7  C   UNL     1       3.025   5.617  19.608  0.00  0.00    +0.000 A 
ENDROOT
BRANCH   7   8
ATOM      8  C   UNL     1       2.279   6.908  19.727  0.00  0.00    +0.000 C 
ATOM      9  C   UNL     1       1.737   7.385  20.884  0.00  0.00    +0.000 C 
BRANCH   9  10
ATOM     10  C   UNL     1       1.002   8.646  21.012  0.00  0.00    +0.000 A 
ATOM     11  C   UNL     1       0.546   9.003  22.286  0.00  0.00    +0.000 A 
ATOM     12  C   UNL     1      -0.226  10.143  22.418  0.00  0.00    +0.000 A 
ATOM     13  N   UNL     1      -0.579  10.927  21.383  0.00  0.00    +0.000 NA
ATOM     14  C   UNL     1      -0.138  10.564  20.158  0.00  0.00    +0.000 A 
ATOM     15 BR   UNL     1      -0.663  11.632  18.682  0.00  0.00    +0.000 Br
ATOM     16  C   UNL     1       0.644   9.444  19.924  0.00  0.00    +0.000 A 
ENDBRANCH   9  10
ENDBRANCH   7   8
BRANCH   5  17
ATOM     17  O   UNL     1       6.358   4.375  18.491  0.00  0.00    +0.000 OA
BRANCH  17  18
ATOM     18  C   UNL     1       6.882   5.483  17.757  0.00  0.00    +0.000 C 
BRANCH  18  19
ATOM     19  C   UNL     1       6.379   5.367  16.318  0.00  0.00    +0.000 C 
ATOM     20  C   UNL     1       6.022   3.963  15.774  0.00  0.00    +0.000 C 
ATOM     21  C   UNL     1       6.726   4.431  14.491  0.00  0.00    +0.000 C 
ATOM     22  N   UNL     1       7.485   5.398  15.316  0.00  0.00    +0.000 NA
ATOM     23  H   UNL     1       7.641   6.300  14.868  0.00  0.00    +0.000 HD
ENDBRANCH  18  19
ENDBRANCH  17  18
ENDBRANCH   5  17
TORSDOF 5
ENDMDL
MODEL 3
REMARK VINA RESULT:      -7.3      1.133      1.577
REMARK  Name = 
REMARK  5 active torsions:
REMARK  status: ('A' for Active; 'I' for Inactive)
REMARK    1  A    between atoms: C_5  and  O_6
REMARK    2  A    between atoms: O_6  and  C_7
REMARK    3  A    between atoms: C_7  and  C_8
REMARK    4  A    between atoms: C_13  and  C_14
REMARK    5  A    between atoms: C_15  and  C_16
REMARK                            x       y       z     vdW  Elec       q    Type
REMARK                         _______ _______ _______ _____ _____    ______ ____
ROOT
ATOM      1 CL   UNL     1       0.900   3.060  20.592  0.00  0.00    +0.000 Cl
ATOM      2  C   UNL     1       2.439   3.652  20.101  0.00  0.00    +0.000 A 
ATOM      3  N   UNL     1       3.314   2.624  19.955  0.00  0.00    +0.000 NA
ATOM      4  C   UNL     1       4.558   2.935  19.549  0.00  0.00    +0.000 A 
ATOM      5  C   UNL     1       4.990   4.225  19.274  0.00  0.00    +0.000 A 
ATOM      6  C   UNL     1       4.072   5.257  19.449  0.00  0.00    +0.000 A 
ATOM      7  C   UNL     1       2.748   5.004  19.833  0.00  0.00    +0.000 A 
ENDROOT
BRANCH   7   8
ATOM      8  C   UNL     1       1.817   6.163  19.983  0.00  0.00    +0.000 C 
ATOM      9  C   UNL     1       2.201   7.472  19.965  0.00  0.00    +0.000 C 
BRANCH   9  10
ATOM     10  C   UNL     1       1.297   8.616  20.114  0.00  0.00    +0.000 A 
ATOM     11  C   UNL     1       1.141   9.464  19.011  0.00  0.00    +0.000 A 
ATOM     12  C   UNL     1       0.365  10.601  19.154  0.00  0.00    +0.000 A 
ATOM     13  N   UNL     1      -0.243  10.947  20.303  0.00  0.00    +0.000 NA
ATOM     14  C   UNL     1      -0.074  10.122  21.360  0.00  0.00    +0.000 A 
ATOM     15 BR   UNL     1      -0.886  10.619  23.001  0.00  0.00    +0.000 Br
ATOM     16  C   UNL     1       0.679   8.960  21.316  0.00  0.00    +0.000 A 
ENDBRANCH   9  10
ENDBRANCH   7   8
BRANCH   5  17
ATOM     17  O   UNL     1       6.279   4.328  18.843  0.00  0.00    +0.000 OA
BRANCH  17  18
ATOM     18  C   UNL     1       6.629   5.475  18.066  0.00  0.00    +0.000 C 
BRANCH  18  19
ATOM     19  C   UNL     1       6.766   5.027  16.611  0.00  0.00    +0.000 C 
ATOM     20  C   UNL     1       5.759   5.578  15.574  0.00  0.00    +0.000 C 
ATOM     21  C   UNL     1       5.746   4.143  15.025  0.00  0.00    +0.000 C 
ATOM     22  N   UNL     1       6.176   3.678  16.363  0.00  0.00    +0.000 NA
ATOM     23  H   UNL     1       6.842   2.909  16.346  0.00  0.00    +0.000 HD
ENDBRANCH  18  19
ENDBRANCH  17  18
ENDBRANCH   5  17
TORSDOF 5
ENDMDL
MODEL 4
REMARK VINA RESULT:      -7.3      1.350      1.766
REMARK  Name = 
REMARK  5 active torsions:
REMARK  status: ('A' for Active; 'I' for Inactive)
REMARK    1  A    between atoms: C_5  and  O_6
REMARK    2  A    between atoms: O_6  and  C_7
REMARK    3  A    between atoms: C_7  and  C_8
REMARK    4  A    between atoms: C_13  and  C_14
REMARK    5  A    between atoms: C_15  and  C_16
REMARK                            x       y       z     vdW  Elec       q    Type
REMARK                         _______ _______ _______ _____ _____    ______ ____
ROOT
ATOM      1 CL   UNL     1       1.876   3.436  21.561  0.00  0.00    +0.000 Cl
ATOM      2  C   UNL     1       2.717   4.172  20.253  0.00  0.00    +0.000 A 
ATOM      3  N   UNL     1       3.476   3.252  19.604  0.00  0.00    +0.000 NA
ATOM      4  C   UNL     1       4.174   3.680  18.538  0.00  0.00    +0.000 A 
ATOM      5  C   UNL     1       4.163   4.986  18.070  0.00  0.00    +0.000 A 
ATOM      6  C   UNL     1       3.387   5.907  18.767  0.00  0.00    +0.000 A 
ATOM      7  C   UNL     1       2.603   5.525  19.865  0.00  0.00    +0.000 A 
ENDROOT
BRANCH   7   8
ATOM      8  C   UNL     1       1.783   6.569  20.552  0.00  0.00    +0.000 C 
ATOM      9  C   UNL     1       1.763   7.889  20.207  0.00  0.00    +0.000 C 
BRANCH   9  10
ATOM     10  C   UNL     1       0.965   8.921  20.874  0.00  0.00    +0.000 A 
ATOM     11  C   UNL     1       0.874   8.866  22.270  0.00  0.00    +0.000 A 
ATOM     12  C   UNL     1       0.055   9.774  22.916  0.00  0.00    +0.000 A 
ATOM     13  N   UNL     1      -0.676  10.705  22.276  0.00  0.00    +0.000 NA
ATOM     14  C   UNL     1      -0.583  10.738  20.928  0.00  0.00    +0.000 A 
ATOM     15 BR   UNL     1      -1.641  12.014  20.006  0.00  0.00    +0.000 Br
ATOM     16  C   UNL     1       0.212   9.876  20.190  0.00  0.00    +0.000 A 
ENDBRANCH   9  10
ENDBRANCH   7   8
BRANCH   5  17
ATOM     17  O   UNL     1       4.913   5.212  16.955  0.00  0.00    +0.000 OA
BRANCH  17  18
ATOM     18  C   UNL     1       6.170   4.542  16.853  0.00  0.00    +0.000 C 
BRANCH  18  19
ATOM     19  C   UNL     1       7.271   5.594  16.993  0.00  0.00    +0.000 C 
ATOM     20  C   UNL     1       7.525   6.212  18.388  0.00  0.00    +0.000 C 
ATOM     21  C   UNL     1       7.661   7.539  17.626  0.00  0.00    +0.000 C 
ATOM     22  N   UNL     1       6.834   6.950  16.548  0.00  0.00    +0.000 NA
ATOM     23  H   UNL     1       7.121   7.213  15.607  0.00  0.00    +0.000 HD
ENDBRANCH  18  19
ENDBRANCH  17  18
ENDBRANCH   5  17
TORSDOF 5
ENDMDL
MODEL 5
REMARK VINA RESULT:      -7.1      1.947      2.387
REMARK  Name = 
REMARK  5 active torsions:
REMARK  status: ('A' for Active; 'I' for Inactive)
REMARK    1  A    between atoms: C_5  and  O_6
REMARK    2  A    between atoms: O_6  and  C_7
REMARK    3  A    between atoms: C_7  and  C_8
REMARK    4  A    between atoms: C_13  and  C_14
REMARK    5  A    between atoms: C_15  and  C_16
REMARK                            x       y       z     vdW  Elec       q    Type
REMARK                         _______ _______ _______ _____ _____    ______ ____
ROOT
ATOM      1 CL   UNL     1       1.592   3.137  21.841  0.00  0.00    +0.000 Cl
ATOM      2  C   UNL     1       2.675   3.745  20.651  0.00  0.00    +0.000 A 
ATOM      3  N   UNL     1       3.470   2.749  20.184  0.00  0.00    +0.000 NA
ATOM      4  C   UNL     1       4.355   3.074  19.225  0.00  0.00    +0.000 A 
ATOM      5  C   UNL     1       4.499   4.348  18.694  0.00  0.00    +0.000 A 
ATOM      6  C   UNL     1       3.679   5.349  19.206  0.00  0.00    +0.000 A 
ATOM      7  C   UNL     1       2.707   5.076  20.178  0.00  0.00    +0.000 A 
ENDROOT
BRANCH   7   8
ATOM      8  C   UNL     1       1.853   6.202  20.666  0.00  0.00    +0.000 C 
ATOM      9  C   UNL     1       1.980   7.500  20.266  0.00  0.00    +0.000 C 
BRANCH   9  10
ATOM     10  C   UNL     1       1.150   8.611  20.740  0.00  0.00    +0.000 A 
ATOM     11  C   UNL     1       0.927   8.710  22.118  0.00  0.00    +0.000 A 
ATOM     12  C   UNL     1       0.074   9.696  22.582  0.00  0.00    +0.000 A 
ATOM     13  N   UNL     1      -0.568  10.563  21.778  0.00  0.00    +0.000 NA
ATOM     14  C   UNL     1      -0.349  10.448  20.449  0.00  0.00    +0.000 A 
ATOM     15 BR   UNL     1      -1.281  11.632  19.298  0.00  0.00    +0.000 Br
ATOM     16  C   UNL     1       0.489   9.497  19.888  0.00  0.00    +0.000 A 
ENDBRANCH   9  10
ENDBRANCH   7   8
BRANCH   5  17
ATOM     17  O   UNL     1       5.430   4.465  17.705  0.00  0.00    +0.000 OA
BRANCH  17  18
ATOM     18  C   UNL     1       5.165   3.811  16.463  0.00  0.00    +0.000 C 
BRANCH  18  19
ATOM     19  C   UNL     1       5.733   4.687  15.346  0.00  0.00    +0.000 C 
ATOM     20  C   UNL     1       6.048   4.027  13.983  0.00  0.00    +0.000 C 
ATOM     21  C   UNL     1       7.322   4.886  14.015  0.00  0.00    +0.000 C 
ATOM     22  N   UNL     1       7.199   4.928  15.490  0.00  0.00    +0.000 NA
ATOM     23  H   UNL     1       7.453   5.822  15.907  0.00  0.00    +0.000 HD
ENDBRANCH  18  19
ENDBRANCH  17  18
ENDBRANCH   5  17
TORSDOF 5
ENDMDL
MODEL 6
REMARK VINA RESULT:      -7.0      2.447      4.261
REMARK  Name = 
REMARK  5 active torsions:
REMARK  status: ('A' for Active; 'I' for Inactive)
REMARK    1  A    between atoms: C_5  and  O_6
REMARK    2  A    between atoms: O_6  and  C_7
REMARK    3  A    between atoms: C_7  and  C_8
REMARK    4  A    between atoms: C_13  and  C_14
REMARK    5  A    between atoms: C_15  and  C_16
REMARK                            x       y       z     vdW  Elec       q    Type
REMARK                         _______ _______ _______ _____ _____    ______ ____
ROOT
ATOM      1 CL   UNL     1       6.428   7.346  17.137  0.00  0.00    +0.000 Cl
ATOM      2  C   UNL     1       5.221   6.122  17.215  0.00  0.00    +0.000 A 
ATOM      3  N   UNL     1       5.750   4.916  16.887  0.00  0.00    +0.000 NA
ATOM      4  C   UNL     1       4.924   3.857  16.928  0.00  0.00    +0.000 A 
ATOM      5  C   UNL     1       3.584   3.923  17.283  0.00  0.00    +0.000 A 
ATOM      6  C   UNL     1       3.069   5.177  17.598  0.00  0.00    +0.000 A 
ATOM      7  C   UNL     1       3.880   6.321  17.613  0.00  0.00    +0.000 A 
ENDROOT
BRANCH   7   8
ATOM      8  C   UNL     1       3.258   7.630  17.980  0.00  0.00    +0.000 C 
ATOM      9  C   UNL     1       2.150   7.768  18.764  0.00  0.00    +0.000 C 
BRANCH   9  10
ATOM     10  C   UNL     1       1.530   9.045  19.127  0.00  0.00    +0.000 A 
ATOM     11  C   UNL     1       1.730  10.129  18.264  0.00  0.00    +0.000 A 
ATOM     12  C   UNL     1       1.232  11.367  18.630  0.00  0.00    +0.000 A 
ATOM     13  N   UNL     1       0.572  11.594  19.781  0.00  0.00    +0.000 NA
ATOM     14  C   UNL     1       0.396  10.538  20.607  0.00  0.00    +0.000 A 
ATOM     15 BR   UNL     1      -0.490  10.849  22.254  0.00  0.00    +0.000 Br
ATOM     16  C   UNL     1       0.854   9.260  20.328  0.00  0.00    +0.000 A 
ENDBRANCH   9  10
ENDBRANCH   7   8
BRANCH   5  17
ATOM     17  O   UNL     1       2.924   2.731  17.296  0.00  0.00    +0.000 OA
BRANCH  17  18
ATOM     18  C   UNL     1       3.247   1.805  18.335  0.00  0.00    +0.000 C 
BRANCH  18  19
ATOM     19  C   UNL     1       2.136   1.875  19.382  0.00  0.00    +0.000 C 
ATOM     20  C   UNL     1       0.838   2.639  19.028  0.00  0.00    +0.000 C 
ATOM     21  C   UNL     1       0.929   3.183  20.462  0.00  0.00    +0.000 C 
ATOM     22  N   UNL     1       2.385   2.917  20.421  0.00  0.00    +0.000 NA
ATOM     23  H   UNL     1       2.774   2.574  21.297  0.00  0.00    +0.000 HD
ENDBRANCH  18  19
ENDBRANCH  17  18
ENDBRANCH   5  17
TORSDOF 5
ENDMDL
MODEL 7
REMARK VINA RESULT:      -6.9      1.650      2.042
REMARK  Name = 
REMARK  5 active torsions:
REMARK  status: ('A' for Active; 'I' for Inactive)
REMARK    1  A    between atoms: C_5  and  O_6
REMARK    2  A    between atoms: O_6  and  C_7
REMARK    3  A    between atoms: C_7  and  C_8
REMARK    4  A    between atoms: C_13  and  C_14
REMARK    5  A    between atoms: C_15  and  C_16
REMARK                            x       y       z     vdW  Elec       q    Type
REMARK                         _______ _______ _______ _____ _____    ______ ____
ROOT
ATOM      1 CL   UNL     1       1.726   3.911  21.085  0.00  0.00    +0.000 Cl
ATOM      2  C   UNL     1       2.912   4.378  19.930  0.00  0.00    +0.000 A 
ATOM      3  N   UNL     1       3.626   3.297  19.523  0.00  0.00    +0.000 NA
ATOM      4  C   UNL     1       4.577   3.508  18.598  0.00  0.00    +0.000 A 
ATOM      5  C   UNL     1       4.867   4.746  18.042  0.00  0.00    +0.000 A 
ATOM      6  C   UNL     1       4.128   5.836  18.493  0.00  0.00    +0.000 A 
ATOM      7  C   UNL     1       3.094   5.685  19.428  0.00  0.00    +0.000 A 
ENDROOT
BRANCH   7   8
ATOM      8  C   UNL     1       2.334   6.902  19.850  0.00  0.00    +0.000 C 
ATOM      9  C   UNL     1       2.048   7.957  19.034  0.00  0.00    +0.000 C 
BRANCH   9  10
ATOM     10  C   UNL     1       1.305   9.155  19.438  0.00  0.00    +0.000 A 
ATOM     11  C   UNL     1       1.336  10.256  18.574  0.00  0.00    +0.000 A 
ATOM     12  C   UNL     1       0.719  11.428  18.973  0.00  0.00    +0.000 A 
ATOM     13  N   UNL     1       0.098  11.576  20.157  0.00  0.00    +0.000 NA
ATOM     14  C   UNL     1       0.085  10.506  20.983  0.00  0.00    +0.000 A 
ATOM     15 BR   UNL     1      -0.746  10.712  22.675  0.00  0.00    +0.000 Br
ATOM     16  C   UNL     1       0.671   9.289  20.673  0.00  0.00    +0.000 A 
ENDBRANCH   9  10
ENDBRANCH   7   8
BRANCH   5  17
ATOM     17  O   UNL     1       5.846   4.745  17.094  0.00  0.00    +0.000 OA
BRANCH  17  18
ATOM     18  C   UNL     1       5.681   3.877  15.971  0.00  0.00    +0.000 C 
BRANCH  18  19
ATOM     19  C   UNL     1       6.006   4.680  14.711  0.00  0.00    +0.000 C 
ATOM     20  C   UNL     1       6.357   3.907  13.418  0.00  0.00    +0.000 C 
ATOM     21  C   UNL     1       7.446   4.977  13.237  0.00  0.00    +0.000 C 
ATOM     22  N   UNL     1       7.406   5.197  14.701  0.00  0.00    +0.000 NA
ATOM     23  H   UNL     1       7.513   6.170  14.982  0.00  0.00    +0.000 HD
ENDBRANCH  18  19
ENDBRANCH  17  18
ENDBRANCH   5  17
TORSDOF 5
ENDMDL
MODEL 8
REMARK VINA RESULT:      -6.9      1.322      1.342
REMARK  Name = 
REMARK  5 active torsions:
REMARK  status: ('A' for Active; 'I' for Inactive)
REMARK    1  A    between atoms: C_5  and  O_6
REMARK    2  A    between atoms: O_6  and  C_7
REMARK    3  A    between atoms: C_7  and  C_8
REMARK    4  A    between atoms: C_13  and  C_14
REMARK    5  A    between atoms: C_15  and  C_16
REMARK                            x       y       z     vdW  Elec       q    Type
REMARK                         _______ _______ _______ _____ _____    ______ ____
ROOT
ATOM      1 CL   UNL     1       0.966   3.626  19.532  0.00  0.00    +0.000 Cl
ATOM      2  C   UNL     1       2.265   4.240  18.585  0.00  0.00    +0.000 A 
ATOM      3  N   UNL     1       2.924   3.223  17.973  0.00  0.00    +0.000 NA
ATOM      4  C   UNL     1       3.954   3.556  17.176  0.00  0.00    +0.000 A 
ATOM      5  C   UNL     1       4.374   4.858  16.945  0.00  0.00    +0.000 A 
ATOM      6  C   UNL     1       3.687   5.876  17.600  0.00  0.00    +0.000 A 
ATOM      7  C   UNL     1       2.579   5.607  18.416  0.00  0.00    +0.000 A 
ENDROOT
BRANCH   7   8
ATOM      8  C   UNL     1       1.882   6.756  19.072  0.00  0.00    +0.000 C 
ATOM      9  C   UNL     1       2.011   8.059  18.690  0.00  0.00    +0.000 C 
BRANCH   9  10
ATOM     10  C   UNL     1       1.335   9.192  19.327  0.00  0.00    +0.000 A 
ATOM     11  C   UNL     1       1.388  10.428  18.671  0.00  0.00    +0.000 A 
ATOM     12  C   UNL     1       0.835  11.533  19.294  0.00  0.00    +0.000 A 
ATOM     13  N   UNL     1       0.257  11.491  20.509  0.00  0.00    +0.000 NA
ATOM     14  C   UNL     1       0.223  10.292  21.132  0.00  0.00    +0.000 A 
ATOM     15 BR   UNL     1      -0.546  10.224  22.864  0.00  0.00    +0.000 Br
ATOM     16  C   UNL     1       0.745   9.128  20.590  0.00  0.00    +0.000 A 
ENDBRANCH   9  10
ENDBRANCH   7   8
BRANCH   5  17
ATOM     17  O   UNL     1       5.416   4.989  16.077  0.00  0.00    +0.000 OA
BRANCH  17  18
ATOM     18  C   UNL     1       6.594   4.222  16.333  0.00  0.00    +0.000 C 
BRANCH  18  19
ATOM     19  C   UNL     1       7.593   5.130  17.050  0.00  0.00    +0.000 C 
ATOM     20  C   UNL     1       7.298   5.539  18.512  0.00  0.00    +0.000 C 
ATOM     21  C   UNL     1       7.786   6.930  18.078  0.00  0.00    +0.000 C 
ATOM     22  N   UNL     1       7.431   6.568  16.687  0.00  0.00    +0.000 NA
ATOM     23  H   UNL     1       8.082   6.916  15.985  0.00  0.00    +0.000 HD
ENDBRANCH  18  19
ENDBRANCH  17  18
ENDBRANCH   5  17
TORSDOF 5
ENDMDL
MODEL 9
REMARK VINA RESULT:      -6.9      1.766      1.944
REMARK  Name = 
REMARK  5 active torsions:
REMARK  status: ('A' for Active; 'I' for Inactive)
REMARK    1  A    between atoms: C_5  and  O_6
REMARK    2  A    between atoms: O_6  and  C_7
REMARK    3  A    between atoms: C_7  and  C_8
REMARK    4  A    between atoms: C_13  and  C_14
REMARK    5  A    between atoms: C_15  and  C_16
REMARK                            x       y       z     vdW  Elec       q    Type
REMARK                         _______ _______ _______ _____ _____    ______ ____
ROOT
ATOM      1 CL   UNL     1       1.313   5.147  20.505  0.00  0.00    +0.000 Cl
ATOM      2  C   UNL     1       2.488   5.326  19.260  0.00  0.00    +0.000 A 
ATOM      3  N   UNL     1       3.057   4.127  18.975  0.00  0.00    +0.000 NA
ATOM      4  C   UNL     1       3.982   4.109  17.999  0.00  0.00    +0.000 A 
ATOM      5  C   UNL     1       4.380   5.226  17.279  0.00  0.00    +0.000 A 
ATOM      6  C   UNL     1       3.788   6.442  17.608  0.00  0.00    +0.000 A 
ATOM      7  C   UNL     1       2.790   6.530  18.587  0.00  0.00    +0.000 A 
ENDROOT
BRANCH   7   8
ATOM      8  C   UNL     1       2.189   7.870  18.873  0.00  0.00    +0.000 C 
ATOM      9  C   UNL     1       1.628   8.682  17.932  0.00  0.00    +0.000 C 
BRANCH   9  10
ATOM     10  C   UNL     1       1.039   9.997  18.199  0.00  0.00    +0.000 A 
ATOM     11  C   UNL     1       1.916  11.063  18.435  0.00  0.00    +0.000 A 
ATOM     12  C   UNL     1       1.386  12.294  18.779  0.00  0.00    +0.000 A 
ATOM     13  N   UNL     1       0.067  12.524  18.913  0.00  0.00    +0.000 NA
ATOM     14  C   UNL     1      -0.765  11.483  18.691  0.00  0.00    +0.000 A 
ATOM     15 BR   UNL     1      -2.624  11.779  18.920  0.00  0.00    +0.000 Br
ATOM     16  C   UNL     1      -0.332  10.215  18.339  0.00  0.00    +0.000 A 
ENDBRANCH   9  10
ENDBRANCH   7   8
BRANCH   5  17
ATOM     17  O   UNL     1       5.307   4.993  16.307  0.00  0.00    +0.000 OA
BRANCH  17  18
ATOM     18  C   UNL     1       6.453   4.215  16.656  0.00  0.00    +0.000 C 
BRANCH  18  19
ATOM     19  C   UNL     1       7.524   5.173  17.179  0.00  0.00    +0.000 C 
ATOM     20  C   UNL     1       7.320   5.814  18.573  0.00  0.00    +0.000 C 
ATOM     21  C   UNL     1       7.840   7.097  17.908  0.00  0.00    +0.000 C 
ATOM     22  N   UNL     1       7.400   6.546  16.607  0.00  0.00    +0.000 NA
ATOM     23  H   UNL     1       8.027   6.752  15.831  0.00  0.00    +0.000 HD
ENDBRANCH  18  19
ENDBRANCH  17  18
ENDBRANCH   5  17
TORSDOF 5
ENDMDL
