MODEL 1
REMARK VINA RESULT:      -7.6      0.000      0.000
REMARK  Name = 
REMARK  11 active torsions:
REMARK  status: ('A' for Active; 'I' for Inactive)
REMARK    1  A    between atoms: C_1  and  O_2
REMARK    2  A    between atoms: O_2  and  C_3
REMARK    3  A    between atoms: C_5  and  C_6
REMARK    4  A    between atoms: N_8  and  C_9
REMARK    5  A    between atoms: N_17  and  C_18
REMARK    6  A    between atoms: C_18  and  C_19
REMARK    7  A    between atoms: N_21  and  C_22
REMARK    8  A    between atoms: C_29  and  O_30
REMARK    9  A    between atoms: O_30  and  C_31
REMARK   10  A    between atoms: C_32  and  O_33
REMARK   11  A    between atoms: O_33  and  C_34
REMARK                            x       y       z     vdW  Elec       q    Type
REMARK                         _______ _______ _______ _____ _____    ______ ____
ROOT
ATOM      1  C   UNL     1       2.615   7.297  18.423  0.00  0.00    +0.000 C 
ATOM      2  C   UNL     1       3.275   6.848  19.732  0.00  0.00    +0.000 C 
ATOM      3  C   UNL     1       3.377   5.336  19.976  0.00  0.00    +0.000 C 
ATOM      4  C   UNL     1       2.140   4.749  20.665  0.00  0.00    +0.000 C 
ATOM      5  C   UNL     1       1.061   4.157  19.763  0.00  0.00    +0.000 C 
ATOM      6  C   UNL     1       1.355   4.089  18.268  0.00  0.00    +0.000 C 
ATOM      7  C   UNL     1       2.646   4.760  17.784  0.00  0.00    +0.000 C 
ATOM      8  C   UNL     1       2.442   6.218  17.348  0.00  0.00    +0.000 C 
ATOM      9  N   UNL     1       3.708   4.552  18.780  0.00  0.00    +0.000 NA
ENDROOT
BRANCH   1  12
ATOM     10  C   UNL     1       1.271   9.342  18.144  0.00  0.00    +0.000 C 
ATOM     11  O   UNL     1       2.191   9.948  17.605  0.00  0.00    +0.000 OA
ATOM     12  N   UNL     1       1.390   8.060  18.664  0.00  0.00    +0.000 N 
ATOM     13  H   UNL     1       0.539   7.547  18.852  0.00  0.00    +0.000 HD
BRANCH  10  16
ATOM     14  C   UNL     1      -1.563  11.653  19.047  0.00  0.00    +0.000 A 
ATOM     15  C   UNL     1      -0.372  10.914  19.110  0.00  0.00    +0.000 A 
ATOM     16  C   UNL     1      -0.090   9.936  18.157  0.00  0.00    +0.000 A 
ATOM     17  C   UNL     1      -1.060   9.595  17.224  0.00  0.00    +0.000 A 
ATOM     18  C   UNL     1      -2.297  10.254  17.203  0.00  0.00    +0.000 A 
ATOM     19  C   UNL     1      -2.564  11.306  18.112  0.00  0.00    +0.000 A 
BRANCH  14  21
ATOM     20  C   UNL     1      -0.744  13.714  19.897  0.00  0.00    +0.000 C 
ATOM     21  O   UNL     1      -1.757  12.703  19.910  0.00  0.00    +0.000 OA
ENDBRANCH  14  21
BRANCH  18  22
ATOM     22  O   UNL     1      -3.096   9.750  16.207  0.00  0.00    +0.000 OA
ATOM     23  C   UNL     1      -2.991  10.264  14.890  0.00  0.00    +0.000 C 
ENDBRANCH  18  22
BRANCH  19  24
ATOM     24  O   UNL     1      -3.796  11.888  18.001  0.00  0.00    +0.000 OA
ATOM     25  C   UNL     1      -4.899  11.434  18.768  0.00  0.00    +0.000 C 
ENDBRANCH  19  24
ENDBRANCH  10  16
ENDBRANCH   1  12
BRANCH   9  26
ATOM     26  C   UNL     1       5.060   4.894  18.291  0.00  0.00    +0.000 C 
BRANCH  26  27
ATOM     27  C   UNL     1       5.359   4.231  16.960  0.00  0.00    +0.000 C 
ATOM     28  O   UNL     1       5.005   3.065  16.760  0.00  0.00    +0.000 OA
ATOM     29  N   UNL     1       6.021   5.051  16.057  0.00  0.00    +0.000 N 
ATOM     30  H   UNL     1       6.427   5.886  16.461  0.00  0.00    +0.000 HD
BRANCH  29  31
ATOM     31  C   UNL     1       6.336   4.731  14.723  0.00  0.00    +0.000 A 
ATOM     32  C   UNL     1       5.595   3.810  13.975  0.00  0.00    +0.000 A 
ATOM     33  C   UNL     1       5.952   3.498  12.663  0.00  0.00    +0.000 A 
ATOM     34  C   UNL     1       7.046   4.114  12.073  0.00  0.00    +0.000 A 
ATOM     35  C   UNL     1       7.782   5.055  12.796  0.00  0.00    +0.000 A 
ATOM     36  C   UNL     1       7.424   5.367  14.113  0.00  0.00    +0.000 A 
ENDBRANCH  29  31
ENDBRANCH  26  27
ENDBRANCH   9  26
TORSDOF 8
ENDMDL
MODEL 2
REMARK VINA RESULT:      -7.4      0.741      1.108
REMARK  Name = 
REMARK  11 active torsions:
REMARK  status: ('A' for Active; 'I' for Inactive)
REMARK    1  A    between atoms: C_1  and  O_2
REMARK    2  A    between atoms: O_2  and  C_3
REMARK    3  A    between atoms: C_5  and  C_6
REMARK    4  A    between atoms: N_8  and  C_9
REMARK    5  A    between atoms: N_17  and  C_18
REMARK    6  A    between atoms: C_18  and  C_19
REMARK    7  A    between atoms: N_21  and  C_22
REMARK    8  A    between atoms: C_29  and  O_30
REMARK    9  A    between atoms: O_30  and  C_31
REMARK   10  A    between atoms: C_32  and  O_33
REMARK   11  A    between atoms: O_33  and  C_34
REMARK                            x       y       z     vdW  Elec       q    Type
REMARK                         _______ _______ _______ _____ _____    ______ ____
ROOT
ATOM      1  C   UNL     1       2.470   7.698  18.920  0.00  0.00    +0.000 C 
ATOM      2  C   UNL     1       2.856   6.972  20.215  0.00  0.00    +0.000 C 
ATOM      3  C   UNL     1       3.054   5.453  20.127  0.00  0.00    +0.000 C 
ATOM      4  C   UNL     1       1.760   4.659  20.336  0.00  0.00    +0.000 C 
ATOM      5  C   UNL     1       0.984   4.258  19.085  0.00  0.00    +0.000 C 
ATOM      6  C   UNL     1       1.619   4.572  17.735  0.00  0.00    +0.000 C 
ATOM      7  C   UNL     1       2.909   5.399  17.750  0.00  0.00    +0.000 C 
ATOM      8  C   UNL     1       2.662   6.909  17.620  0.00  0.00    +0.000 C 
ATOM      9  N   UNL     1       3.730   5.002  18.904  0.00  0.00    +0.000 NA
ENDROOT
BRANCH   1  12
ATOM     10  C   UNL     1       0.975   9.621  18.560  0.00  0.00    +0.000 C 
ATOM     11  O   UNL     1       1.895  10.349  18.202  0.00  0.00    +0.000 OA
ATOM     12  N   UNL     1       1.151   8.322  19.017  0.00  0.00    +0.000 N 
ATOM     13  H   UNL     1       0.339   7.718  19.045  0.00  0.00    +0.000 HD
BRANCH  10  16
ATOM     14  C   UNL     1      -2.168  11.622  19.116  0.00  0.00    +0.000 A 
ATOM     15  C   UNL     1      -0.928  10.998  19.324  0.00  0.00    +0.000 A 
ATOM     16  C   UNL     1      -0.429  10.081  18.401  0.00  0.00    +0.000 A 
ATOM     17  C   UNL     1      -1.229   9.676  17.342  0.00  0.00    +0.000 A 
ATOM     18  C   UNL     1      -2.512  10.214  17.167  0.00  0.00    +0.000 A 
ATOM     19  C   UNL     1      -2.998  11.208  18.050  0.00  0.00    +0.000 A 
BRANCH  14  21
ATOM     20  C   UNL     1      -1.605  13.636  20.242  0.00  0.00    +0.000 C 
ATOM     21  O   UNL     1      -2.576  12.622  19.962  0.00  0.00    +0.000 OA
ENDBRANCH  14  21
BRANCH  18  22
ATOM     22  O   UNL     1      -3.120   9.664  16.066  0.00  0.00    +0.000 OA
ATOM     23  C   UNL     1      -3.001  10.301  14.804  0.00  0.00    +0.000 C 
ENDBRANCH  18  22
BRANCH  19  24
ATOM     24  O   UNL     1      -4.257  11.672  17.786  0.00  0.00    +0.000 OA
ATOM     25  C   UNL     1      -5.395  11.131  18.436  0.00  0.00    +0.000 C 
ENDBRANCH  19  24
ENDBRANCH  10  16
ENDBRANCH   1  12
BRANCH   9  26
ATOM     26  C   UNL     1       5.115   5.514  18.856  0.00  0.00    +0.000 C 
BRANCH  26  27
ATOM     27  C   UNL     1       5.895   4.917  17.699  0.00  0.00    +0.000 C 
ATOM     28  O   UNL     1       6.750   4.053  17.914  0.00  0.00    +0.000 OA
ATOM     29  N   UNL     1       5.536   5.421  16.457  0.00  0.00    +0.000 N 
ATOM     30  H   UNL     1       4.986   6.271  16.487  0.00  0.00    +0.000 HD
BRANCH  29  31
ATOM     31  C   UNL     1       6.023   4.981  15.212  0.00  0.00    +0.000 A 
ATOM     32  C   UNL     1       7.236   5.427  14.678  0.00  0.00    +0.000 A 
ATOM     33  C   UNL     1       7.674   4.989  13.428  0.00  0.00    +0.000 A 
ATOM     34  C   UNL     1       6.914   4.085  12.700  0.00  0.00    +0.000 A 
ATOM     35  C   UNL     1       5.713   3.610  13.229  0.00  0.00    +0.000 A 
ATOM     36  C   UNL     1       5.273   4.051  14.483  0.00  0.00    +0.000 A 
ENDBRANCH  29  31
ENDBRANCH  26  27
ENDBRANCH   9  26
TORSDOF 8
ENDMDL
MODEL 3
REMARK VINA RESULT:      -7.3      0.478      2.341
REMARK  Name = 
REMARK  11 active torsions:
REMARK  status: ('A' for Active; 'I' for Inactive)
REMARK    1  A    between atoms: C_1  and  O_2
REMARK    2  A    between atoms: O_2  and  C_3
REMARK    3  A    between atoms: C_5  and  C_6
REMARK    4  A    between atoms: N_8  and  C_9
REMARK    5  A    between atoms: N_17  and  C_18
REMARK    6  A    between atoms: C_18  and  C_19
REMARK    7  A    between atoms: N_21  and  C_22
REMARK    8  A    between atoms: C_29  and  O_30
REMARK    9  A    between atoms: O_30  and  C_31
REMARK   10  A    between atoms: C_32  and  O_33
REMARK   11  A    between atoms: O_33  and  C_34
REMARK                            x       y       z     vdW  Elec       q    Type
REMARK                         _______ _______ _______ _____ _____    ______ ____
ROOT
ATOM      1  C   UNL     1       2.627   7.278  18.581  0.00  0.00    +0.000 C 
ATOM      2  C   UNL     1       3.185   6.729  19.900  0.00  0.00    +0.000 C 
ATOM      3  C   UNL     1       3.214   5.203  20.060  0.00  0.00    +0.000 C 
ATOM      4  C   UNL     1       1.915   4.629  20.635  0.00  0.00    +0.000 C 
ATOM      5  C   UNL     1       0.875   4.133  19.635  0.00  0.00    +0.000 C 
ATOM      6  C   UNL     1       1.262   4.138  18.160  0.00  0.00    +0.000 C 
ATOM      7  C   UNL     1       2.605   4.781  17.797  0.00  0.00    +0.000 C 
ATOM      8  C   UNL     1       2.485   6.269  17.435  0.00  0.00    +0.000 C 
ATOM      9  N   UNL     1       3.592   4.474  18.843  0.00  0.00    +0.000 NA
ENDROOT
BRANCH   1  12
ATOM     10  C   UNL     1       1.342   9.353  18.251  0.00  0.00    +0.000 C 
ATOM     11  O   UNL     1       2.288   9.927  17.722  0.00  0.00    +0.000 OA
ATOM     12  N   UNL     1       1.419   8.075  18.790  0.00  0.00    +0.000 N 
ATOM     13  H   UNL     1       0.551   7.587  18.969  0.00  0.00    +0.000 HD
BRANCH  10  16
ATOM     14  C   UNL     1      -2.192  10.095  17.183  0.00  0.00    +0.000 A 
ATOM     15  C   UNL     1      -0.847   9.697  17.160  0.00  0.00    +0.000 A 
ATOM     16  C   UNL     1      -0.003   9.982  18.232  0.00  0.00    +0.000 A 
ATOM     17  C   UNL     1      -0.461  10.789  19.264  0.00  0.00    +0.000 A 
ATOM     18  C   UNL     1      -1.775  11.279  19.261  0.00  0.00    +0.000 A 
ATOM     19  C   UNL     1      -2.667  10.928  18.221  0.00  0.00    +0.000 A 
BRANCH  14  21
ATOM     20  C   UNL     1      -2.995  10.453  14.977  0.00  0.00    +0.000 C 
ATOM     21  O   UNL     1      -3.039   9.684  16.184  0.00  0.00    +0.000 OA
ENDBRANCH  14  21
BRANCH  18  22
ATOM     22  O   UNL     1      -2.003  12.056  20.370  0.00  0.00    +0.000 OA
ATOM     23  C   UNL     1      -0.990  12.197  21.353  0.00  0.00    +0.000 C 
ENDBRANCH  18  22
BRANCH  19  24
ATOM     24  O   UNL     1      -3.927  11.452  18.317  0.00  0.00    +0.000 OA
ATOM     25  C   UNL     1      -5.063  10.618  18.474  0.00  0.00    +0.000 C 
ENDBRANCH  19  24
ENDBRANCH  10  16
ENDBRANCH   1  12
BRANCH   9  26
ATOM     26  C   UNL     1       4.985   4.788  18.460  0.00  0.00    +0.000 C 
BRANCH  26  27
ATOM     27  C   UNL     1       5.359   4.152  17.135  0.00  0.00    +0.000 C 
ATOM     28  O   UNL     1       5.160   2.946  16.953  0.00  0.00    +0.000 OA
ATOM     29  N   UNL     1       5.902   5.038  16.216  0.00  0.00    +0.000 N 
ATOM     30  H   UNL     1       6.197   5.925  16.605  0.00  0.00    +0.000 HD
BRANCH  29  31
ATOM     31  C   UNL     1       6.246   4.743  14.883  0.00  0.00    +0.000 A 
ATOM     32  C   UNL     1       7.407   5.234  14.279  0.00  0.00    +0.000 A 
ATOM     33  C   UNL     1       7.703   4.943  12.948  0.00  0.00    +0.000 A 
ATOM     34  C   UNL     1       6.850   4.142  12.204  0.00  0.00    +0.000 A 
ATOM     35  C   UNL     1       5.698   3.621  12.798  0.00  0.00    +0.000 A 
ATOM     36  C   UNL     1       5.402   3.915  14.134  0.00  0.00    +0.000 A 
ENDBRANCH  29  31
ENDBRANCH  26  27
ENDBRANCH   9  26
TORSDOF 8
ENDMDL
MODEL 4
REMARK VINA RESULT:      -7.2      3.227     11.099
REMARK  Name = 
REMARK  11 active torsions:
REMARK  status: ('A' for Active; 'I' for Inactive)
REMARK    1  A    between atoms: C_1  and  O_2
REMARK    2  A    between atoms: O_2  and  C_3
REMARK    3  A    between atoms: C_5  and  C_6
REMARK    4  A    between atoms: N_8  and  C_9
REMARK    5  A    between atoms: N_17  and  C_18
REMARK    6  A    between atoms: C_18  and  C_19
REMARK    7  A    between atoms: N_21  and  C_22
REMARK    8  A    between atoms: C_29  and  O_30
REMARK    9  A    between atoms: O_30  and  C_31
REMARK   10  A    between atoms: C_32  and  O_33
REMARK   11  A    between atoms: O_33  and  C_34
REMARK                            x       y       z     vdW  Elec       q    Type
REMARK                         _______ _______ _______ _____ _____    ______ ____
ROOT
ATOM      1  C   UNL     1       0.432   9.615  20.038  0.00  0.00    +0.000 C 
ATOM      2  C   UNL     1       1.086  10.529  21.082  0.00  0.00    +0.000 C 
ATOM      3  C   UNL     1       0.815  12.034  20.955  0.00  0.00    +0.000 C 
ATOM      4  C   UNL     1       1.808  12.753  20.036  0.00  0.00    +0.000 C 
ATOM      5  C   UNL     1       1.397  12.932  18.578  0.00  0.00    +0.000 C 
ATOM      6  C   UNL     1      -0.009  12.491  18.185  0.00  0.00    +0.000 C 
ATOM      7  C   UNL     1      -0.833  11.768  19.256  0.00  0.00    +0.000 C 
ATOM      8  C   UNL     1      -0.690  10.240  19.200  0.00  0.00    +0.000 C 
ATOM      9  N   UNL     1      -0.561  12.370  20.571  0.00  0.00    +0.000 NA
ENDROOT
BRANCH   1  12
ATOM     10  C   UNL     1       1.896   7.676  19.637  0.00  0.00    +0.000 C 
ATOM     11  O   UNL     1       1.638   7.177  20.728  0.00  0.00    +0.000 OA
ATOM     12  N   UNL     1       1.427   8.916  19.225  0.00  0.00    +0.000 N 
ATOM     13  H   UNL     1       1.472   9.132  18.238  0.00  0.00    +0.000 HD
BRANCH  10  16
ATOM     14  C   UNL     1       4.577   6.785  17.147  0.00  0.00    +0.000 A 
ATOM     15  C   UNL     1       3.697   7.522  17.954  0.00  0.00    +0.000 A 
ATOM     16  C   UNL     1       2.657   6.890  18.633  0.00  0.00    +0.000 A 
ATOM     17  C   UNL     1       2.405   5.546  18.394  0.00  0.00    +0.000 A 
ATOM     18  C   UNL     1       3.213   4.810  17.515  0.00  0.00    +0.000 A 
ATOM     19  C   UNL     1       4.323   5.420  16.884  0.00  0.00    +0.000 A 
BRANCH  14  21
ATOM     20  C   UNL     1       6.845   7.435  17.425  0.00  0.00    +0.000 C 
ATOM     21  O   UNL     1       5.675   7.401  16.600  0.00  0.00    +0.000 OA
ENDBRANCH  14  21
BRANCH  18  22
ATOM     22  O   UNL     1       2.776   3.512  17.428  0.00  0.00    +0.000 OA
ATOM     23  C   UNL     1       2.799   2.682  18.578  0.00  0.00    +0.000 C 
ENDBRANCH  18  22
BRANCH  19  24
ATOM     24  O   UNL     1       5.051   4.613  16.054  0.00  0.00    +0.000 OA
ATOM     25  C   UNL     1       6.257   4.005  16.486  0.00  0.00    +0.000 C 
ENDBRANCH  19  24
ENDBRANCH  10  16
ENDBRANCH   1  12
BRANCH   9  26
ATOM     26  C   UNL     1      -1.511  11.956  21.625  0.00  0.00    +0.000 C 
BRANCH  26  27
ATOM     27  C   UNL     1      -2.713  12.880  21.691  0.00  0.00    +0.000 C 
ATOM     28  O   UNL     1      -2.662  13.994  21.161  0.00  0.00    +0.000 OA
ATOM     29  N   UNL     1      -3.801  12.343  22.363  0.00  0.00    +0.000 N 
ATOM     30  H   UNL     1      -3.594  11.523  22.920  0.00  0.00    +0.000 HD
BRANCH  29  31
ATOM     31  C   UNL     1      -5.071  12.936  22.491  0.00  0.00    +0.000 A 
ATOM     32  C   UNL     1      -6.107  12.701  21.582  0.00  0.00    +0.000 A 
ATOM     33  C   UNL     1      -7.345  13.326  21.726  0.00  0.00    +0.000 A 
ATOM     34  C   UNL     1      -7.572  14.186  22.791  0.00  0.00    +0.000 A 
ATOM     35  C   UNL     1      -6.558  14.413  23.724  0.00  0.00    +0.000 A 
ATOM     36  C   UNL     1      -5.315  13.785  23.577  0.00  0.00    +0.000 A 
ENDBRANCH  29  31
ENDBRANCH  26  27
ENDBRANCH   9  26
TORSDOF 8
ENDMDL
MODEL 5
REMARK VINA RESULT:      -7.2      2.660     10.376
REMARK  Name = 
REMARK  11 active torsions:
REMARK  status: ('A' for Active; 'I' for Inactive)
REMARK    1  A    between atoms: C_1  and  O_2
REMARK    2  A    between atoms: O_2  and  C_3
REMARK    3  A    between atoms: C_5  and  C_6
REMARK    4  A    between atoms: N_8  and  C_9
REMARK    5  A    between atoms: N_17  and  C_18
REMARK    6  A    between atoms: C_18  and  C_19
REMARK    7  A    between atoms: N_21  and  C_22
REMARK    8  A    between atoms: C_29  and  O_30
REMARK    9  A    between atoms: O_30  and  C_31
REMARK   10  A    between atoms: C_32  and  O_33
REMARK   11  A    between atoms: O_33  and  C_34
REMARK                            x       y       z     vdW  Elec       q    Type
REMARK                         _______ _______ _______ _____ _____    ______ ____
ROOT
ATOM      1  C   UNL     1       0.440   9.754  19.595  0.00  0.00    +0.000 C 
ATOM      2  C   UNL     1       0.956  10.484  20.841  0.00  0.00    +0.000 C 
ATOM      3  C   UNL     1       0.875  12.016  20.831  0.00  0.00    +0.000 C 
ATOM      4  C   UNL     1       2.106  12.684  20.209  0.00  0.00    +0.000 C 
ATOM      5  C   UNL     1       2.026  13.040  18.728  0.00  0.00    +0.000 C 
ATOM      6  C   UNL     1       0.694  12.814  18.023  0.00  0.00    +0.000 C 
ATOM      7  C   UNL     1      -0.405  12.108  18.825  0.00  0.00    +0.000 C 
ATOM      8  C   UNL     1      -0.413  10.584  18.629  0.00  0.00    +0.000 C 
ATOM      9  N   UNL     1      -0.350  12.553  20.226  0.00  0.00    +0.000 NA
ENDROOT
BRANCH   1  12
ATOM     10  C   UNL     1       1.913   7.787  19.432  0.00  0.00    +0.000 C 
ATOM     11  O   UNL     1       1.539   7.340  20.511  0.00  0.00    +0.000 OA
ATOM     12  N   UNL     1       1.503   9.010  18.919  0.00  0.00    +0.000 N 
ATOM     13  H   UNL     1       1.651   9.181  17.933  0.00  0.00    +0.000 HD
BRANCH  10  16
ATOM     14  C   UNL     1       4.793   6.783  17.222  0.00  0.00    +0.000 A 
ATOM     15  C   UNL     1       3.841   7.555  17.906  0.00  0.00    +0.000 A 
ATOM     16  C   UNL     1       2.761   6.950  18.546  0.00  0.00    +0.000 A 
ATOM     17  C   UNL     1       2.549   5.587  18.383  0.00  0.00    +0.000 A 
ATOM     18  C   UNL     1       3.435   4.810  17.623  0.00  0.00    +0.000 A 
ATOM     19  C   UNL     1       4.581   5.398  17.037  0.00  0.00    +0.000 A 
BRANCH  14  21
ATOM     20  C   UNL     1       7.119   7.189  17.477  0.00  0.00    +0.000 C 
ATOM     21  O   UNL     1       5.920   7.383  16.719  0.00  0.00    +0.000 OA
ENDBRANCH  14  21
BRANCH  18  22
ATOM     22  O   UNL     1       3.025   3.500  17.594  0.00  0.00    +0.000 OA
ATOM     23  C   UNL     1       1.761   3.145  18.130  0.00  0.00    +0.000 C 
ENDBRANCH  18  22
BRANCH  19  24
ATOM     24  O   UNL     1       5.384   4.551  16.323  0.00  0.00    +0.000 OA
ATOM     25  C   UNL     1       5.392   4.561  14.906  0.00  0.00    +0.000 C 
ENDBRANCH  19  24
ENDBRANCH  10  16
ENDBRANCH   1  12
BRANCH   9  26
ATOM     26  C   UNL     1      -1.534  12.170  21.022  0.00  0.00    +0.000 C 
BRANCH  26  27
ATOM     27  C   UNL     1      -2.802  12.804  20.481  0.00  0.00    +0.000 C 
ATOM     28  O   UNL     1      -2.943  14.030  20.524  0.00  0.00    +0.000 OA
ATOM     29  N   UNL     1      -3.709  11.895  19.957  0.00  0.00    +0.000 N 
ATOM     30  H   UNL     1      -3.533  10.929  20.205  0.00  0.00    +0.000 HD
BRANCH  29  31
ATOM     31  C   UNL     1      -4.917  12.210  19.305  0.00  0.00    +0.000 A 
ATOM     32  C   UNL     1      -5.062  12.144  17.916  0.00  0.00    +0.000 A 
ATOM     33  C   UNL     1      -6.266  12.489  17.302  0.00  0.00    +0.000 A 
ATOM     34  C   UNL     1      -7.350  12.889  18.070  0.00  0.00    +0.000 A 
ATOM     35  C   UNL     1      -7.231  12.936  19.461  0.00  0.00    +0.000 A 
ATOM     36  C   UNL     1      -6.021  12.591  20.076  0.00  0.00    +0.000 A 
ENDBRANCH  29  31
ENDBRANCH  26  27
ENDBRANCH   9  26
TORSDOF 8
ENDMDL
MODEL 6
REMARK VINA RESULT:      -7.2      3.405     10.940
REMARK  Name = 
REMARK  11 active torsions:
REMARK  status: ('A' for Active; 'I' for Inactive)
REMARK    1  A    between atoms: C_1  and  O_2
REMARK    2  A    between atoms: O_2  and  C_3
REMARK    3  A    between atoms: C_5  and  C_6
REMARK    4  A    between atoms: N_8  and  C_9
REMARK    5  A    between atoms: N_17  and  C_18
REMARK    6  A    between atoms: C_18  and  C_19
REMARK    7  A    between atoms: N_21  and  C_22
REMARK    8  A    between atoms: C_29  and  O_30
REMARK    9  A    between atoms: O_30  and  C_31
REMARK   10  A    between atoms: C_32  and  O_33
REMARK   11  A    between atoms: O_33  and  C_34
REMARK                            x       y       z     vdW  Elec       q    Type
REMARK                         _______ _______ _______ _____ _____    ______ ____
ROOT
ATOM      1  C   UNL     1       0.556   9.535  19.564  0.00  0.00    +0.000 C 
ATOM      2  C   UNL     1       1.070  10.290  20.796  0.00  0.00    +0.000 C 
ATOM      3  C   UNL     1       0.919  11.817  20.788  0.00  0.00    +0.000 C 
ATOM      4  C   UNL     1       2.102  12.539  20.135  0.00  0.00    +0.000 C 
ATOM      5  C   UNL     1       1.968  12.888  18.656  0.00  0.00    +0.000 C 
ATOM      6  C   UNL     1       0.630  12.601  17.985  0.00  0.00    +0.000 C 
ATOM      7  C   UNL     1      -0.415  11.847  18.816  0.00  0.00    +0.000 C 
ATOM      8  C   UNL     1      -0.359  10.325  18.620  0.00  0.00    +0.000 C 
ATOM      9  N   UNL     1      -0.344  12.297  20.214  0.00  0.00    +0.000 NA
ENDROOT
BRANCH   1  12
ATOM     10  C   UNL     1       2.052   7.595  19.313  0.00  0.00    +0.000 C 
ATOM     11  O   UNL     1       1.673   7.089  20.364  0.00  0.00    +0.000 OA
ATOM     12  N   UNL     1       1.634   8.840  18.861  0.00  0.00    +0.000 N 
ATOM     13  H   UNL     1       1.789   9.063  17.887  0.00  0.00    +0.000 HD
BRANCH  10  16
ATOM     14  C   UNL     1       4.984   6.725  17.115  0.00  0.00    +0.000 A 
ATOM     15  C   UNL     1       4.019   7.455  17.826  0.00  0.00    +0.000 A 
ATOM     16  C   UNL     1       2.919   6.815  18.394  0.00  0.00    +0.000 A 
ATOM     17  C   UNL     1       2.703   5.470  18.131  0.00  0.00    +0.000 A 
ATOM     18  C   UNL     1       3.604   4.740  17.341  0.00  0.00    +0.000 A 
ATOM     19  C   UNL     1       4.769   5.358  16.828  0.00  0.00    +0.000 A 
BRANCH  14  21
ATOM     20  C   UNL     1       7.272   7.206  17.534  0.00  0.00    +0.000 C 
ATOM     21  O   UNL     1       6.128   7.350  16.685  0.00  0.00    +0.000 OA
ENDBRANCH  14  21
BRANCH  18  22
ATOM     22  O   UNL     1       3.187   3.439  17.210  0.00  0.00    +0.000 OA
ATOM     23  C   UNL     1       3.386   2.524  18.276  0.00  0.00    +0.000 C 
ENDBRANCH  18  22
BRANCH  19  24
ATOM     24  O   UNL     1       5.585   4.557  16.079  0.00  0.00    +0.000 OA
ATOM     25  C   UNL     1       5.564   4.600  14.662  0.00  0.00    +0.000 C 
ENDBRANCH  19  24
ENDBRANCH  10  16
ENDBRANCH   1  12
BRANCH   9  26
ATOM     26  C   UNL     1      -1.489  11.861  21.040  0.00  0.00    +0.000 C 
BRANCH  26  27
ATOM     27  C   UNL     1      -1.454  12.486  22.423  0.00  0.00    +0.000 C 
ATOM     28  O   UNL     1      -1.118  11.805  23.397  0.00  0.00    +0.000 OA
ATOM     29  N   UNL     1      -1.808  13.827  22.445  0.00  0.00    +0.000 N 
ATOM     30  H   UNL     1      -2.265  14.159  21.605  0.00  0.00    +0.000 HD
BRANCH  29  31
ATOM     31  C   UNL     1      -1.769  14.676  23.568  0.00  0.00    +0.000 A 
ATOM     32  C   UNL     1      -0.688  15.521  23.834  0.00  0.00    +0.000 A 
ATOM     33  C   UNL     1      -0.671  16.330  24.970  0.00  0.00    +0.000 A 
ATOM     34  C   UNL     1      -1.745  16.318  25.850  0.00  0.00    +0.000 A 
ATOM     35  C   UNL     1      -2.845  15.499  25.586  0.00  0.00    +0.000 A 
ATOM     36  C   UNL     1      -2.859  14.687  24.446  0.00  0.00    +0.000 A 
ENDBRANCH  29  31
ENDBRANCH  26  27
ENDBRANCH   9  26
TORSDOF 8
ENDMDL
MODEL 7
REMARK VINA RESULT:      -7.1      4.246      7.633
REMARK  Name = 
REMARK  11 active torsions:
REMARK  status: ('A' for Active; 'I' for Inactive)
REMARK    1  A    between atoms: C_1  and  O_2
REMARK    2  A    between atoms: O_2  and  C_3
REMARK    3  A    between atoms: C_5  and  C_6
REMARK    4  A    between atoms: N_8  and  C_9
REMARK    5  A    between atoms: N_17  and  C_18
REMARK    6  A    between atoms: C_18  and  C_19
REMARK    7  A    between atoms: N_21  and  C_22
REMARK    8  A    between atoms: C_29  and  O_30
REMARK    9  A    between atoms: O_30  and  C_31
REMARK   10  A    between atoms: C_32  and  O_33
REMARK   11  A    between atoms: O_33  and  C_34
REMARK                            x       y       z     vdW  Elec       q    Type
REMARK                         _______ _______ _______ _____ _____    ______ ____
ROOT
ATOM      1  C   UNL     1      -1.267  11.599  21.176  0.00  0.00    +0.000 C 
ATOM      2  C   UNL     1      -1.494  11.299  19.689  0.00  0.00    +0.000 C 
ATOM      3  C   UNL     1      -0.293  11.485  18.752  0.00  0.00    +0.000 C 
ATOM      4  C   UNL     1      -0.164  12.912  18.210  0.00  0.00    +0.000 C 
ATOM      5  C   UNL     1       0.756  13.861  18.972  0.00  0.00    +0.000 C 
ATOM      6  C   UNL     1       1.559  13.281  20.131  0.00  0.00    +0.000 C 
ATOM      7  C   UNL     1       1.257  11.830  20.526  0.00  0.00    +0.000 C 
ATOM      8  C   UNL     1       0.194  11.711  21.627  0.00  0.00    +0.000 C 
ATOM      9  N   UNL     1       0.988  11.040  19.315  0.00  0.00    +0.000 NA
ENDROOT
BRANCH   1  12
ATOM     10  C   UNL     1      -2.766  12.608  22.849  0.00  0.00    +0.000 C 
ATOM     11  O   UNL     1      -2.834  11.572  23.503  0.00  0.00    +0.000 OA
ATOM     12  N   UNL     1      -2.092  12.714  21.639  0.00  0.00    +0.000 N 
ATOM     13  H   UNL     1      -1.871  13.642  21.304  0.00  0.00    +0.000 HD
BRANCH  10  16
ATOM     14  C   UNL     1      -5.291  15.258  23.734  0.00  0.00    +0.000 A 
ATOM     15  C   UNL     1      -4.641  14.198  23.083  0.00  0.00    +0.000 A 
ATOM     16  C   UNL     1      -3.327  13.865  23.406  0.00  0.00    +0.000 A 
ATOM     17  C   UNL     1      -2.611  14.679  24.273  0.00  0.00    +0.000 A 
ATOM     18  C   UNL     1      -3.211  15.802  24.861  0.00  0.00    +0.000 A 
ATOM     19  C   UNL     1      -4.570  16.103  24.607  0.00  0.00    +0.000 A 
BRANCH  14  21
ATOM     20  C   UNL     1      -7.522  14.499  24.037  0.00  0.00    +0.000 C 
ATOM     21  O   UNL     1      -6.626  15.481  23.503  0.00  0.00    +0.000 OA
ENDBRANCH  14  21
BRANCH  18  22
ATOM     22  O   UNL     1      -2.317  16.458  25.672  0.00  0.00    +0.000 OA
ATOM     23  C   UNL     1      -1.106  15.822  26.045  0.00  0.00    +0.000 C 
ENDBRANCH  18  22
BRANCH  19  24
ATOM     24  O   UNL     1      -5.059  17.214  25.237  0.00  0.00    +0.000 OA
ATOM     25  C   UNL     1      -5.065  18.481  24.602  0.00  0.00    +0.000 C 
ENDBRANCH  19  24
ENDBRANCH  10  16
ENDBRANCH   1  12
BRANCH   9  26
ATOM     26  C   UNL     1       0.977   9.581  19.544  0.00  0.00    +0.000 C 
BRANCH  26  27
ATOM     27  C   UNL     1       1.767   8.840  18.481  0.00  0.00    +0.000 C 
ATOM     28  O   UNL     1       1.983   9.377  17.390  0.00  0.00    +0.000 OA
ATOM     29  N   UNL     1       2.196   7.581  18.872  0.00  0.00    +0.000 N 
ATOM     30  H   UNL     1       1.744   7.217  19.702  0.00  0.00    +0.000 HD
BRANCH  29  31
ATOM     31  C   UNL     1       3.025   6.719  18.128  0.00  0.00    +0.000 A 
ATOM     32  C   UNL     1       2.773   5.349  18.008  0.00  0.00    +0.000 A 
ATOM     33  C   UNL     1       3.630   4.521  17.284  0.00  0.00    +0.000 A 
ATOM     34  C   UNL     1       4.746   5.054  16.654  0.00  0.00    +0.000 A 
ATOM     35  C   UNL     1       5.000   6.424  16.741  0.00  0.00    +0.000 A 
ATOM     36  C   UNL     1       4.139   7.254  17.470  0.00  0.00    +0.000 A 
ENDBRANCH  29  31
ENDBRANCH  26  27
ENDBRANCH   9  26
TORSDOF 8
ENDMDL
MODEL 8
REMARK VINA RESULT:      -7.0      3.975      6.991
REMARK  Name = 
REMARK  11 active torsions:
REMARK  status: ('A' for Active; 'I' for Inactive)
REMARK    1  A    between atoms: C_1  and  O_2
REMARK    2  A    between atoms: O_2  and  C_3
REMARK    3  A    between atoms: C_5  and  C_6
REMARK    4  A    between atoms: N_8  and  C_9
REMARK    5  A    between atoms: N_17  and  C_18
REMARK    6  A    between atoms: C_18  and  C_19
REMARK    7  A    between atoms: N_21  and  C_22
REMARK    8  A    between atoms: C_29  and  O_30
REMARK    9  A    between atoms: O_30  and  C_31
REMARK   10  A    between atoms: C_32  and  O_33
REMARK   11  A    between atoms: O_33  and  C_34
REMARK                            x       y       z     vdW  Elec       q    Type
REMARK                         _______ _______ _______ _____ _____    ______ ____
ROOT
ATOM      1  C   UNL     1      -0.292  11.455  21.310  0.00  0.00    +0.000 C 
ATOM      2  C   UNL     1      -0.918  10.378  20.415  0.00  0.00    +0.000 C 
ATOM      3  C   UNL     1      -0.450  10.330  18.954  0.00  0.00    +0.000 C 
ATOM      4  C   UNL     1      -1.259  11.245  18.029  0.00  0.00    +0.000 C 
ATOM      5  C   UNL     1      -0.701  12.642  17.776  0.00  0.00    +0.000 C 
ATOM      6  C   UNL     1       0.669  12.968  18.362  0.00  0.00    +0.000 C 
ATOM      7  C   UNL     1       1.297  11.915  19.282  0.00  0.00    +0.000 C 
ATOM      8  C   UNL     1       0.969  12.137  20.766  0.00  0.00    +0.000 C 
ATOM      9  N   UNL     1       0.987  10.571  18.772  0.00  0.00    +0.000 NA
ENDROOT
BRANCH   1  12
ATOM     10  C   UNL     1      -1.987  12.134  22.963  0.00  0.00    +0.000 C 
ATOM     11  O   UNL     1      -1.927  11.062  23.556  0.00  0.00    +0.000 OA
ATOM     12  N   UNL     1      -1.290  12.409  21.793  0.00  0.00    +0.000 N 
ATOM     13  H   UNL     1      -1.195  13.378  21.519  0.00  0.00    +0.000 HD
BRANCH  10  16
ATOM     14  C   UNL     1      -2.671  15.463  24.585  0.00  0.00    +0.000 A 
ATOM     15  C   UNL     1      -2.031  14.281  24.183  0.00  0.00    +0.000 A 
ATOM     16  C   UNL     1      -2.748  13.261  23.559  0.00  0.00    +0.000 A 
ATOM     17  C   UNL     1      -4.129  13.359  23.464  0.00  0.00    +0.000 A 
ATOM     18  C   UNL     1      -4.803  14.490  23.947  0.00  0.00    +0.000 A 
ATOM     19  C   UNL     1      -4.078  15.569  24.507  0.00  0.00    +0.000 A 
BRANCH  14  21
ATOM     20  C   UNL     1      -1.228  16.260  26.294  0.00  0.00    +0.000 C 
ATOM     21  O   UNL     1      -1.925  16.509  25.069  0.00  0.00    +0.000 OA
ENDBRANCH  14  21
BRANCH  18  22
ATOM     22  O   UNL     1      -6.156  14.365  23.755  0.00  0.00    +0.000 OA
ATOM     23  C   UNL     1      -6.797  13.132  24.036  0.00  0.00    +0.000 C 
ENDBRANCH  18  22
BRANCH  19  24
ATOM     24  O   UNL     1      -4.829  16.628  24.939  0.00  0.00    +0.000 OA
ATOM     25  C   UNL     1      -5.117  17.725  24.088  0.00  0.00    +0.000 C 
ENDBRANCH  19  24
ENDBRANCH  10  16
ENDBRANCH   1  12
BRANCH   9  26
ATOM     26  C   UNL     1       1.779   9.495  19.402  0.00  0.00    +0.000 C 
BRANCH  26  27
ATOM     27  C   UNL     1       2.161   8.420  18.401  0.00  0.00    +0.000 C 
ATOM     28  O   UNL     1       2.263   8.703  17.204  0.00  0.00    +0.000 OA
ATOM     29  N   UNL     1       2.379   7.173  18.968  0.00  0.00    +0.000 N 
ATOM     30  H   UNL     1       2.036   7.072  19.916  0.00  0.00    +0.000 HD
BRANCH  29  31
ATOM     31  C   UNL     1       2.836   6.025  18.294  0.00  0.00    +0.000 A 
ATOM     32  C   UNL     1       2.000   4.944  17.997  0.00  0.00    +0.000 A 
ATOM     33  C   UNL     1       2.494   3.811  17.351  0.00  0.00    +0.000 A 
ATOM     34  C   UNL     1       3.829   3.747  16.977  0.00  0.00    +0.000 A 
ATOM     35  C   UNL     1       4.672   4.828  17.243  0.00  0.00    +0.000 A 
ATOM     36  C   UNL     1       4.176   5.964  17.893  0.00  0.00    +0.000 A 
ENDBRANCH  29  31
ENDBRANCH  26  27
ENDBRANCH   9  26
TORSDOF 8
ENDMDL
MODEL 9
REMARK VINA RESULT:      -7.0      3.488     10.870
REMARK  Name = 
REMARK  11 active torsions:
REMARK  status: ('A' for Active; 'I' for Inactive)
REMARK    1  A    between atoms: C_1  and  O_2
REMARK    2  A    between atoms: O_2  and  C_3
REMARK    3  A    between atoms: C_5  and  C_6
REMARK    4  A    between atoms: N_8  and  C_9
REMARK    5  A    between atoms: N_17  and  C_18
REMARK    6  A    between atoms: C_18  and  C_19
REMARK    7  A    between atoms: N_21  and  C_22
REMARK    8  A    between atoms: C_29  and  O_30
REMARK    9  A    between atoms: O_30  and  C_31
REMARK   10  A    between atoms: C_32  and  O_33
REMARK   11  A    between atoms: O_33  and  C_34
REMARK                            x       y       z     vdW  Elec       q    Type
REMARK                         _______ _______ _______ _____ _____    ______ ____
ROOT
ATOM      1  C   UNL     1       0.053  10.413  20.715  0.00  0.00    +0.000 C 
ATOM      2  C   UNL     1       0.937  11.471  21.387  0.00  0.00    +0.000 C 
ATOM      3  C   UNL     1       0.824  12.908  20.860  0.00  0.00    +0.000 C 
ATOM      4  C   UNL     1       1.764  13.197  19.685  0.00  0.00    +0.000 C 
ATOM      5  C   UNL     1       1.190  13.031  18.281  0.00  0.00    +0.000 C 
ATOM      6  C   UNL     1      -0.296  12.710  18.164  0.00  0.00    +0.000 C 
ATOM      7  C   UNL     1      -1.051  12.433  19.470  0.00  0.00    +0.000 C 
ATOM      8  C   UNL     1      -1.090  10.943  19.841  0.00  0.00    +0.000 C 
ATOM      9  N   UNL     1      -0.544  13.323  20.525  0.00  0.00    +0.000 NA
ENDROOT
BRANCH   1  12
ATOM     10  C   UNL     1       1.435   8.376  20.804  0.00  0.00    +0.000 C 
ATOM     11  O   UNL     1       1.453   8.367  22.030  0.00  0.00    +0.000 OA
ATOM     12  N   UNL     1       0.848   9.382  20.047  0.00  0.00    +0.000 N 
ATOM     13  H   UNL     1       0.654   9.187  19.074  0.00  0.00    +0.000 HD
BRANCH  10  16
ATOM     14  C   UNL     1       3.263   6.407  18.165  0.00  0.00    +0.000 A 
ATOM     15  C   UNL     1       2.572   7.436  18.823  0.00  0.00    +0.000 A 
ATOM     16  C   UNL     1       1.960   7.207  20.054  0.00  0.00    +0.000 A 
ATOM     17  C   UNL     1       1.912   5.916  20.561  0.00  0.00    +0.000 A 
ATOM     18  C   UNL     1       2.513   4.852  19.872  0.00  0.00    +0.000 A 
ATOM     19  C   UNL     1       3.210   5.086  18.663  0.00  0.00    +0.000 A 
BRANCH  14  21
ATOM     20  C   UNL     1       5.372   6.938  17.211  0.00  0.00    +0.000 C 
ATOM     21  O   UNL     1       3.975   6.688  17.025  0.00  0.00    +0.000 OA
ENDBRANCH  14  21
BRANCH  18  22
ATOM     22  O   UNL     1       2.335   3.674  20.553  0.00  0.00    +0.000 OA
ATOM     23  C   UNL     1       1.054   3.063  20.583  0.00  0.00    +0.000 C 
ENDBRANCH  18  22
BRANCH  19  24
ATOM     24  O   UNL     1       3.766   3.983  18.076  0.00  0.00    +0.000 OA
ATOM     25  C   UNL     1       3.054   3.218  17.118  0.00  0.00    +0.000 C 
ENDBRANCH  19  24
ENDBRANCH  10  16
ENDBRANCH   1  12
BRANCH   9  26
ATOM     26  C   UNL     1      -1.389  13.353  21.737  0.00  0.00    +0.000 C 
BRANCH  26  27
ATOM     27  C   UNL     1      -2.829  13.701  21.408  0.00  0.00    +0.000 C 
ATOM     28  O   UNL     1      -3.089  14.759  20.827  0.00  0.00    +0.000 OA
ATOM     29  N   UNL     1      -3.746  12.738  21.802  0.00  0.00    +0.000 N 
ATOM     30  H   UNL     1      -3.387  12.052  22.455  0.00  0.00    +0.000 HD
BRANCH  29  31
ATOM     31  C   UNL     1      -5.129  12.753  21.539  0.00  0.00    +0.000 A 
ATOM     32  C   UNL     1      -6.076  13.107  22.505  0.00  0.00    +0.000 A 
ATOM     33  C   UNL     1      -7.440  13.086  22.217  0.00  0.00    +0.000 A 
ATOM     34  C   UNL     1      -7.879  12.725  20.951  0.00  0.00    +0.000 A 
ATOM     35  C   UNL     1      -6.947  12.394  19.965  0.00  0.00    +0.000 A 
ATOM     36  C   UNL     1      -5.578  12.414  20.257  0.00  0.00    +0.000 A 
ENDBRANCH  29  31
ENDBRANCH  26  27
ENDBRANCH   9  26
TORSDOF 8
ENDMDL
