MODEL 1
REMARK VINA RESULT:      -8.7      0.000      0.000
REMARK  Name = 
REMARK  4 active torsions:
REMARK  status: ('A' for Active; 'I' for Inactive)
REMARK    1  A    between atoms: C_2  and  C_15
REMARK    2  A    between atoms: N_3  and  C_4
REMARK    3  A    between atoms: C_15  and  C_16
REMARK    4  A    between atoms: C_15  and  C_22
REMARK                            x       y       z     vdW  Elec       q    Type
REMARK                         _______ _______ _______ _____ _____    ______ ____
ROOT
ATOM      1  O   UNL     1       2.355   7.709  19.993  0.00  0.00    +0.000 OA
ATOM      2  C   UNL     1       2.404   7.531  18.777  0.00  0.00    +0.000 C 
ATOM      3  N   UNL     1       2.017   8.478  17.833  0.00  0.00    +0.000 N 
ATOM      4  H   UNL     1       1.947   8.174  16.868  0.00  0.00    +0.000 HD
ENDROOT
BRANCH   3   5
ATOM      5  C   UNL     1       1.541   9.773  18.125  0.00  0.00    +0.000 A 
ATOM      6  C   UNL     1       2.293  10.930  18.117  0.00  0.00    +0.000 A 
ATOM      7  N   UNL     1       1.813  12.147  18.460  0.00  0.00    +0.000 NA
ATOM      8  C   UNL     1       0.516  12.208  18.835  0.00  0.00    +0.000 A 
ATOM      9  N   UNL     1       0.026  13.477  19.299  0.00  0.00    +0.000 N 
ATOM     10  C   UNL     1       0.755  14.651  19.367  0.00  0.00    +0.000 A 
ATOM     11  C   UNL     1      -0.067  15.608  19.907  0.00  0.00    +0.000 A 
ATOM     12  C   UNL     1      -1.279  14.940  20.138  0.00  0.00    +0.000 A 
ATOM     13  N   UNL     1      -1.244  13.660  19.767  0.00  0.00    +0.000 NA
ATOM     14  N   UNL     1      -0.321  11.145  18.831  0.00  0.00    +0.000 NA
ATOM     15  C   UNL     1       0.214   9.959  18.470  0.00  0.00    +0.000 A 
ENDBRANCH   3   5
BRANCH   2  16
ATOM     16  C   UNL     1       2.862   6.198  18.152  0.00  0.00    +0.000 C 
BRANCH  16  17
ATOM     17  C   UNL     1       4.383   6.104  18.115  0.00  0.00    +0.000 A 
ATOM     18  C   UNL     1       5.118   5.441  19.110  0.00  0.00    +0.000 A 
ATOM     19  C   UNL     1       6.513   5.384  19.042  0.00  0.00    +0.000 A 
ATOM     20  C   UNL     1       7.191   6.002  17.993  0.00  0.00    +0.000 A 
ATOM     21  C   UNL     1       6.478   6.691  17.017  0.00  0.00    +0.000 A 
ATOM     22  C   UNL     1       5.086   6.747  17.079  0.00  0.00    +0.000 A 
ENDBRANCH  16  17
BRANCH  16  23
ATOM     23  C   UNL     1       2.146   4.973  18.730  0.00  0.00    +0.000 A 
ATOM     24  C   UNL     1       1.893   3.874  17.889  0.00  0.00    +0.000 A 
ATOM     25  C   UNL     1       1.213   2.749  18.362  0.00  0.00    +0.000 A 
ATOM     26  C   UNL     1       0.782   2.701  19.685  0.00  0.00    +0.000 A 
ATOM     27  C   UNL     1       1.043   3.769  20.538  0.00  0.00    +0.000 A 
ATOM     28  C   UNL     1       1.726   4.894  20.068  0.00  0.00    +0.000 A 
ENDBRANCH  16  23
ENDBRANCH   2  16
TORSDOF 4
ENDMDL
MODEL 2
REMARK VINA RESULT:      -8.6      2.052      4.333
REMARK  Name = 
REMARK  4 active torsions:
REMARK  status: ('A' for Active; 'I' for Inactive)
REMARK    1  A    between atoms: C_2  and  C_15
REMARK    2  A    between atoms: N_3  and  C_4
REMARK    3  A    between atoms: C_15  and  C_16
REMARK    4  A    between atoms: C_15  and  C_22
REMARK                            x       y       z     vdW  Elec       q    Type
REMARK                         _______ _______ _______ _____ _____    ______ ____
ROOT
ATOM      1  O   UNL     1       2.166   7.479  18.398  0.00  0.00    +0.000 OA
ATOM      2  C   UNL     1       2.515   6.954  19.453  0.00  0.00    +0.000 C 
ATOM      3  N   UNL     1       2.191   7.445  20.715  0.00  0.00    +0.000 N 
ATOM      4  H   UNL     1       2.660   7.031  21.512  0.00  0.00    +0.000 HD
ENDROOT
BRANCH   3   5
ATOM      5  C   UNL     1       1.403   8.587  20.966  0.00  0.00    +0.000 A 
ATOM      6  C   UNL     1       0.807   9.383  20.008  0.00  0.00    +0.000 A 
ATOM      7  N   UNL     1       0.106  10.505  20.287  0.00  0.00    +0.000 NA
ATOM      8  C   UNL     1      -0.000  10.852  21.590  0.00  0.00    +0.000 A 
ATOM      9  N   UNL     1      -0.656  12.096  21.887  0.00  0.00    +0.000 N 
ATOM     10  C   UNL     1      -1.216  12.958  20.961  0.00  0.00    +0.000 A 
ATOM     11  C   UNL     1      -1.690  14.044  21.652  0.00  0.00    +0.000 A 
ATOM     12  C   UNL     1      -1.384  13.767  22.994  0.00  0.00    +0.000 A 
ATOM     13  N   UNL     1      -0.772  12.593  23.154  0.00  0.00    +0.000 NA
ATOM     14  N   UNL     1       0.502  10.117  22.608  0.00  0.00    +0.000 NA
ATOM     15  C   UNL     1       1.184   9.002  22.267  0.00  0.00    +0.000 A 
ENDBRANCH   3   5
BRANCH   2  16
ATOM     16  C   UNL     1       3.410   5.699  19.498  0.00  0.00    +0.000 C 
BRANCH  16  17
ATOM     17  C   UNL     1       2.601   4.439  19.213  0.00  0.00    +0.000 A 
ATOM     18  C   UNL     1       2.868   3.609  18.113  0.00  0.00    +0.000 A 
ATOM     19  C   UNL     1       2.098   2.466  17.883  0.00  0.00    +0.000 A 
ATOM     20  C   UNL     1       1.043   2.147  18.736  0.00  0.00    +0.000 A 
ATOM     21  C   UNL     1       0.745   2.977  19.812  0.00  0.00    +0.000 A 
ATOM     22  C   UNL     1       1.514   4.117  20.047  0.00  0.00    +0.000 A 
ENDBRANCH  16  17
BRANCH  16  23
ATOM     23  C   UNL     1       4.704   5.841  18.692  0.00  0.00    +0.000 A 
ATOM     24  C   UNL     1       5.897   5.313  19.222  0.00  0.00    +0.000 A 
ATOM     25  C   UNL     1       7.108   5.449  18.539  0.00  0.00    +0.000 A 
ATOM     26  C   UNL     1       7.146   6.106  17.312  0.00  0.00    +0.000 A 
ATOM     27  C   UNL     1       5.974   6.614  16.762  0.00  0.00    +0.000 A 
ATOM     28  C   UNL     1       4.760   6.477  17.442  0.00  0.00    +0.000 A 
ENDBRANCH  16  23
ENDBRANCH   2  16
TORSDOF 4
ENDMDL
MODEL 3
REMARK VINA RESULT:      -8.5      0.503      1.504
REMARK  Name = 
REMARK  4 active torsions:
REMARK  status: ('A' for Active; 'I' for Inactive)
REMARK    1  A    between atoms: C_2  and  C_15
REMARK    2  A    between atoms: N_3  and  C_4
REMARK    3  A    between atoms: C_15  and  C_16
REMARK    4  A    between atoms: C_15  and  C_22
REMARK                            x       y       z     vdW  Elec       q    Type
REMARK                         _______ _______ _______ _____ _____    ______ ____
ROOT
ATOM      1  O   UNL     1       2.291   7.574  20.099  0.00  0.00    +0.000 OA
ATOM      2  C   UNL     1       2.364   7.494  18.875  0.00  0.00    +0.000 C 
ATOM      3  N   UNL     1       2.021   8.524  18.002  0.00  0.00    +0.000 N 
ATOM      4  H   UNL     1       1.966   8.301  17.015  0.00  0.00    +0.000 HD
ENDROOT
BRANCH   3   5
ATOM      5  C   UNL     1       1.569   9.802  18.390  0.00  0.00    +0.000 A 
ATOM      6  C   UNL     1       0.391  10.073  19.058  0.00  0.00    +0.000 A 
ATOM      7  N   UNL     1      -0.037  11.320  19.361  0.00  0.00    +0.000 NA
ATOM      8  C   UNL     1       0.751  12.347  18.971  0.00  0.00    +0.000 A 
ATOM      9  N   UNL     1       0.254  13.677  19.199  0.00  0.00    +0.000 N 
ATOM     10  C   UNL     1      -0.945  14.001  19.809  0.00  0.00    +0.000 A 
ATOM     11  C   UNL     1      -1.057  15.368  19.782  0.00  0.00    +0.000 A 
ATOM     12  C   UNL     1       0.114  15.804  19.143  0.00  0.00    +0.000 A 
ATOM     13  N   UNL     1       0.920  14.800  18.795  0.00  0.00    +0.000 NA
ATOM     14  N   UNL     1       1.945  12.191  18.357  0.00  0.00    +0.000 NA
ATOM     15  C   UNL     1       2.323  10.922  18.089  0.00  0.00    +0.000 A 
ENDBRANCH   3   5
BRANCH   2  16
ATOM     16  C   UNL     1       2.805   6.205  18.152  0.00  0.00    +0.000 C 
BRANCH  16  17
ATOM     17  C   UNL     1       4.323   6.129  18.044  0.00  0.00    +0.000 A 
ATOM     18  C   UNL     1       5.021   6.617  16.929  0.00  0.00    +0.000 A 
ATOM     19  C   UNL     1       6.413   6.522  16.865  0.00  0.00    +0.000 A 
ATOM     20  C   UNL     1       7.124   5.924  17.904  0.00  0.00    +0.000 A 
ATOM     21  C   UNL     1       6.445   5.406  19.002  0.00  0.00    +0.000 A 
ATOM     22  C   UNL     1       5.054   5.502  19.070  0.00  0.00    +0.000 A 
ENDBRANCH  16  17
BRANCH  16  23
ATOM     23  C   UNL     1       2.124   4.941  18.687  0.00  0.00    +0.000 A 
ATOM     24  C   UNL     1       2.002   3.824  17.840  0.00  0.00    +0.000 A 
ATOM     25  C   UNL     1       1.359   2.662  18.272  0.00  0.00    +0.000 A 
ATOM     26  C   UNL     1       0.834   2.593  19.559  0.00  0.00    +0.000 A 
ATOM     27  C   UNL     1       0.965   3.679  20.419  0.00  0.00    +0.000 A 
ATOM     28  C   UNL     1       1.611   4.843  19.990  0.00  0.00    +0.000 A 
ENDBRANCH  16  23
ENDBRANCH   2  16
TORSDOF 4
ENDMDL
MODEL 4
REMARK VINA RESULT:      -8.5      0.616      1.101
REMARK  Name = 
REMARK  4 active torsions:
REMARK  status: ('A' for Active; 'I' for Inactive)
REMARK    1  A    between atoms: C_2  and  C_15
REMARK    2  A    between atoms: N_3  and  C_4
REMARK    3  A    between atoms: C_15  and  C_16
REMARK    4  A    between atoms: C_15  and  C_22
REMARK                            x       y       z     vdW  Elec       q    Type
REMARK                         _______ _______ _______ _____ _____    ______ ____
ROOT
ATOM      1  O   UNL     1       2.504   7.379  19.799  0.00  0.00    +0.000 OA
ATOM      2  C   UNL     1       2.653   7.317  18.580  0.00  0.00    +0.000 C 
ATOM      3  N   UNL     1       2.240   8.305  17.691  0.00  0.00    +0.000 N 
ATOM      4  H   UNL     1       2.265   8.084  16.702  0.00  0.00    +0.000 HD
ENDROOT
BRANCH   3   5
ATOM      5  C   UNL     1       1.620   9.519  18.053  0.00  0.00    +0.000 A 
ATOM      6  C   UNL     1       2.252  10.739  18.186  0.00  0.00    +0.000 A 
ATOM      7  N   UNL     1       1.633  11.871  18.592  0.00  0.00    +0.000 NA
ATOM      8  C   UNL     1       0.317  11.776  18.885  0.00  0.00    +0.000 A 
ATOM      9  N   UNL     1      -0.324  12.949  19.414  0.00  0.00    +0.000 N 
ATOM     10  C   UNL     1       0.278  14.177  19.623  0.00  0.00    +0.000 A 
ATOM     11  C   UNL     1      -0.665  15.002  20.182  0.00  0.00    +0.000 A 
ATOM     12  C   UNL     1      -1.815  14.204  20.280  0.00  0.00    +0.000 A 
ATOM     13  N   UNL     1      -1.631  12.969  19.812  0.00  0.00    +0.000 NA
ATOM     14  N   UNL     1      -0.408  10.643  18.742  0.00  0.00    +0.000 NA
ATOM     15  C   UNL     1       0.264   9.548  18.324  0.00  0.00    +0.000 A 
ENDBRANCH   3   5
BRANCH   2  16
ATOM     16  C   UNL     1       3.281   6.093  17.883  0.00  0.00    +0.000 C 
BRANCH  16  17
ATOM     17  C   UNL     1       4.795   6.078  18.061  0.00  0.00    +0.000 A 
ATOM     18  C   UNL     1       5.419   5.393  19.115  0.00  0.00    +0.000 A 
ATOM     19  C   UNL     1       6.810   5.410  19.247  0.00  0.00    +0.000 A 
ATOM     20  C   UNL     1       7.592   6.123  18.341  0.00  0.00    +0.000 A 
ATOM     21  C   UNL     1       6.987   6.833  17.309  0.00  0.00    +0.000 A 
ATOM     22  C   UNL     1       5.598   6.815  17.173  0.00  0.00    +0.000 A 
ENDBRANCH  16  17
BRANCH  16  23
ATOM     23  C   UNL     1       2.572   4.774  18.206  0.00  0.00    +0.000 A 
ATOM     24  C   UNL     1       1.708   4.720  19.316  0.00  0.00    +0.000 A 
ATOM     25  C   UNL     1       1.067   3.531  19.669  0.00  0.00    +0.000 A 
ATOM     26  C   UNL     1       1.270   2.379  18.916  0.00  0.00    +0.000 A 
ATOM     27  C   UNL     1       2.103   2.418  17.801  0.00  0.00    +0.000 A 
ATOM     28  C   UNL     1       2.744   3.607  17.444  0.00  0.00    +0.000 A 
ENDBRANCH  16  23
ENDBRANCH   2  16
TORSDOF 4
ENDMDL
MODEL 5
REMARK VINA RESULT:      -8.5      0.501      1.508
REMARK  Name = 
REMARK  4 active torsions:
REMARK  status: ('A' for Active; 'I' for Inactive)
REMARK    1  A    between atoms: C_2  and  C_15
REMARK    2  A    between atoms: N_3  and  C_4
REMARK    3  A    between atoms: C_15  and  C_16
REMARK    4  A    between atoms: C_15  and  C_22
REMARK                            x       y       z     vdW  Elec       q    Type
REMARK                         _______ _______ _______ _____ _____    ______ ____
ROOT
ATOM      1  O   UNL     1       2.404   7.606  20.074  0.00  0.00    +0.000 OA
ATOM      2  C   UNL     1       2.402   7.499  18.849  0.00  0.00    +0.000 C 
ATOM      3  N   UNL     1       1.996   8.504  17.977  0.00  0.00    +0.000 N 
ATOM      4  H   UNL     1       1.882   8.258  17.000  0.00  0.00    +0.000 HD
ENDROOT
BRANCH   3   5
ATOM      5  C   UNL     1       1.554   9.788  18.362  0.00  0.00    +0.000 A 
ATOM      6  C   UNL     1       0.357  10.075  18.987  0.00  0.00    +0.000 A 
ATOM      7  N   UNL     1      -0.057  11.327  19.288  0.00  0.00    +0.000 NA
ATOM      8  C   UNL     1       0.766  12.342  18.943  0.00  0.00    +0.000 A 
ATOM      9  N   UNL     1       0.288  13.679  19.167  0.00  0.00    +0.000 N 
ATOM     10  C   UNL     1      -0.927  14.021  19.733  0.00  0.00    +0.000 A 
ATOM     11  C   UNL     1      -1.010  15.390  19.719  0.00  0.00    +0.000 A 
ATOM     12  C   UNL     1       0.193  15.809  19.132  0.00  0.00    +0.000 A 
ATOM     13  N   UNL     1       0.991  14.792  18.803  0.00  0.00    +0.000 NA
ATOM     14  N   UNL     1       1.980  12.168  18.373  0.00  0.00    +0.000 NA
ATOM     15  C   UNL     1       2.342  10.894  18.105  0.00  0.00    +0.000 A 
ENDBRANCH   3   5
BRANCH   2  16
ATOM     16  C   UNL     1       2.812   6.197  18.131  0.00  0.00    +0.000 C 
BRANCH  16  17
ATOM     17  C   UNL     1       4.328   6.079  18.032  0.00  0.00    +0.000 A 
ATOM     18  C   UNL     1       5.097   5.449  19.022  0.00  0.00    +0.000 A 
ATOM     19  C   UNL     1       6.487   5.368  18.896  0.00  0.00    +0.000 A 
ATOM     20  C   UNL     1       7.126   5.930  17.793  0.00  0.00    +0.000 A 
ATOM     21  C   UNL     1       6.380   6.586  16.819  0.00  0.00    +0.000 A 
ATOM     22  C   UNL     1       4.992   6.665  16.939  0.00  0.00    +0.000 A 
ENDBRANCH  16  17
BRANCH  16  23
ATOM     23  C   UNL     1       2.093   4.953  18.662  0.00  0.00    +0.000 A 
ATOM     24  C   UNL     1       1.689   4.925  20.010  0.00  0.00    +0.000 A 
ATOM     25  C   UNL     1       1.061   3.799  20.548  0.00  0.00    +0.000 A 
ATOM     26  C   UNL     1       0.819   2.686  19.748  0.00  0.00    +0.000 A 
ATOM     27  C   UNL     1       1.191   2.704  18.407  0.00  0.00    +0.000 A 
ATOM     28  C   UNL     1       1.817   3.831  17.865  0.00  0.00    +0.000 A 
ENDBRANCH  16  23
ENDBRANCH   2  16
TORSDOF 4
ENDMDL
MODEL 6
REMARK VINA RESULT:      -8.5      2.147      4.202
REMARK  Name = 
REMARK  4 active torsions:
REMARK  status: ('A' for Active; 'I' for Inactive)
REMARK    1  A    between atoms: C_2  and  C_15
REMARK    2  A    between atoms: N_3  and  C_4
REMARK    3  A    between atoms: C_15  and  C_16
REMARK    4  A    between atoms: C_15  and  C_22
REMARK                            x       y       z     vdW  Elec       q    Type
REMARK                         _______ _______ _______ _____ _____    ______ ____
ROOT
ATOM      1  O   UNL     1       2.034   7.616  18.089  0.00  0.00    +0.000 OA
ATOM      2  C   UNL     1       2.427   7.063  19.114  0.00  0.00    +0.000 C 
ATOM      3  N   UNL     1       2.162   7.523  20.401  0.00  0.00    +0.000 N 
ATOM      4  H   UNL     1       2.664   7.086  21.166  0.00  0.00    +0.000 HD
ENDROOT
BRANCH   3   5
ATOM      5  C   UNL     1       1.394   8.663  20.717  0.00  0.00    +0.000 A 
ATOM      6  C   UNL     1       0.787   9.504  19.805  0.00  0.00    +0.000 A 
ATOM      7  N   UNL     1       0.106  10.622  20.145  0.00  0.00    +0.000 NA
ATOM      8  C   UNL     1       0.034  10.917  21.462  0.00  0.00    +0.000 A 
ATOM      9  N   UNL     1      -0.599  12.156  21.824  0.00  0.00    +0.000 N 
ATOM     10  C   UNL     1      -1.169  13.061  20.946  0.00  0.00    +0.000 A 
ATOM     11  C   UNL     1      -1.614  14.123  21.691  0.00  0.00    +0.000 A 
ATOM     12  C   UNL     1      -1.282  13.789  23.013  0.00  0.00    +0.000 A 
ATOM     13  N   UNL     1      -0.680  12.603  23.112  0.00  0.00    +0.000 NA
ATOM     14  N   UNL     1       0.550  10.136  22.439  0.00  0.00    +0.000 NA
ATOM     15  C   UNL     1       1.210   9.028  22.038  0.00  0.00    +0.000 A 
ENDBRANCH   3   5
BRANCH   2  16
ATOM     16  C   UNL     1       3.314   5.801  19.088  0.00  0.00    +0.000 C 
BRANCH  16  17
ATOM     17  C   UNL     1       2.537   4.575  19.555  0.00  0.00    +0.000 A 
ATOM     18  C   UNL     1       1.484   4.026  18.807  0.00  0.00    +0.000 A 
ATOM     19  C   UNL     1       0.792   2.905  19.274  0.00  0.00    +0.000 A 
ATOM     20  C   UNL     1       1.130   2.331  20.498  0.00  0.00    +0.000 A 
ATOM     21  C   UNL     1       2.150   2.884  21.266  0.00  0.00    +0.000 A 
ATOM     22  C   UNL     1       2.845   4.001  20.801  0.00  0.00    +0.000 A 
ENDBRANCH  16  17
BRANCH  16  23
ATOM     23  C   UNL     1       4.088   5.624  17.779  0.00  0.00    +0.000 A 
ATOM     24  C   UNL     1       4.551   6.768  17.103  0.00  0.00    +0.000 A 
ATOM     25  C   UNL     1       5.231   6.658  15.888  0.00  0.00    +0.000 A 
ATOM     26  C   UNL     1       5.468   5.404  15.332  0.00  0.00    +0.000 A 
ATOM     27  C   UNL     1       5.037   4.260  15.997  0.00  0.00    +0.000 A 
ATOM     28  C   UNL     1       4.358   4.367  17.215  0.00  0.00    +0.000 A 
ENDBRANCH  16  23
ENDBRANCH   2  16
TORSDOF 4
ENDMDL
MODEL 7
REMARK VINA RESULT:      -8.4      2.034      4.198
REMARK  Name = 
REMARK  4 active torsions:
REMARK  status: ('A' for Active; 'I' for Inactive)
REMARK    1  A    between atoms: C_2  and  C_15
REMARK    2  A    between atoms: N_3  and  C_4
REMARK    3  A    between atoms: C_15  and  C_16
REMARK    4  A    between atoms: C_15  and  C_22
REMARK                            x       y       z     vdW  Elec       q    Type
REMARK                         _______ _______ _______ _____ _____    ______ ____
ROOT
ATOM      1  O   UNL     1       2.172   7.558  18.329  0.00  0.00    +0.000 OA
ATOM      2  C   UNL     1       2.493   7.000  19.377  0.00  0.00    +0.000 C 
ATOM      3  N   UNL     1       2.157   7.466  20.645  0.00  0.00    +0.000 N 
ATOM      4  H   UNL     1       2.604   7.023  21.440  0.00  0.00    +0.000 HD
ENDROOT
BRANCH   3   5
ATOM      5  C   UNL     1       1.387   8.618  20.912  0.00  0.00    +0.000 A 
ATOM      6  C   UNL     1       0.819   9.446  19.964  0.00  0.00    +0.000 A 
ATOM      7  N   UNL     1       0.136  10.575  20.259  0.00  0.00    +0.000 NA
ATOM      8  C   UNL     1       0.020  10.896  21.567  0.00  0.00    +0.000 A 
ATOM      9  N   UNL     1      -0.615  12.146  21.883  0.00  0.00    +0.000 N 
ATOM     10  C   UNL     1      -1.146  13.038  20.969  0.00  0.00    +0.000 A 
ATOM     11  C   UNL     1      -1.608  14.118  21.678  0.00  0.00    +0.000 A 
ATOM     12  C   UNL     1      -1.325  13.806  23.017  0.00  0.00    +0.000 A 
ATOM     13  N   UNL     1      -0.737  12.618  23.159  0.00  0.00    +0.000 NA
ATOM     14  N   UNL     1       0.495  10.129  22.576  0.00  0.00    +0.000 NA
ATOM     15  C   UNL     1       1.160   9.009  22.219  0.00  0.00    +0.000 A 
ENDBRANCH   3   5
BRANCH   2  16
ATOM     16  C   UNL     1       3.361   5.726  19.406  0.00  0.00    +0.000 C 
BRANCH  16  17
ATOM     17  C   UNL     1       2.513   4.479  19.182  0.00  0.00    +0.000 A 
ATOM     18  C   UNL     1       1.405   4.172  19.987  0.00  0.00    +0.000 A 
ATOM     19  C   UNL     1       0.657   3.015  19.752  0.00  0.00    +0.000 A 
ATOM     20  C   UNL     1       1.016   2.143  18.725  0.00  0.00    +0.000 A 
ATOM     21  C   UNL     1       2.131   2.418  17.940  0.00  0.00    +0.000 A 
ATOM     22  C   UNL     1       2.877   3.574  18.169  0.00  0.00    +0.000 A 
ENDBRANCH  16  17
BRANCH  16  23
ATOM     23  C   UNL     1       4.620   5.824  18.540  0.00  0.00    +0.000 A 
ATOM     24  C   UNL     1       4.502   6.293  17.219  0.00  0.00    +0.000 A 
ATOM     25  C   UNL     1       5.617   6.367  16.381  0.00  0.00    +0.000 A 
ATOM     26  C   UNL     1       6.869   5.981  16.851  0.00  0.00    +0.000 A 
ATOM     27  C   UNL     1       7.010   5.536  18.161  0.00  0.00    +0.000 A 
ATOM     28  C   UNL     1       5.896   5.464  19.003  0.00  0.00    +0.000 A 
ENDBRANCH  16  23
ENDBRANCH   2  16
TORSDOF 4
ENDMDL
MODEL 8
REMARK VINA RESULT:      -8.4      0.639      1.256
REMARK  Name = 
REMARK  4 active torsions:
REMARK  status: ('A' for Active; 'I' for Inactive)
REMARK    1  A    between atoms: C_2  and  C_15
REMARK    2  A    between atoms: N_3  and  C_4
REMARK    3  A    between atoms: C_15  and  C_16
REMARK    4  A    between atoms: C_15  and  C_22
REMARK                            x       y       z     vdW  Elec       q    Type
REMARK                         _______ _______ _______ _____ _____    ______ ____
ROOT
ATOM      1  O   UNL     1       2.405   7.228  20.053  0.00  0.00    +0.000 OA
ATOM      2  C   UNL     1       2.542   7.247  18.832  0.00  0.00    +0.000 C 
ATOM      3  N   UNL     1       2.172   8.316  18.020  0.00  0.00    +0.000 N 
ATOM      4  H   UNL     1       2.180   8.166  17.018  0.00  0.00    +0.000 HD
ENDROOT
BRANCH   3   5
ATOM      5  C   UNL     1       1.614   9.529  18.475  0.00  0.00    +0.000 A 
ATOM      6  C   UNL     1       0.497   9.653  19.278  0.00  0.00    +0.000 A 
ATOM      7  N   UNL     1      -0.041  10.837  19.646  0.00  0.00    +0.000 NA
ATOM      8  C   UNL     1       0.564  11.954  19.183  0.00  0.00    +0.000 A 
ATOM      9  N   UNL     1      -0.062  13.212  19.485  0.00  0.00    +0.000 N 
ATOM     10  C   UNL     1      -1.213  13.386  20.233  0.00  0.00    +0.000 A 
ATOM     11  C   UNL     1      -1.494  14.729  20.239  0.00  0.00    +0.000 A 
ATOM     12  C   UNL     1      -0.467  15.306  19.476  0.00  0.00    +0.000 A 
ATOM     13  N   UNL     1       0.409  14.408  19.024  0.00  0.00    +0.000 NA
ATOM     14  N   UNL     1       1.689  11.946  18.433  0.00  0.00    +0.000 NA
ATOM     15  C   UNL     1       2.186  10.733  18.106  0.00  0.00    +0.000 A 
ENDBRANCH   3   5
BRANCH   2  16
ATOM     16  C   UNL     1       3.105   6.048  18.042  0.00  0.00    +0.000 C 
BRANCH  16  17
ATOM     17  C   UNL     1       4.629   6.030  18.085  0.00  0.00    +0.000 A 
ATOM     18  C   UNL     1       5.342   5.409  19.122  0.00  0.00    +0.000 A 
ATOM     19  C   UNL     1       6.739   5.422  19.128  0.00  0.00    +0.000 A 
ATOM     20  C   UNL     1       7.440   6.067  18.112  0.00  0.00    +0.000 A 
ATOM     21  C   UNL     1       6.747   6.715  17.094  0.00  0.00    +0.000 A 
ATOM     22  C   UNL     1       5.352   6.701  17.083  0.00  0.00    +0.000 A 
ENDBRANCH  16  17
BRANCH  16  23
ATOM     23  C   UNL     1       2.426   4.718  18.382  0.00  0.00    +0.000 A 
ATOM     24  C   UNL     1       2.707   3.589  17.591  0.00  0.00    +0.000 A 
ATOM     25  C   UNL     1       2.085   2.363  17.842  0.00  0.00    +0.000 A 
ATOM     26  C   UNL     1       1.180   2.243  18.893  0.00  0.00    +0.000 A 
ATOM     27  C   UNL     1       0.907   3.343  19.700  0.00  0.00    +0.000 A 
ATOM     28  C   UNL     1       1.530   4.570  19.453  0.00  0.00    +0.000 A 
ENDBRANCH  16  23
ENDBRANCH   2  16
TORSDOF 4
ENDMDL
MODEL 9
REMARK VINA RESULT:      -8.4      2.134      4.347
REMARK  Name = 
REMARK  4 active torsions:
REMARK  status: ('A' for Active; 'I' for Inactive)
REMARK    1  A    between atoms: C_2  and  C_15
REMARK    2  A    between atoms: N_3  and  C_4
REMARK    3  A    between atoms: C_15  and  C_16
REMARK    4  A    between atoms: C_15  and  C_22
REMARK                            x       y       z     vdW  Elec       q    Type
REMARK                         _______ _______ _______ _____ _____    ______ ____
ROOT
ATOM      1  O   UNL     1       2.172   7.606  18.473  0.00  0.00    +0.000 OA
ATOM      2  C   UNL     1       2.485   7.018  19.507  0.00  0.00    +0.000 C 
ATOM      3  N   UNL     1       2.129   7.442  20.785  0.00  0.00    +0.000 N 
ATOM      4  H   UNL     1       2.570   6.978  21.571  0.00  0.00    +0.000 HD
ENDROOT
BRANCH   3   5
ATOM      5  C   UNL     1       1.348   8.580  21.078  0.00  0.00    +0.000 A 
ATOM      6  C   UNL     1       1.189   9.150  22.325  0.00  0.00    +0.000 A 
ATOM      7  N   UNL     1       0.384  10.207  22.576  0.00  0.00    +0.000 NA
ATOM      8  C   UNL     1      -0.300  10.717  21.527  0.00  0.00    +0.000 A 
ATOM      9  N   UNL     1      -1.234  11.773  21.804  0.00  0.00    +0.000 N 
ATOM     10  C   UNL     1      -1.474  12.338  23.045  0.00  0.00    +0.000 A 
ATOM     11  C   UNL     1      -2.465  13.272  22.880  0.00  0.00    +0.000 A 
ATOM     12  C   UNL     1      -2.774  13.219  21.512  0.00  0.00    +0.000 A 
ATOM     13  N   UNL     1      -2.034  12.331  20.848  0.00  0.00    +0.000 NA
ATOM     14  N   UNL     1      -0.178  10.266  20.258  0.00  0.00    +0.000 NA
ATOM     15  C   UNL     1       0.647   9.214  20.068  0.00  0.00    +0.000 A 
ENDBRANCH   3   5
BRANCH   2  16
ATOM     16  C   UNL     1       3.362   5.750  19.508  0.00  0.00    +0.000 C 
BRANCH  16  17
ATOM     17  C   UNL     1       2.526   4.505  19.235  0.00  0.00    +0.000 A 
ATOM     18  C   UNL     1       1.447   4.132  20.051  0.00  0.00    +0.000 A 
ATOM     19  C   UNL     1       0.710   2.979  19.770  0.00  0.00    +0.000 A 
ATOM     20  C   UNL     1       1.051   2.175  18.684  0.00  0.00    +0.000 A 
ATOM     21  C   UNL     1       2.137   2.514  17.884  0.00  0.00    +0.000 A 
ATOM     22  C   UNL     1       2.873   3.667  18.160  0.00  0.00    +0.000 A 
ENDBRANCH  16  17
BRANCH  16  23
ATOM     23  C   UNL     1       4.631   5.883  18.661  0.00  0.00    +0.000 A 
ATOM     24  C   UNL     1       5.851   5.416  19.184  0.00  0.00    +0.000 A 
ATOM     25  C   UNL     1       7.039   5.547  18.462  0.00  0.00    +0.000 A 
ATOM     26  C   UNL     1       7.028   6.140  17.203  0.00  0.00    +0.000 A 
ATOM     27  C   UNL     1       5.828   6.589  16.659  0.00  0.00    +0.000 A 
ATOM     28  C   UNL     1       4.636   6.455  17.378  0.00  0.00    +0.000 A 
ENDBRANCH  16  23
ENDBRANCH   2  16
TORSDOF 4
ENDMDL
