MODEL 1
REMARK VINA RESULT:      -7.4      0.000      0.000
REMARK  Name = 
REMARK  9 active torsions:
REMARK  status: ('A' for Active; 'I' for Inactive)
REMARK    1  A    between atoms: C_1  and  C_2
REMARK    2  A    between atoms: C_6  and  N_7
REMARK    3  A    between atoms: C_8  and  C_10
REMARK    4  A    between atoms: C_10  and  S_11
REMARK    5  A    between atoms: S_11  and  C_12
REMARK    6  A    between atoms: C_12  and  C_13
REMARK    7  A    between atoms: N_15  and  C_16
REMARK    8  A    between atoms: N_15  and  C_17
REMARK    9  A    between atoms: C_17  and  C_18
REMARK                            x       y       z     vdW  Elec       q    Type
REMARK                         _______ _______ _______ _____ _____    ______ ____
ROOT
ATOM      1  C   UNL     1       1.787   1.969  19.588  0.00  0.00    +0.000 C 
ENDROOT
BRANCH   1   2
ATOM      2  C   UNL     1       3.140   2.411  19.017  0.00  0.00    +0.000 C 
ATOM      3  O   UNL     1       4.185   1.923  19.458  0.00  0.00    +0.000 OA
ATOM      4  N   UNL     1       3.159   3.325  17.965  0.00  0.00    +0.000 N 
ATOM      5  C   UNL     1       1.996   4.069  17.506  0.00  0.00    +0.000 C 
BRANCH   4   6
ATOM      6  C   UNL     1       4.330   3.317  17.085  0.00  0.00    +0.000 C 
BRANCH   6   7
ATOM      7  C   UNL     1       5.219   4.535  17.208  0.00  0.00    +0.000 A 
ATOM      8  C   UNL     1       5.044   5.638  16.361  0.00  0.00    +0.000 A 
ATOM      9  C   UNL     1       5.839   6.781  16.508  0.00  0.00    +0.000 A 
ATOM     10  C   UNL     1       6.825   6.834  17.495  0.00  0.00    +0.000 A 
ATOM     11 CL   UNL     1       7.787   8.265  17.603  0.00  0.00    +0.000 Cl
ATOM     12  C   UNL     1       7.002   5.745  18.354  0.00  0.00    +0.000 A 
ATOM     13 CL   UNL     1       8.184   5.740  19.615  0.00  0.00    +0.000 Cl
ATOM     14  C   UNL     1       6.199   4.606  18.211  0.00  0.00    +0.000 A 
ENDBRANCH   6   7
ENDBRANCH   4   6
ENDBRANCH   1   2
BRANCH   1  15
ATOM     15  S   UNL     1       1.705   2.433  21.359  0.00  0.00    +0.000 S 
BRANCH  15  16
ATOM     16  C   UNL     1       2.537   4.053  21.270  0.00  0.00    +0.000 C 
BRANCH  16  18
ATOM     17  N   UNL     1       2.169   6.443  20.879  0.00  0.00    +0.000 N 
ATOM     18  C   UNL     1       1.594   5.184  20.867  0.00  0.00    +0.000 C 
ATOM     19  O   UNL     1       0.460   4.914  20.479  0.00  0.00    +0.000 OA
ATOM     20  H   UNL     1       3.149   6.478  21.135  0.00  0.00    +0.000 HD
BRANCH  17  26
ATOM     21  C   UNL     1       1.659  10.149  17.681  0.00  0.00    +0.000 C 
ATOM     22  C   UNL     1       1.306   9.516  18.995  0.00  0.00    +0.000 A 
ATOM     23  C   UNL     1       0.374  10.117  19.847  0.00  0.00    +0.000 A 
ATOM     24  C   UNL     1       0.037   9.508  21.053  0.00  0.00    +0.000 A 
ATOM     25  C   UNL     1       0.614   8.289  21.413  0.00  0.00    +0.000 A 
ATOM     26  C   UNL     1       1.547   7.671  20.578  0.00  0.00    +0.000 A 
ATOM     27  C   UNL     1       1.902   8.304  19.377  0.00  0.00    +0.000 A 
ENDBRANCH  17  26
ENDBRANCH  16  18
ENDBRANCH  15  16
ENDBRANCH   1  15
TORSDOF 7
ENDMDL
MODEL 2
REMARK VINA RESULT:      -7.2      1.708      2.304
REMARK  Name = 
REMARK  9 active torsions:
REMARK  status: ('A' for Active; 'I' for Inactive)
REMARK    1  A    between atoms: C_1  and  C_2
REMARK    2  A    between atoms: C_6  and  N_7
REMARK    3  A    between atoms: C_8  and  C_10
REMARK    4  A    between atoms: C_10  and  S_11
REMARK    5  A    between atoms: S_11  and  C_12
REMARK    6  A    between atoms: C_12  and  C_13
REMARK    7  A    between atoms: N_15  and  C_16
REMARK    8  A    between atoms: N_15  and  C_17
REMARK    9  A    between atoms: C_17  and  C_18
REMARK                            x       y       z     vdW  Elec       q    Type
REMARK                         _______ _______ _______ _____ _____    ______ ____
ROOT
ATOM      1  C   UNL     1       1.230   4.007  19.821  0.00  0.00    +0.000 C 
ENDROOT
BRANCH   1   2
ATOM      2  C   UNL     1       1.899   3.643  18.489  0.00  0.00    +0.000 C 
ATOM      3  O   UNL     1       1.390   4.005  17.424  0.00  0.00    +0.000 OA
ATOM      4  N   UNL     1       3.107   2.948  18.512  0.00  0.00    +0.000 N 
ATOM      5  C   UNL     1       3.679   2.341  19.704  0.00  0.00    +0.000 C 
BRANCH   4   6
ATOM      6  C   UNL     1       3.989   3.089  17.351  0.00  0.00    +0.000 C 
BRANCH   6   7
ATOM      7  C   UNL     1       4.876   4.314  17.379  0.00  0.00    +0.000 A 
ATOM      8  C   UNL     1       4.672   5.367  16.477  0.00  0.00    +0.000 A 
ATOM      9  C   UNL     1       5.466   6.519  16.535  0.00  0.00    +0.000 A 
ATOM     10  C   UNL     1       6.480   6.629  17.489  0.00  0.00    +0.000 A 
ATOM     11 CL   UNL     1       7.440   8.067  17.488  0.00  0.00    +0.000 Cl
ATOM     12  C   UNL     1       6.687   5.591  18.403  0.00  0.00    +0.000 A 
ATOM     13 CL   UNL     1       7.905   5.660  19.627  0.00  0.00    +0.000 Cl
ATOM     14  C   UNL     1       5.884   4.444  18.348  0.00  0.00    +0.000 A 
ENDBRANCH   6   7
ENDBRANCH   4   6
ENDBRANCH   1   2
BRANCH   1  15
ATOM     15  S   UNL     1       2.288   5.212  20.710  0.00  0.00    +0.000 S 
BRANCH  15  16
ATOM     16  C   UNL     1       2.567   6.403  19.358  0.00  0.00    +0.000 C 
BRANCH  16  18
ATOM     17  N   UNL     1       1.189   7.832  20.793  0.00  0.00    +0.000 N 
ATOM     18  C   UNL     1       1.926   7.763  19.623  0.00  0.00    +0.000 C 
ATOM     19  O   UNL     1       2.170   8.703  18.870  0.00  0.00    +0.000 OA
ATOM     20  H   UNL     1       1.167   6.987  21.351  0.00  0.00    +0.000 HD
BRANCH  17  26
ATOM     21  C   UNL     1      -1.401  11.888  19.757  0.00  0.00    +0.000 C 
ATOM     22  C   UNL     1      -0.802  10.960  20.772  0.00  0.00    +0.000 A 
ATOM     23  C   UNL     1      -0.989  11.184  22.140  0.00  0.00    +0.000 A 
ATOM     24  C   UNL     1      -0.448  10.303  23.072  0.00  0.00    +0.000 A 
ATOM     25  C   UNL     1       0.272   9.184  22.650  0.00  0.00    +0.000 A 
ATOM     26  C   UNL     1       0.472   8.940  21.288  0.00  0.00    +0.000 A 
ATOM     27  C   UNL     1      -0.053   9.848  20.356  0.00  0.00    +0.000 A 
ENDBRANCH  17  26
ENDBRANCH  16  18
ENDBRANCH  15  16
ENDBRANCH   1  15
TORSDOF 7
ENDMDL
MODEL 3
REMARK VINA RESULT:      -7.1      1.866      2.677
REMARK  Name = 
REMARK  9 active torsions:
REMARK  status: ('A' for Active; 'I' for Inactive)
REMARK    1  A    between atoms: C_1  and  C_2
REMARK    2  A    between atoms: C_6  and  N_7
REMARK    3  A    between atoms: C_8  and  C_10
REMARK    4  A    between atoms: C_10  and  S_11
REMARK    5  A    between atoms: S_11  and  C_12
REMARK    6  A    between atoms: C_12  and  C_13
REMARK    7  A    between atoms: N_15  and  C_16
REMARK    8  A    between atoms: N_15  and  C_17
REMARK    9  A    between atoms: C_17  and  C_18
REMARK                            x       y       z     vdW  Elec       q    Type
REMARK                         _______ _______ _______ _____ _____    ______ ____
ROOT
ATOM      1  C   UNL     1       1.257   4.192  19.716  0.00  0.00    +0.000 C 
ENDROOT
BRANCH   1   2
ATOM      2  C   UNL     1       1.944   3.823  18.394  0.00  0.00    +0.000 C 
ATOM      3  O   UNL     1       1.454   4.187  17.321  0.00  0.00    +0.000 OA
ATOM      4  N   UNL     1       3.148   3.122  18.436  0.00  0.00    +0.000 N 
ATOM      5  C   UNL     1       3.699   2.512  19.636  0.00  0.00    +0.000 C 
BRANCH   4   6
ATOM      6  C   UNL     1       4.048   3.258  17.288  0.00  0.00    +0.000 C 
BRANCH   6   7
ATOM      7  C   UNL     1       4.958   4.465  17.341  0.00  0.00    +0.000 A 
ATOM      8  C   UNL     1       4.732   5.570  16.510  0.00  0.00    +0.000 A 
ATOM      9  C   UNL     1       5.550   6.704  16.594  0.00  0.00    +0.000 A 
ATOM     10  C   UNL     1       6.610   6.743  17.502  0.00  0.00    +0.000 A 
ATOM     11 CL   UNL     1       7.596   8.162  17.535  0.00  0.00    +0.000 Cl
ATOM     12  C   UNL     1       6.840   5.651  18.345  0.00  0.00    +0.000 A 
ATOM     13 CL   UNL     1       8.117   5.631  19.510  0.00  0.00    +0.000 Cl
ATOM     14  C   UNL     1       6.014   4.523  18.265  0.00  0.00    +0.000 A 
ENDBRANCH   6   7
ENDBRANCH   4   6
ENDBRANCH   1   2
BRANCH   1  15
ATOM     15  S   UNL     1       2.273   5.444  20.587  0.00  0.00    +0.000 S 
BRANCH  15  16
ATOM     16  C   UNL     1       2.433   6.668  19.246  0.00  0.00    +0.000 C 
BRANCH  16  18
ATOM     17  N   UNL     1       1.592   8.852  18.520  0.00  0.00    +0.000 N 
ATOM     18  C   UNL     1       1.829   8.025  19.604  0.00  0.00    +0.000 C 
ATOM     19  O   UNL     1       1.511   8.255  20.769  0.00  0.00    +0.000 OA
ATOM     20  H   UNL     1       1.826   8.467  17.612  0.00  0.00    +0.000 HD
BRANCH  17  26
ATOM     21  C   UNL     1      -2.421  11.695  18.727  0.00  0.00    +0.000 C 
ATOM     22  C   UNL     1      -0.929  11.568  18.629  0.00  0.00    +0.000 A 
ATOM     23  C   UNL     1      -0.118  12.707  18.596  0.00  0.00    +0.000 A 
ATOM     24  C   UNL     1       1.267  12.576  18.528  0.00  0.00    +0.000 A 
ATOM     25  C   UNL     1       1.855  11.310  18.508  0.00  0.00    +0.000 A 
ATOM     26  C   UNL     1       1.065  10.158  18.540  0.00  0.00    +0.000 A 
ATOM     27  C   UNL     1      -0.331  10.299  18.580  0.00  0.00    +0.000 A 
ENDBRANCH  17  26
ENDBRANCH  16  18
ENDBRANCH  15  16
ENDBRANCH   1  15
TORSDOF 7
ENDMDL
MODEL 4
REMARK VINA RESULT:      -7.1      4.215      8.024
REMARK  Name = 
REMARK  9 active torsions:
REMARK  status: ('A' for Active; 'I' for Inactive)
REMARK    1  A    between atoms: C_1  and  C_2
REMARK    2  A    between atoms: C_6  and  N_7
REMARK    3  A    between atoms: C_8  and  C_10
REMARK    4  A    between atoms: C_10  and  S_11
REMARK    5  A    between atoms: S_11  and  C_12
REMARK    6  A    between atoms: C_12  and  C_13
REMARK    7  A    between atoms: N_15  and  C_16
REMARK    8  A    between atoms: N_15  and  C_17
REMARK    9  A    between atoms: C_17  and  C_18
REMARK                            x       y       z     vdW  Elec       q    Type
REMARK                         _______ _______ _______ _____ _____    ______ ____
ROOT
ATOM      1  C   UNL     1       3.624   5.379  19.381  0.00  0.00    +0.000 C 
ENDROOT
BRANCH   1   2
ATOM      2  C   UNL     1       3.363   6.535  18.407  0.00  0.00    +0.000 C 
ATOM      3  O   UNL     1       3.879   6.526  17.285  0.00  0.00    +0.000 OA
ATOM      4  N   UNL     1       2.496   7.556  18.793  0.00  0.00    +0.000 N 
ATOM      5  C   UNL     1       1.987   7.730  20.145  0.00  0.00    +0.000 C 
BRANCH   4   6
ATOM      6  C   UNL     1       1.830   8.314  17.731  0.00  0.00    +0.000 C 
BRANCH   6   7
ATOM      7  C   UNL     1       1.346   9.686  18.144  0.00  0.00    +0.000 A 
ATOM      8  C   UNL     1       2.241  10.758  18.255  0.00  0.00    +0.000 A 
ATOM      9  C   UNL     1       1.782  12.037  18.594  0.00  0.00    +0.000 A 
ATOM     10  C   UNL     1       0.424  12.258  18.836  0.00  0.00    +0.000 A 
ATOM     11 CL   UNL     1      -0.070  13.855  19.276  0.00  0.00    +0.000 Cl
ATOM     12  C   UNL     1      -0.481  11.199  18.718  0.00  0.00    +0.000 A 
ATOM     13 CL   UNL     1      -2.178  11.396  18.980  0.00  0.00    +0.000 Cl
ATOM     14  C   UNL     1      -0.020   9.923  18.370  0.00  0.00    +0.000 A 
ENDBRANCH   6   7
ENDBRANCH   4   6
ENDBRANCH   1   2
BRANCH   1  15
ATOM     15  S   UNL     1       4.576   4.073  18.517  0.00  0.00    +0.000 S 
BRANCH  15  16
ATOM     16  C   UNL     1       6.171   4.941  18.353  0.00  0.00    +0.000 C 
BRANCH  16  18
ATOM     17  N   UNL     1       6.157   4.906  15.904  0.00  0.00    +0.000 N 
ATOM     18  C   UNL     1       6.889   4.622  17.044  0.00  0.00    +0.000 C 
ATOM     19  O   UNL     1       8.057   4.242  17.074  0.00  0.00    +0.000 OA
ATOM     20  H   UNL     1       5.240   5.307  16.057  0.00  0.00    +0.000 HD
BRANCH  17  26
ATOM     21  C   UNL     1       5.362   2.498  11.686  0.00  0.00    +0.000 C 
ATOM     22  C   UNL     1       6.157   3.494  12.476  0.00  0.00    +0.000 A 
ATOM     23  C   UNL     1       7.207   4.201  11.880  0.00  0.00    +0.000 A 
ATOM     24  C   UNL     1       7.924   5.141  12.617  0.00  0.00    +0.000 A 
ATOM     25  C   UNL     1       7.590   5.395  13.949  0.00  0.00    +0.000 A 
ATOM     26  C   UNL     1       6.545   4.701  14.565  0.00  0.00    +0.000 A 
ATOM     27  C   UNL     1       5.847   3.736  13.823  0.00  0.00    +0.000 A 
ENDBRANCH  17  26
ENDBRANCH  16  18
ENDBRANCH  15  16
ENDBRANCH   1  15
TORSDOF 7
ENDMDL
MODEL 5
REMARK VINA RESULT:      -7.1      5.208      7.159
REMARK  Name = 
REMARK  9 active torsions:
REMARK  status: ('A' for Active; 'I' for Inactive)
REMARK    1  A    between atoms: C_1  and  C_2
REMARK    2  A    between atoms: C_6  and  N_7
REMARK    3  A    between atoms: C_8  and  C_10
REMARK    4  A    between atoms: C_10  and  S_11
REMARK    5  A    between atoms: S_11  and  C_12
REMARK    6  A    between atoms: C_12  and  C_13
REMARK    7  A    between atoms: N_15  and  C_16
REMARK    8  A    between atoms: N_15  and  C_17
REMARK    9  A    between atoms: C_17  and  C_18
REMARK                            x       y       z     vdW  Elec       q    Type
REMARK                         _______ _______ _______ _____ _____    ______ ____
ROOT
ATOM      1  C   UNL     1       7.292   5.434  17.091  0.00  0.00    +0.000 C 
ENDROOT
BRANCH   1   2
ATOM      2  C   UNL     1       6.197   4.522  17.660  0.00  0.00    +0.000 C 
ATOM      3  O   UNL     1       6.237   4.175  18.844  0.00  0.00    +0.000 OA
ATOM      4  N   UNL     1       5.141   4.143  16.833  0.00  0.00    +0.000 N 
ATOM      5  C   UNL     1       5.108   4.364  15.395  0.00  0.00    +0.000 C 
BRANCH   4   6
ATOM      6  C   UNL     1       3.878   3.776  17.476  0.00  0.00    +0.000 C 
BRANCH   6   7
ATOM      7  C   UNL     1       3.254   4.872  18.311  0.00  0.00    +0.000 A 
ATOM      8  C   UNL     1       2.856   4.628  19.631  0.00  0.00    +0.000 A 
ATOM      9  C   UNL     1       2.320   5.658  20.415  0.00  0.00    +0.000 A 
ATOM     10  C   UNL     1       2.166   6.941  19.886  0.00  0.00    +0.000 A 
ATOM     11 CL   UNL     1       1.473   8.157  20.900  0.00  0.00    +0.000 Cl
ATOM     12  C   UNL     1       2.569   7.200  18.573  0.00  0.00    +0.000 A 
ATOM     13 CL   UNL     1       2.433   8.765  17.852  0.00  0.00    +0.000 Cl
ATOM     14  C   UNL     1       3.114   6.171  17.794  0.00  0.00    +0.000 A 
ENDBRANCH   6   7
ENDBRANCH   4   6
ENDBRANCH   1   2
BRANCH   1  15
ATOM     15  S   UNL     1       6.842   7.181  17.415  0.00  0.00    +0.000 S 
BRANCH  15  16
ATOM     16  C   UNL     1       8.270   7.659  18.443  0.00  0.00    +0.000 C 
BRANCH  16  18
ATOM     17  N   UNL     1       9.432   9.581  19.421  0.00  0.00    +0.000 N 
ATOM     18  C   UNL     1       8.473   9.171  18.511  0.00  0.00    +0.000 C 
ATOM     19  O   UNL     1       7.872   9.897  17.722  0.00  0.00    +0.000 OA
ATOM     20  H   UNL     1       9.905   8.842  19.927  0.00  0.00    +0.000 HD
BRANCH  17  26
ATOM     21  C   UNL     1       9.068  13.415  22.486  0.00  0.00    +0.000 C 
ATOM     22  C   UNL     1       9.628  12.810  21.233  0.00  0.00    +0.000 A 
ATOM     23  C   UNL     1      10.520  13.530  20.431  0.00  0.00    +0.000 A 
ATOM     24  C   UNL     1      11.051  12.948  19.282  0.00  0.00    +0.000 A 
ATOM     25  C   UNL     1      10.710  11.641  18.931  0.00  0.00    +0.000 A 
ATOM     26  C   UNL     1       9.821  10.903  19.717  0.00  0.00    +0.000 A 
ATOM     27  C   UNL     1       9.269  11.506  20.857  0.00  0.00    +0.000 A 
ENDBRANCH  17  26
ENDBRANCH  16  18
ENDBRANCH  15  16
ENDBRANCH   1  15
TORSDOF 7
ENDMDL
MODEL 6
REMARK VINA RESULT:      -7.1      3.136      6.388
REMARK  Name = 
REMARK  9 active torsions:
REMARK  status: ('A' for Active; 'I' for Inactive)
REMARK    1  A    between atoms: C_1  and  C_2
REMARK    2  A    between atoms: C_6  and  N_7
REMARK    3  A    between atoms: C_8  and  C_10
REMARK    4  A    between atoms: C_10  and  S_11
REMARK    5  A    between atoms: S_11  and  C_12
REMARK    6  A    between atoms: C_12  and  C_13
REMARK    7  A    between atoms: N_15  and  C_16
REMARK    8  A    between atoms: N_15  and  C_17
REMARK    9  A    between atoms: C_17  and  C_18
REMARK                            x       y       z     vdW  Elec       q    Type
REMARK                         _______ _______ _______ _____ _____    ______ ____
ROOT
ATOM      1  C   UNL     1       1.247   2.626  19.343  0.00  0.00    +0.000 C 
ENDROOT
BRANCH   1   2
ATOM      2  C   UNL     1       1.607   3.993  19.940  0.00  0.00    +0.000 C 
ATOM      3  O   UNL     1       1.706   4.125  21.164  0.00  0.00    +0.000 OA
ATOM      4  N   UNL     1       1.870   5.055  19.077  0.00  0.00    +0.000 N 
ATOM      5  C   UNL     1       1.612   5.029  17.645  0.00  0.00    +0.000 C 
BRANCH   4   6
ATOM      6  C   UNL     1       2.722   6.137  19.577  0.00  0.00    +0.000 C 
BRANCH   6   7
ATOM      7  C   UNL     1       2.016   7.463  19.756  0.00  0.00    +0.000 A 
ATOM      8  C   UNL     1       1.947   8.385  18.704  0.00  0.00    +0.000 A 
ATOM      9  C   UNL     1       1.254   9.593  18.860  0.00  0.00    +0.000 A 
ATOM     10  C   UNL     1       0.629   9.896  20.071  0.00  0.00    +0.000 A 
ATOM     11 CL   UNL     1      -0.186  11.414  20.203  0.00  0.00    +0.000 Cl
ATOM     12  C   UNL     1       0.680   8.979  21.125  0.00  0.00    +0.000 A 
ATOM     13 CL   UNL     1      -0.086   9.270  22.647  0.00  0.00    +0.000 Cl
ATOM     14  C   UNL     1       1.366   7.768  20.963  0.00  0.00    +0.000 A 
ENDBRANCH   6   7
ENDBRANCH   4   6
ENDBRANCH   1   2
BRANCH   1  15
ATOM     15  S   UNL     1       2.782   1.790  18.794  0.00  0.00    +0.000 S 
BRANCH  15  16
ATOM     16  C   UNL     1       3.986   2.697  19.820  0.00  0.00    +0.000 C 
BRANCH  16  18
ATOM     17  N   UNL     1       4.812   3.398  17.623  0.00  0.00    +0.000 N 
ATOM     18  C   UNL     1       5.004   3.477  18.991  0.00  0.00    +0.000 C 
ATOM     19  O   UNL     1       5.837   4.178  19.563  0.00  0.00    +0.000 OA
ATOM     20  H   UNL     1       4.016   2.850  17.320  0.00  0.00    +0.000 HD
BRANCH  17  26
ATOM     21  C   UNL     1       6.028   3.508  12.855  0.00  0.00    +0.000 C 
ATOM     22  C   UNL     1       6.209   4.034  14.248  0.00  0.00    +0.000 A 
ATOM     23  C   UNL     1       7.093   5.087  14.503  0.00  0.00    +0.000 A 
ATOM     24  C   UNL     1       7.236   5.582  15.797  0.00  0.00    +0.000 A 
ATOM     25  C   UNL     1       6.487   5.042  16.844  0.00  0.00    +0.000 A 
ATOM     26  C   UNL     1       5.597   3.990  16.613  0.00  0.00    +0.000 A 
ATOM     27  C   UNL     1       5.480   3.478  15.312  0.00  0.00    +0.000 A 
ENDBRANCH  17  26
ENDBRANCH  16  18
ENDBRANCH  15  16
ENDBRANCH   1  15
TORSDOF 7
ENDMDL
MODEL 7
REMARK VINA RESULT:      -7.0      1.197      1.931
REMARK  Name = 
REMARK  9 active torsions:
REMARK  status: ('A' for Active; 'I' for Inactive)
REMARK    1  A    between atoms: C_1  and  C_2
REMARK    2  A    between atoms: C_6  and  N_7
REMARK    3  A    between atoms: C_8  and  C_10
REMARK    4  A    between atoms: C_10  and  S_11
REMARK    5  A    between atoms: S_11  and  C_12
REMARK    6  A    between atoms: C_12  and  C_13
REMARK    7  A    between atoms: N_15  and  C_16
REMARK    8  A    between atoms: N_15  and  C_17
REMARK    9  A    between atoms: C_17  and  C_18
REMARK                            x       y       z     vdW  Elec       q    Type
REMARK                         _______ _______ _______ _____ _____    ______ ____
ROOT
ATOM      1  C   UNL     1       1.363   2.169  19.932  0.00  0.00    +0.000 C 
ENDROOT
BRANCH   1   2
ATOM      2  C   UNL     1       2.695   2.423  19.215  0.00  0.00    +0.000 C 
ATOM      3  O   UNL     1       3.737   1.923  19.650  0.00  0.00    +0.000 OA
ATOM      4  N   UNL     1       2.694   3.180  18.044  0.00  0.00    +0.000 N 
ATOM      5  C   UNL     1       1.551   3.941  17.563  0.00  0.00    +0.000 C 
BRANCH   4   6
ATOM      6  C   UNL     1       3.791   2.962  17.099  0.00  0.00    +0.000 C 
BRANCH   6   7
ATOM      7  C   UNL     1       4.793   4.093  17.024  0.00  0.00    +0.000 A 
ATOM      8  C   UNL     1       4.965   4.970  18.103  0.00  0.00    +0.000 A 
ATOM      9  C   UNL     1       5.925   5.988  18.048  0.00  0.00    +0.000 A 
ATOM     10  C   UNL     1       6.719   6.149  16.910  0.00  0.00    +0.000 A 
ATOM     11 CL   UNL     1       7.866   7.441  16.898  0.00  0.00    +0.000 Cl
ATOM     12  C   UNL     1       6.565   5.273  15.830  0.00  0.00    +0.000 A 
ATOM     13 CL   UNL     1       7.522   5.391  14.396  0.00  0.00    +0.000 Cl
ATOM     14  C   UNL     1       5.610   4.250  15.893  0.00  0.00    +0.000 A 
ENDBRANCH   6   7
ENDBRANCH   4   6
ENDBRANCH   1   2
BRANCH   1  15
ATOM     15  S   UNL     1       1.539   2.626  21.698  0.00  0.00    +0.000 S 
BRANCH  15  16
ATOM     16  C   UNL     1       2.526   4.146  21.505  0.00  0.00    +0.000 C 
BRANCH  16  18
ATOM     17  N   UNL     1       2.551   6.301  20.341  0.00  0.00    +0.000 N 
ATOM     18  C   UNL     1       1.758   5.268  20.807  0.00  0.00    +0.000 C 
ATOM     19  O   UNL     1       0.550   5.146  20.622  0.00  0.00    +0.000 OA
ATOM     20  H   UNL     1       3.547   6.198  20.495  0.00  0.00    +0.000 HD
BRANCH  17  26
ATOM     21  C   UNL     1       0.261  10.645  20.673  0.00  0.00    +0.000 C 
ATOM     22  C   UNL     1       0.980   9.622  19.845  0.00  0.00    +0.000 A 
ATOM     23  C   UNL     1       1.239   9.857  18.490  0.00  0.00    +0.000 A 
ATOM     24  C   UNL     1       1.927   8.910  17.736  0.00  0.00    +0.000 A 
ATOM     25  C   UNL     1       2.376   7.728  18.329  0.00  0.00    +0.000 A 
ATOM     26  C   UNL     1       2.129   7.473  19.680  0.00  0.00    +0.000 A 
ATOM     27  C   UNL     1       1.410   8.419  20.426  0.00  0.00    +0.000 A 
ENDBRANCH  17  26
ENDBRANCH  16  18
ENDBRANCH  15  16
ENDBRANCH   1  15
TORSDOF 7
ENDMDL
MODEL 8
REMARK VINA RESULT:      -7.0      2.854      6.037
REMARK  Name = 
REMARK  9 active torsions:
REMARK  status: ('A' for Active; 'I' for Inactive)
REMARK    1  A    between atoms: C_1  and  C_2
REMARK    2  A    between atoms: C_6  and  N_7
REMARK    3  A    between atoms: C_8  and  C_10
REMARK    4  A    between atoms: C_10  and  S_11
REMARK    5  A    between atoms: S_11  and  C_12
REMARK    6  A    between atoms: C_12  and  C_13
REMARK    7  A    between atoms: N_15  and  C_16
REMARK    8  A    between atoms: N_15  and  C_17
REMARK    9  A    between atoms: C_17  and  C_18
REMARK                            x       y       z     vdW  Elec       q    Type
REMARK                         _______ _______ _______ _____ _____    ______ ____
ROOT
ATOM      1  C   UNL     1       0.869   2.590  19.243  0.00  0.00    +0.000 C 
ENDROOT
BRANCH   1   2
ATOM      2  C   UNL     1       1.333   3.919  19.852  0.00  0.00    +0.000 C 
ATOM      3  O   UNL     1       1.409   4.043  21.078  0.00  0.00    +0.000 OA
ATOM      4  N   UNL     1       1.711   4.954  18.997  0.00  0.00    +0.000 N 
ATOM      5  C   UNL     1       1.491   4.949  17.559  0.00  0.00    +0.000 C 
BRANCH   4   6
ATOM      6  C   UNL     1       2.641   5.956  19.522  0.00  0.00    +0.000 C 
BRANCH   6   7
ATOM      7  C   UNL     1       2.071   7.355  19.617  0.00  0.00    +0.000 A 
ATOM      8  C   UNL     1       2.105   8.218  18.515  0.00  0.00    +0.000 A 
ATOM      9  C   UNL     1       1.536   9.496  18.594  0.00  0.00    +0.000 A 
ATOM     10  C   UNL     1       0.936   9.930  19.778  0.00  0.00    +0.000 A 
ATOM     11 CL   UNL     1       0.277  11.527  19.813  0.00  0.00    +0.000 Cl
ATOM     12  C   UNL     1       0.886   9.073  20.882  0.00  0.00    +0.000 A 
ATOM     13 CL   UNL     1       0.142   9.526  22.374  0.00  0.00    +0.000 Cl
ATOM     14  C   UNL     1       1.447   7.793  20.797  0.00  0.00    +0.000 A 
ENDBRANCH   6   7
ENDBRANCH   4   6
ENDBRANCH   1   2
BRANCH   1  15
ATOM     15  S   UNL     1       2.266   1.831  18.331  0.00  0.00    +0.000 S 
BRANCH  15  16
ATOM     16  C   UNL     1       3.593   2.119  19.547  0.00  0.00    +0.000 C 
BRANCH  16  18
ATOM     17  N   UNL     1       4.627   3.292  17.662  0.00  0.00    +0.000 N 
ATOM     18  C   UNL     1       4.692   3.040  19.021  0.00  0.00    +0.000 C 
ATOM     19  O   UNL     1       5.476   3.558  19.813  0.00  0.00    +0.000 OA
ATOM     20  H   UNL     1       3.856   2.858  17.168  0.00  0.00    +0.000 HD
BRANCH  17  26
ATOM     21  C   UNL     1       7.451   7.317  17.435  0.00  0.00    +0.000 C 
ATOM     22  C   UNL     1       6.898   6.086  16.779  0.00  0.00    +0.000 A 
ATOM     23  C   UNL     1       7.281   5.739  15.480  0.00  0.00    +0.000 A 
ATOM     24  C   UNL     1       6.779   4.581  14.890  0.00  0.00    +0.000 A 
ATOM     25  C   UNL     1       5.904   3.753  15.595  0.00  0.00    +0.000 A 
ATOM     26  C   UNL     1       5.508   4.080  16.894  0.00  0.00    +0.000 A 
ATOM     27  C   UNL     1       5.996   5.263  17.471  0.00  0.00    +0.000 A 
ENDBRANCH  17  26
ENDBRANCH  16  18
ENDBRANCH  15  16
ENDBRANCH   1  15
TORSDOF 7
ENDMDL
MODEL 9
REMARK VINA RESULT:      -7.0      0.936      1.577
REMARK  Name = 
REMARK  9 active torsions:
REMARK  status: ('A' for Active; 'I' for Inactive)
REMARK    1  A    between atoms: C_1  and  C_2
REMARK    2  A    between atoms: C_6  and  N_7
REMARK    3  A    between atoms: C_8  and  C_10
REMARK    4  A    between atoms: C_10  and  S_11
REMARK    5  A    between atoms: S_11  and  C_12
REMARK    6  A    between atoms: C_12  and  C_13
REMARK    7  A    between atoms: N_15  and  C_16
REMARK    8  A    between atoms: N_15  and  C_17
REMARK    9  A    between atoms: C_17  and  C_18
REMARK                            x       y       z     vdW  Elec       q    Type
REMARK                         _______ _______ _______ _____ _____    ______ ____
ROOT
ATOM      1  C   UNL     1       2.642   2.080  19.587  0.00  0.00    +0.000 C 
ENDROOT
BRANCH   1   2
ATOM      2  C   UNL     1       3.834   2.759  18.900  0.00  0.00    +0.000 C 
ATOM      3  O   UNL     1       4.941   2.762  19.446  0.00  0.00    +0.000 OA
ATOM      4  N   UNL     1       3.652   3.319  17.637  0.00  0.00    +0.000 N 
ATOM      5  C   UNL     1       2.355   3.508  17.004  0.00  0.00    +0.000 C 
BRANCH   4   6
ATOM      6  C   UNL     1       4.833   3.449  16.780  0.00  0.00    +0.000 C 
BRANCH   6   7
ATOM      7  C   UNL     1       5.620   4.725  16.981  0.00  0.00    +0.000 A 
ATOM      8  C   UNL     1       5.369   5.854  16.190  0.00  0.00    +0.000 A 
ATOM      9  C   UNL     1       6.069   7.047  16.410  0.00  0.00    +0.000 A 
ATOM     10  C   UNL     1       7.036   7.123  17.415  0.00  0.00    +0.000 A 
ATOM     11 CL   UNL     1       7.881   8.618  17.614  0.00  0.00    +0.000 Cl
ATOM     12  C   UNL     1       7.288   6.007  18.218  0.00  0.00    +0.000 A 
ATOM     13 CL   UNL     1       8.451   6.027  19.496  0.00  0.00    +0.000 Cl
ATOM     14  C   UNL     1       6.579   4.818  18.002  0.00  0.00    +0.000 A 
ENDBRANCH   6   7
ENDBRANCH   4   6
ENDBRANCH   1   2
BRANCH   1  15
ATOM     15  S   UNL     1       2.932   2.050  21.396  0.00  0.00    +0.000 S 
BRANCH  15  16
ATOM     16  C   UNL     1       1.698   3.291  21.906  0.00  0.00    +0.000 C 
BRANCH  16  18
ATOM     17  N   UNL     1       2.246   5.436  20.858  0.00  0.00    +0.000 N 
ATOM     18  C   UNL     1       1.417   4.329  20.822  0.00  0.00    +0.000 C 
ATOM     19  O   UNL     1       0.574   4.088  19.961  0.00  0.00    +0.000 OA
ATOM     20  H   UNL     1       2.956   5.433  21.581  0.00  0.00    +0.000 HD
BRANCH  17  26
ATOM     21  C   UNL     1       0.676  10.045  20.141  0.00  0.00    +0.000 C 
ATOM     22  C   UNL     1       1.421   8.841  19.647  0.00  0.00    +0.000 A 
ATOM     23  C   UNL     1       2.075   8.867  18.410  0.00  0.00    +0.000 A 
ATOM     24  C   UNL     1       2.783   7.751  17.972  0.00  0.00    +0.000 A 
ATOM     25  C   UNL     1       2.858   6.606  18.767  0.00  0.00    +0.000 A 
ATOM     26  C   UNL     1       2.213   6.558  20.006  0.00  0.00    +0.000 A 
ATOM     27  C   UNL     1       1.479   7.677  20.428  0.00  0.00    +0.000 A 
ENDBRANCH  17  26
ENDBRANCH  16  18
ENDBRANCH  15  16
ENDBRANCH   1  15
TORSDOF 7
ENDMDL
