MODEL 1
REMARK VINA RESULT:      -9.6      0.000      0.000
REMARK  Name = 
REMARK  11 active torsions:
REMARK  status: ('A' for Active; 'I' for Inactive)
REMARK    1  A    between atoms: C_1  and  O_2
REMARK    2  A    between atoms: O_2  and  C_3
REMARK    3  A    between atoms: C_5  and  O_6
REMARK    4  A    between atoms: O_6  and  C_7
REMARK    5  A    between atoms: C_9  and  O_10
REMARK    6  A    between atoms: O_10  and  C_11
REMARK    7  A    between atoms: C_15  and  C_16
REMARK    8  A    between atoms: N_18  and  C_19
REMARK    9  A    between atoms: N_18  and  C_20
REMARK   10  A    between atoms: C_24  and  C_25
REMARK   11  A    between atoms: C_29  and  C_30
REMARK                            x       y       z     vdW  Elec       q    Type
REMARK                         _______ _______ _______ _____ _____    ______ ____
ROOT
ATOM      1  C   UNL     1       4.186   3.853  19.582  0.00  0.00    +0.000 A 
ATOM      2  N   UNL     1       3.734   5.017  20.104  0.00  0.00    +0.000 NA
ATOM      3  C   UNL     1       2.399   5.163  20.217  0.00  0.00    +0.000 A 
ATOM      4  C   UNL     1       1.498   4.179  19.801  0.00  0.00    +0.000 A 
ATOM      5  F   UNL     1       0.174   4.395  19.818  0.00  0.00    +0.000 F 
ATOM      6  C   UNL     1       1.974   2.938  19.387  0.00  0.00    +0.000 A 
ATOM      7  C   UNL     1       1.031   1.824  19.057  0.00  0.00    +0.000 C 
ATOM      8  C   UNL     1       3.351   2.783  19.262  0.00  0.00    +0.000 A 
ATOM      9  F   UNL     1       3.860   1.627  18.818  0.00  0.00    +0.000 F 
ENDROOT
BRANCH   1  10
ATOM     10  O   UNL     1       5.544   3.709  19.338  0.00  0.00    +0.000 OA
BRANCH  10  13
ATOM     11  C   UNL     1       7.504   6.486  17.973  0.00  0.00    +0.000 A 
ATOM     12  C   UNL     1       6.858   5.618  18.862  0.00  0.00    +0.000 A 
ATOM     13  C   UNL     1       6.117   4.532  18.387  0.00  0.00    +0.000 A 
ATOM     14  C   UNL     1       6.060   4.287  17.011  0.00  0.00    +0.000 A 
ATOM     15  C   UNL     1       6.688   5.161  16.121  0.00  0.00    +0.000 A 
ATOM     16  C   UNL     1       7.410   6.259  16.600  0.00  0.00    +0.000 A 
BRANCH  15  17
ATOM     17  C   UNL     1       6.620   4.919  14.657  0.00  0.00    +0.000 C 
ATOM     18  N   UNL     1       5.654   4.266  14.095  0.00  0.00    +0.000 NA
ATOM     19  N   UNL     1       7.608   5.385  13.841  0.00  0.00    +0.000 N 
ATOM     20  H   UNL     1       4.935   4.003  14.778  0.00  0.00    +0.000 HD
ATOM     21  H   UNL     1       8.548   5.344  14.213  0.00  0.00    +0.000 HD
ATOM     22  H   UNL     1       7.537   4.965  12.917  0.00  0.00    +0.000 HD
ENDBRANCH  15  17
BRANCH  11  24
ATOM     23  C   UNL     1       8.148   8.773  17.911  0.00  0.00    +0.000 C 
ATOM     24  O   UNL     1       8.197   7.509  18.563  0.00  0.00    +0.000 OA
ENDBRANCH  11  24
ENDBRANCH  10  13
ENDBRANCH   1  10
BRANCH   3  25
ATOM     25  O   UNL     1       2.026   6.390  20.709  0.00  0.00    +0.000 OA
BRANCH  25  26
ATOM     26  C   UNL     1       1.948   7.469  19.859  0.00  0.00    +0.000 A 
ATOM     27  C   UNL     1       2.558   7.290  18.617  0.00  0.00    +0.000 A 
ATOM     28  C   UNL     1       2.469   8.291  17.656  0.00  0.00    +0.000 A 
ATOM     29  C   UNL     1       1.782   9.471  17.948  0.00  0.00    +0.000 A 
ATOM     30  C   UNL     1       1.204   9.685  19.212  0.00  0.00    +0.000 A 
ATOM     31  C   UNL     1       1.310   8.679  20.172  0.00  0.00    +0.000 A 
BRANCH  30  32
ATOM     32  C   UNL     1       0.353  10.903  19.375  0.00  0.00    +0.000 C 
ATOM     33  O   UNL     1       0.802  11.766  20.137  0.00  0.00    +0.000 OA
ATOM     34  N   UNL     1      -0.859  11.096  18.706  0.00  0.00    +0.000 N 
ATOM     35  C   UNL     1      -1.593  10.140  17.892  0.00  0.00    +0.000 C 
ATOM     36  C   UNL     1      -1.512  12.391  18.858  0.00  0.00    +0.000 C 
ENDBRANCH  30  32
ENDBRANCH  25  26
ENDBRANCH   3  25
TORSDOF 7
ENDMDL
MODEL 2
REMARK VINA RESULT:      -9.5      0.793      1.062
REMARK  Name = 
REMARK  11 active torsions:
REMARK  status: ('A' for Active; 'I' for Inactive)
REMARK    1  A    between atoms: C_1  and  O_2
REMARK    2  A    between atoms: O_2  and  C_3
REMARK    3  A    between atoms: C_5  and  O_6
REMARK    4  A    between atoms: O_6  and  C_7
REMARK    5  A    between atoms: C_9  and  O_10
REMARK    6  A    between atoms: O_10  and  C_11
REMARK    7  A    between atoms: C_15  and  C_16
REMARK    8  A    between atoms: N_18  and  C_19
REMARK    9  A    between atoms: N_18  and  C_20
REMARK   10  A    between atoms: C_24  and  C_25
REMARK   11  A    between atoms: C_29  and  C_30
REMARK                            x       y       z     vdW  Elec       q    Type
REMARK                         _______ _______ _______ _____ _____    ______ ____
ROOT
ATOM      1  C   UNL     1       4.272   3.849  19.522  0.00  0.00    +0.000 A 
ATOM      2  N   UNL     1       3.854   5.000  20.098  0.00  0.00    +0.000 NA
ATOM      3  C   UNL     1       2.524   5.181  20.219  0.00  0.00    +0.000 A 
ATOM      4  C   UNL     1       1.594   4.243  19.760  0.00  0.00    +0.000 A 
ATOM      5  F   UNL     1       0.277   4.497  19.789  0.00  0.00    +0.000 F 
ATOM      6  C   UNL     1       2.033   3.009  19.289  0.00  0.00    +0.000 A 
ATOM      7  C   UNL     1       1.058   1.940  18.910  0.00  0.00    +0.000 C 
ATOM      8  C   UNL     1       3.405   2.820  19.155  0.00  0.00    +0.000 A 
ATOM      9  F   UNL     1       3.879   1.670  18.657  0.00  0.00    +0.000 F 
ENDROOT
BRANCH   1  10
ATOM     10  O   UNL     1       5.624   3.676  19.269  0.00  0.00    +0.000 OA
BRANCH  10  13
ATOM     11  C   UNL     1       7.516   6.478  17.860  0.00  0.00    +0.000 A 
ATOM     12  C   UNL     1       6.867   5.624  18.760  0.00  0.00    +0.000 A 
ATOM     13  C   UNL     1       6.206   4.479  18.306  0.00  0.00    +0.000 A 
ATOM     14  C   UNL     1       6.233   4.163  16.944  0.00  0.00    +0.000 A 
ATOM     15  C   UNL     1       6.864   5.022  16.042  0.00  0.00    +0.000 A 
ATOM     16  C   UNL     1       7.506   6.178  16.498  0.00  0.00    +0.000 A 
BRANCH  15  17
ATOM     17  C   UNL     1       6.886   4.704  14.591  0.00  0.00    +0.000 C 
ATOM     18  N   UNL     1       6.214   3.725  14.075  0.00  0.00    +0.000 NA
ATOM     19  N   UNL     1       7.642   5.451  13.738  0.00  0.00    +0.000 N 
ATOM     20  H   UNL     1       5.635   3.256  14.781  0.00  0.00    +0.000 HD
ATOM     21  H   UNL     1       8.536   5.765  14.096  0.00  0.00    +0.000 HD
ATOM     22  H   UNL     1       7.724   4.991  12.835  0.00  0.00    +0.000 HD
ENDBRANCH  15  17
BRANCH  11  24
ATOM     23  C   UNL     1       7.900   8.823  17.806  0.00  0.00    +0.000 C 
ATOM     24  O   UNL     1       8.127   7.563  18.429  0.00  0.00    +0.000 OA
ENDBRANCH  11  24
ENDBRANCH  10  13
ENDBRANCH   1  10
BRANCH   3  25
ATOM     25  O   UNL     1       2.187   6.394  20.767  0.00  0.00    +0.000 OA
BRANCH  25  26
ATOM     26  C   UNL     1       1.958   7.473  19.944  0.00  0.00    +0.000 A 
ATOM     27  C   UNL     1       2.583   7.411  18.699  0.00  0.00    +0.000 A 
ATOM     28  C   UNL     1       2.355   8.413  17.763  0.00  0.00    +0.000 A 
ATOM     29  C   UNL     1       1.511   9.479  18.084  0.00  0.00    +0.000 A 
ATOM     30  C   UNL     1       0.912   9.580  19.352  0.00  0.00    +0.000 A 
ATOM     31  C   UNL     1       1.159   8.574  20.287  0.00  0.00    +0.000 A 
BRANCH  30  32
ATOM     32  C   UNL     1      -0.099  10.664  19.545  0.00  0.00    +0.000 C 
ATOM     33  O   UNL     1      -1.239  10.401  19.147  0.00  0.00    +0.000 OA
ATOM     34  N   UNL     1       0.186  11.891  20.151  0.00  0.00    +0.000 N 
ATOM     35  C   UNL     1       1.486  12.412  20.546  0.00  0.00    +0.000 C 
ATOM     36  C   UNL     1      -0.931  12.796  20.392  0.00  0.00    +0.000 C 
ENDBRANCH  30  32
ENDBRANCH  25  26
ENDBRANCH   3  25
TORSDOF 7
ENDMDL
MODEL 3
REMARK VINA RESULT:      -9.2      1.645      2.397
REMARK  Name = 
REMARK  11 active torsions:
REMARK  status: ('A' for Active; 'I' for Inactive)
REMARK    1  A    between atoms: C_1  and  O_2
REMARK    2  A    between atoms: O_2  and  C_3
REMARK    3  A    between atoms: C_5  and  O_6
REMARK    4  A    between atoms: O_6  and  C_7
REMARK    5  A    between atoms: C_9  and  O_10
REMARK    6  A    between atoms: O_10  and  C_11
REMARK    7  A    between atoms: C_15  and  C_16
REMARK    8  A    between atoms: N_18  and  C_19
REMARK    9  A    between atoms: N_18  and  C_20
REMARK   10  A    between atoms: C_24  and  C_25
REMARK   11  A    between atoms: C_29  and  C_30
REMARK                            x       y       z     vdW  Elec       q    Type
REMARK                         _______ _______ _______ _____ _____    ______ ____
ROOT
ATOM      1  C   UNL     1       4.061   3.783  19.428  0.00  0.00    +0.000 A 
ATOM      2  N   UNL     1       3.671   4.955  19.982  0.00  0.00    +0.000 NA
ATOM      3  C   UNL     1       2.356   5.113  20.227  0.00  0.00    +0.000 A 
ATOM      4  C   UNL     1       1.411   4.131  19.914  0.00  0.00    +0.000 A 
ATOM      5  F   UNL     1       0.097   4.357  20.062  0.00  0.00    +0.000 F 
ATOM      6  C   UNL     1       1.835   2.883  19.466  0.00  0.00    +0.000 A 
ATOM      7  C   UNL     1       0.856   1.773  19.244  0.00  0.00    +0.000 C 
ATOM      8  C   UNL     1       3.191   2.717  19.205  0.00  0.00    +0.000 A 
ATOM      9  F   UNL     1       3.645   1.553  18.722  0.00  0.00    +0.000 F 
ENDROOT
BRANCH   1  10
ATOM     10  O   UNL     1       5.386   3.627  19.050  0.00  0.00    +0.000 OA
BRANCH  10  13
ATOM     11  C   UNL     1       6.072   5.285  15.857  0.00  0.00    +0.000 A 
ATOM     12  C   UNL     1       5.607   4.379  16.817  0.00  0.00    +0.000 A 
ATOM     13  C   UNL     1       5.917   4.551  18.169  0.00  0.00    +0.000 A 
ATOM     14  C   UNL     1       6.662   5.666  18.567  0.00  0.00    +0.000 A 
ATOM     15  C   UNL     1       7.142   6.561  17.610  0.00  0.00    +0.000 A 
ATOM     16  C   UNL     1       6.847   6.373  16.256  0.00  0.00    +0.000 A 
BRANCH  15  17
ATOM     17  C   UNL     1       7.947   7.741  18.021  0.00  0.00    +0.000 C 
ATOM     18  N   UNL     1       8.696   7.748  19.077  0.00  0.00    +0.000 NA
ATOM     19  N   UNL     1       7.912   8.884  17.281  0.00  0.00    +0.000 N 
ATOM     20  H   UNL     1       8.701   6.832  19.538  0.00  0.00    +0.000 HD
ATOM     21  H   UNL     1       7.013   9.128  16.882  0.00  0.00    +0.000 HD
ATOM     22  H   UNL     1       8.332   9.655  17.792  0.00  0.00    +0.000 HD
ENDBRANCH  15  17
BRANCH  11  24
ATOM     23  C   UNL     1       6.153   3.771  14.025  0.00  0.00    +0.000 C 
ATOM     24  O   UNL     1       5.699   5.006  14.569  0.00  0.00    +0.000 OA
ENDBRANCH  11  24
ENDBRANCH  10  13
ENDBRANCH   1  10
BRANCH   3  25
ATOM     25  O   UNL     1       2.042   6.346  20.742  0.00  0.00    +0.000 OA
BRANCH  25  26
ATOM     26  C   UNL     1       1.956   7.433  19.902  0.00  0.00    +0.000 A 
ATOM     27  C   UNL     1       2.627   7.296  18.687  0.00  0.00    +0.000 A 
ATOM     28  C   UNL     1       2.538   8.305  17.734  0.00  0.00    +0.000 A 
ATOM     29  C   UNL     1       1.790   9.452  18.009  0.00  0.00    +0.000 A 
ATOM     30  C   UNL     1       1.148   9.625  19.249  0.00  0.00    +0.000 A 
ATOM     31  C   UNL     1       1.255   8.610  20.200  0.00  0.00    +0.000 A 
BRANCH  30  32
ATOM     32  C   UNL     1       0.240  10.804  19.388  0.00  0.00    +0.000 C 
ATOM     33  O   UNL     1       0.603  11.660  20.203  0.00  0.00    +0.000 OA
ATOM     34  N   UNL     1      -0.932  10.971  18.644  0.00  0.00    +0.000 N 
ATOM     35  C   UNL     1      -1.571  10.013  17.756  0.00  0.00    +0.000 C 
ATOM     36  C   UNL     1      -1.644  12.235  18.789  0.00  0.00    +0.000 C 
ENDBRANCH  30  32
ENDBRANCH  25  26
ENDBRANCH   3  25
TORSDOF 7
ENDMDL
MODEL 4
REMARK VINA RESULT:      -9.1      1.795      2.566
REMARK  Name = 
REMARK  11 active torsions:
REMARK  status: ('A' for Active; 'I' for Inactive)
REMARK    1  A    between atoms: C_1  and  O_2
REMARK    2  A    between atoms: O_2  and  C_3
REMARK    3  A    between atoms: C_5  and  O_6
REMARK    4  A    between atoms: O_6  and  C_7
REMARK    5  A    between atoms: C_9  and  O_10
REMARK    6  A    between atoms: O_10  and  C_11
REMARK    7  A    between atoms: C_15  and  C_16
REMARK    8  A    between atoms: N_18  and  C_19
REMARK    9  A    between atoms: N_18  and  C_20
REMARK   10  A    between atoms: C_24  and  C_25
REMARK   11  A    between atoms: C_29  and  C_30
REMARK                            x       y       z     vdW  Elec       q    Type
REMARK                         _______ _______ _______ _____ _____    ______ ____
ROOT
ATOM      1  C   UNL     1       3.954   3.756  19.540  0.00  0.00    +0.000 A 
ATOM      2  N   UNL     1       3.627   4.946  20.095  0.00  0.00    +0.000 NA
ATOM      3  C   UNL     1       2.323   5.170  20.347  0.00  0.00    +0.000 A 
ATOM      4  C   UNL     1       1.327   4.237  20.040  0.00  0.00    +0.000 A 
ATOM      5  F   UNL     1       0.028   4.530  20.195  0.00  0.00    +0.000 F 
ATOM      6  C   UNL     1       1.685   2.970  19.591  0.00  0.00    +0.000 A 
ATOM      7  C   UNL     1       0.651   1.911  19.374  0.00  0.00    +0.000 C 
ATOM      8  C   UNL     1       3.030   2.735  19.322  0.00  0.00    +0.000 A 
ATOM      9  F   UNL     1       3.421   1.549  18.838  0.00  0.00    +0.000 F 
ENDROOT
BRANCH   1  10
ATOM     10  O   UNL     1       5.267   3.533  19.154  0.00  0.00    +0.000 OA
BRANCH  10  13
ATOM     11  C   UNL     1       6.050   4.994  15.889  0.00  0.00    +0.000 A 
ATOM     12  C   UNL     1       5.556   4.147  16.888  0.00  0.00    +0.000 A 
ATOM     13  C   UNL     1       5.825   4.402  18.236  0.00  0.00    +0.000 A 
ATOM     14  C   UNL     1       6.558   5.540  18.588  0.00  0.00    +0.000 A 
ATOM     15  C   UNL     1       7.067   6.376  17.593  0.00  0.00    +0.000 A 
ATOM     16  C   UNL     1       6.813   6.106  16.244  0.00  0.00    +0.000 A 
BRANCH  15  17
ATOM     17  C   UNL     1       7.860   7.580  17.955  0.00  0.00    +0.000 C 
ATOM     18  N   UNL     1       7.864   8.661  17.243  0.00  0.00    +0.000 NA
ATOM     19  N   UNL     1       8.633   7.577  19.077  0.00  0.00    +0.000 N 
ATOM     20  H   UNL     1       7.214   8.590  16.452  0.00  0.00    +0.000 HD
ATOM     21  H   UNL     1       9.103   6.705  19.291  0.00  0.00    +0.000 HD
ATOM     22  H   UNL     1       9.269   8.370  19.077  0.00  0.00    +0.000 HD
ENDBRANCH  15  17
BRANCH  11  24
ATOM     23  C   UNL     1       6.789   4.504  13.682  0.00  0.00    +0.000 C 
ATOM     24  O   UNL     1       5.716   4.637  14.609  0.00  0.00    +0.000 OA
ENDBRANCH  11  24
ENDBRANCH  10  13
ENDBRANCH   1  10
BRANCH   3  25
ATOM     25  O   UNL     1       2.075   6.419  20.864  0.00  0.00    +0.000 OA
BRANCH  25  26
ATOM     26  C   UNL     1       1.875   7.480  20.011  0.00  0.00    +0.000 A 
ATOM     27  C   UNL     1       2.513   7.374  18.775  0.00  0.00    +0.000 A 
ATOM     28  C   UNL     1       2.314   8.357  17.811  0.00  0.00    +0.000 A 
ATOM     29  C   UNL     1       1.489   9.447  18.096  0.00  0.00    +0.000 A 
ATOM     30  C   UNL     1       0.879   9.592  19.355  0.00  0.00    +0.000 A 
ATOM     31  C   UNL     1       1.096   8.605  20.317  0.00  0.00    +0.000 A 
BRANCH  30  32
ATOM     32  C   UNL     1      -0.112  10.700  19.509  0.00  0.00    +0.000 C 
ATOM     33  O   UNL     1      -1.242  10.466  19.068  0.00  0.00    +0.000 OA
ATOM     34  N   UNL     1       0.180  11.920  20.127  0.00  0.00    +0.000 N 
ATOM     35  C   UNL     1       1.476  12.410  20.571  0.00  0.00    +0.000 C 
ATOM     36  C   UNL     1      -0.923  12.853  20.326  0.00  0.00    +0.000 C 
ENDBRANCH  30  32
ENDBRANCH  25  26
ENDBRANCH   3  25
TORSDOF 7
ENDMDL
MODEL 5
REMARK VINA RESULT:      -8.9      1.893      2.348
REMARK  Name = 
REMARK  11 active torsions:
REMARK  status: ('A' for Active; 'I' for Inactive)
REMARK    1  A    between atoms: C_1  and  O_2
REMARK    2  A    between atoms: O_2  and  C_3
REMARK    3  A    between atoms: C_5  and  O_6
REMARK    4  A    between atoms: O_6  and  C_7
REMARK    5  A    between atoms: C_9  and  O_10
REMARK    6  A    between atoms: O_10  and  C_11
REMARK    7  A    between atoms: C_15  and  C_16
REMARK    8  A    between atoms: N_18  and  C_19
REMARK    9  A    between atoms: N_18  and  C_20
REMARK   10  A    between atoms: C_24  and  C_25
REMARK   11  A    between atoms: C_29  and  C_30
REMARK                            x       y       z     vdW  Elec       q    Type
REMARK                         _______ _______ _______ _____ _____    ______ ____
ROOT
ATOM      1  C   UNL     1       3.062   4.251  17.739  0.00  0.00    +0.000 A 
ATOM      2  N   UNL     1       3.341   5.511  18.149  0.00  0.00    +0.000 NA
ATOM      3  C   UNL     1       2.693   5.962  19.240  0.00  0.00    +0.000 A 
ATOM      4  C   UNL     1       1.751   5.189  19.926  0.00  0.00    +0.000 A 
ATOM      5  F   UNL     1       1.036   5.701  20.939  0.00  0.00    +0.000 F 
ATOM      6  C   UNL     1       1.566   3.855  19.576  0.00  0.00    +0.000 A 
ATOM      7  C   UNL     1       0.659   2.970  20.371  0.00  0.00    +0.000 C 
ATOM      8  C   UNL     1       2.228   3.386  18.446  0.00  0.00    +0.000 A 
ATOM      9  F   UNL     1       2.044   2.124  18.035  0.00  0.00    +0.000 F 
ENDROOT
BRANCH   1  10
ATOM     10  O   UNL     1       3.616   3.792  16.554  0.00  0.00    +0.000 OA
BRANCH  10  13
ATOM     11  C   UNL     1       7.148   4.519  17.196  0.00  0.00    +0.000 A 
ATOM     12  C   UNL     1       5.794   4.214  17.377  0.00  0.00    +0.000 A 
ATOM     13  C   UNL     1       4.928   4.133  16.283  0.00  0.00    +0.000 A 
ATOM     14  C   UNL     1       5.432   4.317  14.992  0.00  0.00    +0.000 A 
ATOM     15  C   UNL     1       6.778   4.640  14.809  0.00  0.00    +0.000 A 
ATOM     16  C   UNL     1       7.637   4.740  15.908  0.00  0.00    +0.000 A 
BRANCH  15  17
ATOM     17  C   UNL     1       7.321   4.852  13.442  0.00  0.00    +0.000 C 
ATOM     18  N   UNL     1       8.222   5.743  13.172  0.00  0.00    +0.000 NA
ATOM     19  N   UNL     1       6.867   4.099  12.401  0.00  0.00    +0.000 N 
ATOM     20  H   UNL     1       8.540   6.221  14.022  0.00  0.00    +0.000 HD
ATOM     21  H   UNL     1       5.879   3.874  12.413  0.00  0.00    +0.000 HD
ATOM     22  H   UNL     1       7.165   4.496  11.514  0.00  0.00    +0.000 HD
ENDBRANCH  15  17
BRANCH  11  24
ATOM     23  C   UNL     1       7.821   5.771  19.102  0.00  0.00    +0.000 C 
ATOM     24  O   UNL     1       7.891   4.567  18.345  0.00  0.00    +0.000 OA
ENDBRANCH  11  24
ENDBRANCH  10  13
ENDBRANCH   1  10
BRANCH   3  25
ATOM     25  O   UNL     1       2.998   7.263  19.556  0.00  0.00    +0.000 OA
BRANCH  25  26
ATOM     26  C   UNL     1       2.015   8.224  19.507  0.00  0.00    +0.000 A 
ATOM     27  C   UNL     1       1.601   8.583  18.224  0.00  0.00    +0.000 A 
ATOM     28  C   UNL     1       0.559   9.489  18.065  0.00  0.00    +0.000 A 
ATOM     29  C   UNL     1      -0.054  10.042  19.191  0.00  0.00    +0.000 A 
ATOM     30  C   UNL     1       0.385   9.727  20.490  0.00  0.00    +0.000 A 
ATOM     31  C   UNL     1       1.439   8.826  20.635  0.00  0.00    +0.000 A 
BRANCH  30  32
ATOM     32  C   UNL     1      -0.436  10.239  21.629  0.00  0.00    +0.000 C 
ATOM     33  O   UNL     1      -0.824   9.382  22.430  0.00  0.00    +0.000 OA
ATOM     34  N   UNL     1      -0.740  11.590  21.820  0.00  0.00    +0.000 N 
ATOM     35  C   UNL     1      -0.486  12.700  20.913  0.00  0.00    +0.000 C 
ATOM     36  C   UNL     1      -1.434  11.956  23.049  0.00  0.00    +0.000 C 
ENDBRANCH  30  32
ENDBRANCH  25  26
ENDBRANCH   3  25
TORSDOF 7
ENDMDL
MODEL 6
REMARK VINA RESULT:      -8.7      1.103      1.569
REMARK  Name = 
REMARK  11 active torsions:
REMARK  status: ('A' for Active; 'I' for Inactive)
REMARK    1  A    between atoms: C_1  and  O_2
REMARK    2  A    between atoms: O_2  and  C_3
REMARK    3  A    between atoms: C_5  and  O_6
REMARK    4  A    between atoms: O_6  and  C_7
REMARK    5  A    between atoms: C_9  and  O_10
REMARK    6  A    between atoms: O_10  and  C_11
REMARK    7  A    between atoms: C_15  and  C_16
REMARK    8  A    between atoms: N_18  and  C_19
REMARK    9  A    between atoms: N_18  and  C_20
REMARK   10  A    between atoms: C_24  and  C_25
REMARK   11  A    between atoms: C_29  and  C_30
REMARK                            x       y       z     vdW  Elec       q    Type
REMARK                         _______ _______ _______ _____ _____    ______ ____
ROOT
ATOM      1  C   UNL     1       4.256   4.216  19.619  0.00  0.00    +0.000 A 
ATOM      2  N   UNL     1       3.708   5.345  19.110  0.00  0.00    +0.000 NA
ATOM      3  C   UNL     1       2.400   5.558  19.352  0.00  0.00    +0.000 A 
ATOM      4  C   UNL     1       1.614   4.658  20.077  0.00  0.00    +0.000 A 
ATOM      5  F   UNL     1       0.291   4.836  20.206  0.00  0.00    +0.000 F 
ATOM      6  C   UNL     1       2.213   3.568  20.704  0.00  0.00    +0.000 A 
ATOM      7  C   UNL     1       1.420   2.660  21.589  0.00  0.00    +0.000 C 
ATOM      8  C   UNL     1       3.562   3.340  20.453  0.00  0.00    +0.000 A 
ATOM      9  F   UNL     1       4.174   2.276  20.988  0.00  0.00    +0.000 F 
ENDROOT
BRANCH   1  10
ATOM     10  O   UNL     1       5.566   3.900  19.294  0.00  0.00    +0.000 OA
BRANCH  10  13
ATOM     11  C   UNL     1       7.637   6.591  17.923  0.00  0.00    +0.000 A 
ATOM     12  C   UNL     1       6.935   5.768  18.811  0.00  0.00    +0.000 A 
ATOM     13  C   UNL     1       6.198   4.677  18.342  0.00  0.00    +0.000 A 
ATOM     14  C   UNL     1       6.201   4.382  16.975  0.00  0.00    +0.000 A 
ATOM     15  C   UNL     1       6.886   5.211  16.084  0.00  0.00    +0.000 A 
ATOM     16  C   UNL     1       7.604   6.314  16.556  0.00  0.00    +0.000 A 
BRANCH  15  17
ATOM     17  C   UNL     1       6.883   4.915  14.628  0.00  0.00    +0.000 C 
ATOM     18  N   UNL     1       7.756   5.407  13.808  0.00  0.00    +0.000 NA
ATOM     19  N   UNL     1       5.929   4.099  14.098  0.00  0.00    +0.000 N 
ATOM     20  H   UNL     1       8.462   5.963  14.304  0.00  0.00    +0.000 HD
ATOM     21  H   UNL     1       5.001   4.185  14.494  0.00  0.00    +0.000 HD
ATOM     22  H   UNL     1       5.926   4.163  13.083  0.00  0.00    +0.000 HD
ENDBRANCH  15  17
BRANCH  11  24
ATOM     23  C   UNL     1       8.087   8.925  17.977  0.00  0.00    +0.000 C 
ATOM     24  O   UNL     1       8.320   7.624  18.507  0.00  0.00    +0.000 OA
ENDBRANCH  11  24
ENDBRANCH  10  13
ENDBRANCH   1  10
BRANCH   3  25
ATOM     25  O   UNL     1       1.916   6.699  18.759  0.00  0.00    +0.000 OA
BRANCH  25  26
ATOM     26  C   UNL     1       1.561   7.774  19.542  0.00  0.00    +0.000 A 
ATOM     27  C   UNL     1       1.583   7.538  20.916  0.00  0.00    +0.000 A 
ATOM     28  C   UNL     1       1.316   8.580  21.797  0.00  0.00    +0.000 A 
ATOM     29  C   UNL     1       1.015   9.849  21.297  0.00  0.00    +0.000 A 
ATOM     30  C   UNL     1       0.941  10.089  19.913  0.00  0.00    +0.000 A 
ATOM     31  C   UNL     1       1.199   9.032  19.040  0.00  0.00    +0.000 A 
BRANCH  30  32
ATOM     32  C   UNL     1       0.775  11.509  19.476  0.00  0.00    +0.000 C 
ATOM     33  O   UNL     1       1.777  12.221  19.597  0.00  0.00    +0.000 OA
ATOM     34  N   UNL     1      -0.411  12.020  18.939  0.00  0.00    +0.000 N 
ATOM     35  C   UNL     1      -1.709  11.368  18.856  0.00  0.00    +0.000 C 
ATOM     36  C   UNL     1      -0.383  13.387  18.431  0.00  0.00    +0.000 C 
ENDBRANCH  30  32
ENDBRANCH  25  26
ENDBRANCH   3  25
TORSDOF 7
ENDMDL
MODEL 7
REMARK VINA RESULT:      -8.6      1.597      7.140
REMARK  Name = 
REMARK  11 active torsions:
REMARK  status: ('A' for Active; 'I' for Inactive)
REMARK    1  A    between atoms: C_1  and  O_2
REMARK    2  A    between atoms: O_2  and  C_3
REMARK    3  A    between atoms: C_5  and  O_6
REMARK    4  A    between atoms: O_6  and  C_7
REMARK    5  A    between atoms: C_9  and  O_10
REMARK    6  A    between atoms: O_10  and  C_11
REMARK    7  A    between atoms: C_15  and  C_16
REMARK    8  A    between atoms: N_18  and  C_19
REMARK    9  A    between atoms: N_18  and  C_20
REMARK   10  A    between atoms: C_24  and  C_25
REMARK   11  A    between atoms: C_29  and  C_30
REMARK                            x       y       z     vdW  Elec       q    Type
REMARK                         _______ _______ _______ _____ _____    ______ ____
ROOT
ATOM      1  C   UNL     1       2.439   4.893  20.359  0.00  0.00    +0.000 A 
ATOM      2  N   UNL     1       3.761   4.820  20.077  0.00  0.00    +0.000 NA
ATOM      3  C   UNL     1       4.195   3.715  19.441  0.00  0.00    +0.000 A 
ATOM      4  C   UNL     1       3.341   2.664  19.094  0.00  0.00    +0.000 A 
ATOM      5  F   UNL     1       3.816   1.526  18.565  0.00  0.00    +0.000 F 
ATOM      6  C   UNL     1       1.967   2.804  19.271  0.00  0.00    +0.000 A 
ATOM      7  C   UNL     1       1.020   1.749  18.794  0.00  0.00    +0.000 C 
ATOM      8  C   UNL     1       1.514   3.940  19.933  0.00  0.00    +0.000 A 
ATOM      9  F   UNL     1       0.206   4.099  20.176  0.00  0.00    +0.000 F 
ENDROOT
BRANCH   1  10
ATOM     10  O   UNL     1       1.971   5.956  21.116  0.00  0.00    +0.000 OA
BRANCH  10  13
ATOM     11  C   UNL     1       2.142   8.466  18.454  0.00  0.00    +0.000 A 
ATOM     12  C   UNL     1       2.318   7.290  19.193  0.00  0.00    +0.000 A 
ATOM     13  C   UNL     1       1.776   7.165  20.476  0.00  0.00    +0.000 A 
ATOM     14  C   UNL     1       1.014   8.211  21.005  0.00  0.00    +0.000 A 
ATOM     15  C   UNL     1       0.851   9.392  20.278  0.00  0.00    +0.000 A 
ATOM     16  C   UNL     1       1.413   9.521  19.004  0.00  0.00    +0.000 A 
BRANCH  15  17
ATOM     17  C   UNL     1       0.055  10.515  20.838  0.00  0.00    +0.000 C 
ATOM     18  N   UNL     1       0.333  11.079  21.970  0.00  0.00    +0.000 NA
ATOM     19  N   UNL     1      -1.026  10.992  20.158  0.00  0.00    +0.000 N 
ATOM     20  H   UNL     1       1.189  10.692  22.380  0.00  0.00    +0.000 HD
ATOM     21  H   UNL     1      -1.587  10.302  19.675  0.00  0.00    +0.000 HD
ATOM     22  H   UNL     1      -1.583  11.599  20.753  0.00  0.00    +0.000 HD
ENDBRANCH  15  17
BRANCH  11  24
ATOM     23  C   UNL     1       3.786   7.542  17.007  0.00  0.00    +0.000 C 
ATOM     24  O   UNL     1       2.720   8.463  17.213  0.00  0.00    +0.000 OA
ENDBRANCH  11  24
ENDBRANCH  10  13
ENDBRANCH   1  10
BRANCH   3  25
ATOM     25  O   UNL     1       5.554   3.701  19.239  0.00  0.00    +0.000 OA
BRANCH  25  26
ATOM     26  C   UNL     1       6.116   4.577  18.338  0.00  0.00    +0.000 A 
ATOM     27  C   UNL     1       6.683   5.721  18.899  0.00  0.00    +0.000 A 
ATOM     28  C   UNL     1       7.345   6.632  18.084  0.00  0.00    +0.000 A 
ATOM     29  C   UNL     1       7.423   6.400  16.709  0.00  0.00    +0.000 A 
ATOM     30  C   UNL     1       6.814   5.276  16.123  0.00  0.00    +0.000 A 
ATOM     31  C   UNL     1       6.143   4.375  16.950  0.00  0.00    +0.000 A 
BRANCH  30  32
ATOM     32  C   UNL     1       7.091   5.028  14.675  0.00  0.00    +0.000 C 
ATOM     33  O   UNL     1       8.120   5.552  14.235  0.00  0.00    +0.000 OA
ATOM     34  N   UNL     1       6.277   4.241  13.854  0.00  0.00    +0.000 N 
ATOM     35  C   UNL     1       4.975   3.672  14.167  0.00  0.00    +0.000 C 
ATOM     36  C   UNL     1       6.746   3.978  12.499  0.00  0.00    +0.000 C 
ENDBRANCH  30  32
ENDBRANCH  25  26
ENDBRANCH   3  25
TORSDOF 7
ENDMDL
MODEL 8
REMARK VINA RESULT:      -8.5      1.869      2.648
REMARK  Name = 
REMARK  11 active torsions:
REMARK  status: ('A' for Active; 'I' for Inactive)
REMARK    1  A    between atoms: C_1  and  O_2
REMARK    2  A    between atoms: O_2  and  C_3
REMARK    3  A    between atoms: C_5  and  O_6
REMARK    4  A    between atoms: O_6  and  C_7
REMARK    5  A    between atoms: C_9  and  O_10
REMARK    6  A    between atoms: O_10  and  C_11
REMARK    7  A    between atoms: C_15  and  C_16
REMARK    8  A    between atoms: N_18  and  C_19
REMARK    9  A    between atoms: N_18  and  C_20
REMARK   10  A    between atoms: C_24  and  C_25
REMARK   11  A    between atoms: C_29  and  C_30
REMARK                            x       y       z     vdW  Elec       q    Type
REMARK                         _______ _______ _______ _____ _____    ______ ____
ROOT
ATOM      1  C   UNL     1       3.145   6.173  18.055  0.00  0.00    +0.000 A 
ATOM      2  N   UNL     1       3.014   6.933  19.168  0.00  0.00    +0.000 NA
ATOM      3  C   UNL     1       2.203   6.470  20.138  0.00  0.00    +0.000 A 
ATOM      4  C   UNL     1       1.498   5.268  20.018  0.00  0.00    +0.000 A 
ATOM      5  F   UNL     1       0.610   4.886  20.947  0.00  0.00    +0.000 F 
ATOM      6  C   UNL     1       1.738   4.434  18.930  0.00  0.00    +0.000 A 
ATOM      7  C   UNL     1       1.094   3.087  18.838  0.00  0.00    +0.000 C 
ATOM      8  C   UNL     1       2.570   4.910  17.921  0.00  0.00    +0.000 A 
ATOM      9  F   UNL     1       2.792   4.169  16.828  0.00  0.00    +0.000 F 
ENDROOT
BRANCH   1  10
ATOM     10  O   UNL     1       3.874   6.669  16.985  0.00  0.00    +0.000 OA
BRANCH  10  13
ATOM     11  C   UNL     1       7.060   4.924  17.450  0.00  0.00    +0.000 A 
ATOM     12  C   UNL     1       5.874   5.624  17.697  0.00  0.00    +0.000 A 
ATOM     13  C   UNL     1       5.042   6.013  16.643  0.00  0.00    +0.000 A 
ATOM     14  C   UNL     1       5.379   5.658  15.334  0.00  0.00    +0.000 A 
ATOM     15  C   UNL     1       6.571   4.975  15.082  0.00  0.00    +0.000 A 
ATOM     16  C   UNL     1       7.411   4.607  16.137  0.00  0.00    +0.000 A 
BRANCH  15  17
ATOM     17  C   UNL     1       6.946   4.607  13.692  0.00  0.00    +0.000 C 
ATOM     18  N   UNL     1       7.792   5.288  12.987  0.00  0.00    +0.000 NA
ATOM     19  N   UNL     1       6.388   3.513  13.100  0.00  0.00    +0.000 N 
ATOM     20  H   UNL     1       8.198   6.057  13.532  0.00  0.00    +0.000 HD
ATOM     21  H   UNL     1       5.413   3.341  13.314  0.00  0.00    +0.000 HD
ATOM     22  H   UNL     1       6.573   3.513  12.100  0.00  0.00    +0.000 HD
ENDBRANCH  15  17
BRANCH  11  24
ATOM     23  C   UNL     1       7.922   5.614  19.555  0.00  0.00    +0.000 C 
ATOM     24  O   UNL     1       7.786   4.600  18.565  0.00  0.00    +0.000 OA
ENDBRANCH  11  24
ENDBRANCH  10  13
ENDBRANCH   1  10
BRANCH   3  25
ATOM     25  O   UNL     1       2.090   7.325  21.207  0.00  0.00    +0.000 OA
BRANCH  25  26
ATOM     26  C   UNL     1       1.142   8.323  21.184  0.00  0.00    +0.000 A 
ATOM     27  C   UNL     1       0.416   8.478  22.364  0.00  0.00    +0.000 A 
ATOM     28  C   UNL     1      -0.512   9.507  22.471  0.00  0.00    +0.000 A 
ATOM     29  C   UNL     1      -0.718  10.368  21.391  0.00  0.00    +0.000 A 
ATOM     30  C   UNL     1      -0.028  10.193  20.177  0.00  0.00    +0.000 A 
ATOM     31  C   UNL     1       0.891   9.149  20.079  0.00  0.00    +0.000 A 
BRANCH  30  32
ATOM     32  C   UNL     1      -0.194  11.257  19.140  0.00  0.00    +0.000 C 
ATOM     33  O   UNL     1      -0.814  10.918  18.127  0.00  0.00    +0.000 OA
ATOM     34  N   UNL     1       0.284  12.563  19.287  0.00  0.00    +0.000 N 
ATOM     35  C   UNL     1       1.143  13.088  20.338  0.00  0.00    +0.000 C 
ATOM     36  C   UNL     1      -0.070  13.527  18.253  0.00  0.00    +0.000 C 
ENDBRANCH  30  32
ENDBRANCH  25  26
ENDBRANCH   3  25
TORSDOF 7
ENDMDL
MODEL 9
REMARK VINA RESULT:      -8.5      2.206      7.767
REMARK  Name = 
REMARK  11 active torsions:
REMARK  status: ('A' for Active; 'I' for Inactive)
REMARK    1  A    between atoms: C_1  and  O_2
REMARK    2  A    between atoms: O_2  and  C_3
REMARK    3  A    between atoms: C_5  and  O_6
REMARK    4  A    between atoms: O_6  and  C_7
REMARK    5  A    between atoms: C_9  and  O_10
REMARK    6  A    between atoms: O_10  and  C_11
REMARK    7  A    between atoms: C_15  and  C_16
REMARK    8  A    between atoms: N_18  and  C_19
REMARK    9  A    between atoms: N_18  and  C_20
REMARK   10  A    between atoms: C_24  and  C_25
REMARK   11  A    between atoms: C_29  and  C_30
REMARK                            x       y       z     vdW  Elec       q    Type
REMARK                         _______ _______ _______ _____ _____    ______ ____
ROOT
ATOM      1  C   UNL     1       1.854   6.104  20.046  0.00  0.00    +0.000 A 
ATOM      2  N   UNL     1       2.650   6.691  19.121  0.00  0.00    +0.000 NA
ATOM      3  C   UNL     1       3.068   5.927  18.094  0.00  0.00    +0.000 A 
ATOM      4  C   UNL     1       2.725   4.576  17.975  0.00  0.00    +0.000 A 
ATOM      5  F   UNL     1       3.247   3.809  17.007  0.00  0.00    +0.000 F 
ATOM      6  C   UNL     1       1.805   4.017  18.857  0.00  0.00    +0.000 A 
ATOM      7  C   UNL     1       1.324   2.612  18.678  0.00  0.00    +0.000 C 
ATOM      8  C   UNL     1       1.375   4.800  19.924  0.00  0.00    +0.000 A 
ATOM      9  F   UNL     1       0.530   4.294  20.831  0.00  0.00    +0.000 F 
ENDROOT
BRANCH   1  10
ATOM     10  O   UNL     1       1.500   6.820  21.179  0.00  0.00    +0.000 OA
BRANCH  10  13
ATOM     11  C   UNL     1      -0.231   9.945  21.986  0.00  0.00    +0.000 A 
ATOM     12  C   UNL     1       0.271   8.641  22.059  0.00  0.00    +0.000 A 
ATOM     13  C   UNL     1       1.015   8.103  21.004  0.00  0.00    +0.000 A 
ATOM     14  C   UNL     1       1.295   8.894  19.886  0.00  0.00    +0.000 A 
ATOM     15  C   UNL     1       0.781  10.189  19.803  0.00  0.00    +0.000 A 
ATOM     16  C   UNL     1       0.019  10.716  20.851  0.00  0.00    +0.000 A 
BRANCH  15  17
ATOM     17  C   UNL     1       1.060  11.033  18.612  0.00  0.00    +0.000 C 
ATOM     18  N   UNL     1       1.838  10.655  17.648  0.00  0.00    +0.000 NA
ATOM     19  N   UNL     1       0.496  12.269  18.502  0.00  0.00    +0.000 N 
ATOM     20  H   UNL     1       2.171   9.696  17.792  0.00  0.00    +0.000 HD
ATOM     21  H   UNL     1       0.414  12.799  19.362  0.00  0.00    +0.000 HD
ATOM     22  H   UNL     1       0.941  12.801  17.759  0.00  0.00    +0.000 HD
ENDBRANCH  15  17
BRANCH  11  24
ATOM     23  C   UNL     1      -1.419  11.696  23.070  0.00  0.00    +0.000 C 
ATOM     24  O   UNL     1      -0.941  10.355  23.083  0.00  0.00    +0.000 OA
ENDBRANCH  11  24
ENDBRANCH  10  13
ENDBRANCH   1  10
BRANCH   3  25
ATOM     25  O   UNL     1       3.909   6.586  17.232  0.00  0.00    +0.000 OA
BRANCH  25  26
ATOM     26  C   UNL     1       5.101   6.004  16.866  0.00  0.00    +0.000 A 
ATOM     27  C   UNL     1       5.840   5.458  17.915  0.00  0.00    +0.000 A 
ATOM     28  C   UNL     1       7.023   4.778  17.644  0.00  0.00    +0.000 A 
ATOM     29  C   UNL     1       7.466   4.661  16.325  0.00  0.00    +0.000 A 
ATOM     30  C   UNL     1       6.756   5.249  15.261  0.00  0.00    +0.000 A 
ATOM     31  C   UNL     1       5.578   5.938  15.548  0.00  0.00    +0.000 A 
BRANCH  30  32
ATOM     32  C   UNL     1       7.219   4.932  13.876  0.00  0.00    +0.000 C 
ATOM     33  O   UNL     1       8.268   5.484  13.528  0.00  0.00    +0.000 OA
ATOM     34  N   UNL     1       6.548   4.056  13.017  0.00  0.00    +0.000 N 
ATOM     35  C   UNL     1       5.245   3.437  13.210  0.00  0.00    +0.000 C 
ATOM     36  C   UNL     1       7.189   3.738  11.747  0.00  0.00    +0.000 C 
ENDBRANCH  30  32
ENDBRANCH  25  26
ENDBRANCH   3  25
TORSDOF 7
ENDMDL
