MODEL 1
REMARK VINA RESULT:      -7.5      0.000      0.000
REMARK  Name = 
REMARK  11 active torsions:
REMARK  status: ('A' for Active; 'I' for Inactive)
REMARK    1  A    between atoms: C_1  and  C_2
REMARK    2  A    between atoms: C_2  and  O_3
REMARK    3  A    between atoms: O_3  and  C_4
REMARK    4  A    between atoms: C_4  and  C_6
REMARK    5  A    between atoms: C_9  and  N_10
REMARK    6  A    between atoms: N_10  and  P_11
REMARK    7  A    between atoms: P_11  and  C_12
REMARK    8  A    between atoms: P_11  and  O_14
REMARK    9  A    between atoms: O_14  and  C_15
REMARK   10  A    between atoms: C_18  and  O_19
REMARK   11  A    between atoms: O_19  and  C_20
REMARK                            x       y       z     vdW  Elec       q    Type
REMARK                         _______ _______ _______ _____ _____    ______ ____
ROOT
ATOM      1  N   UNL     1       5.518   5.893  17.614  0.00  0.00    +0.000 N 
ATOM      2  H   UNL     1       5.533   6.506  18.425  0.00  0.00    +0.000 HD
ENDROOT
BRANCH   1   6
ATOM      3  C   UNL     1       2.289   3.286  18.371  0.00  0.00    +0.000 A 
ATOM      4  C   UNL     1       2.046   4.666  18.246  0.00  0.00    +0.000 A 
ATOM      5  C   UNL     1       3.083   5.563  17.929  0.00  0.00    +0.000 A 
ATOM      6  C   UNL     1       4.372   5.095  17.737  0.00  0.00    +0.000 A 
ATOM      7  C   UNL     1       4.587   3.701  17.789  0.00  0.00    +0.000 A 
ATOM      8  C   UNL     1       3.566   2.800  18.099  0.00  0.00    +0.000 A 
BRANCH   3   9
ATOM      9  C   UNL     1       1.207   2.420  18.895  0.00  0.00    +0.000 C 
ATOM     10  O   UNL     1       0.140   2.268  18.317  0.00  0.00    +0.000 OA
BRANCH   9  11
ATOM     11  O   UNL     1       1.506   1.973  20.144  0.00  0.00    +0.000 OA
BRANCH  11  13
ATOM     12  C   UNL     1       2.369   3.423  21.833  0.00  0.00    +0.000 C 
ATOM     13  C   UNL     1       1.110   2.834  21.222  0.00  0.00    +0.000 C 
ENDBRANCH  11  13
ENDBRANCH   9  11
ENDBRANCH   3   9
ENDBRANCH   1   6
BRANCH   1  14
ATOM     14  P   UNL     1       7.019   5.890  16.985  0.00  0.00    +0.000 P 
ATOM     15  C   UNL     1       7.358   7.594  17.491  0.00  0.00    +0.000 C 
ATOM     16  O   UNL     1       8.012   4.987  17.664  0.00  0.00    +0.000 OA
BRANCH  14  17
ATOM     17  O   UNL     1       7.241   5.875  15.389  0.00  0.00    +0.000 OA
BRANCH  17  18
ATOM     18  C   UNL     1       6.933   4.930  14.453  0.00  0.00    +0.000 A 
ATOM     19  C   UNL     1       5.783   4.142  14.563  0.00  0.00    +0.000 A 
ATOM     20  C   UNL     1       5.347   3.372  13.465  0.00  0.00    +0.000 A 
ATOM     21  C   UNL     1       6.028   3.419  12.245  0.00  0.00    +0.000 A 
ATOM     22  C   UNL     1       7.179   4.206  12.153  0.00  0.00    +0.000 A 
ATOM     23  C   UNL     1       7.618   4.949  13.248  0.00  0.00    +0.000 A 
BRANCH  21  24
ATOM     24  O   UNL     1       5.509   2.675  11.223  0.00  0.00    +0.000 OA
ATOM     25  C   UNL     1       5.969   1.327  11.126  0.00  0.00    +0.000 C 
ENDBRANCH  21  24
ENDBRANCH  17  18
ENDBRANCH  14  17
ENDBRANCH   1  14
TORSDOF 8
ENDMDL
MODEL 2
REMARK VINA RESULT:      -7.2      1.753      6.738
REMARK  Name = 
REMARK  11 active torsions:
REMARK  status: ('A' for Active; 'I' for Inactive)
REMARK    1  A    between atoms: C_1  and  C_2
REMARK    2  A    between atoms: C_2  and  O_3
REMARK    3  A    between atoms: O_3  and  C_4
REMARK    4  A    between atoms: C_4  and  C_6
REMARK    5  A    between atoms: C_9  and  N_10
REMARK    6  A    between atoms: N_10  and  P_11
REMARK    7  A    between atoms: P_11  and  C_12
REMARK    8  A    between atoms: P_11  and  O_14
REMARK    9  A    between atoms: O_14  and  C_15
REMARK   10  A    between atoms: C_18  and  O_19
REMARK   11  A    between atoms: O_19  and  C_20
REMARK                            x       y       z     vdW  Elec       q    Type
REMARK                         _______ _______ _______ _____ _____    ______ ____
ROOT
ATOM      1  N   UNL     1       6.877   6.111  16.051  0.00  0.00    +0.000 N 
ATOM      2  H   UNL     1       6.534   7.009  15.719  0.00  0.00    +0.000 HD
ENDROOT
BRANCH   1   6
ATOM      3  C   UNL     1       5.712   3.560  12.901  0.00  0.00    +0.000 A 
ATOM      4  C   UNL     1       6.973   4.182  12.853  0.00  0.00    +0.000 A 
ATOM      5  C   UNL     1       7.429   4.988  13.914  0.00  0.00    +0.000 A 
ATOM      6  C   UNL     1       6.631   5.185  15.028  0.00  0.00    +0.000 A 
ATOM      7  C   UNL     1       5.403   4.493  15.097  0.00  0.00    +0.000 A 
ATOM      8  C   UNL     1       4.941   3.688  14.055  0.00  0.00    +0.000 A 
BRANCH   3   9
ATOM      9  C   UNL     1       5.207   2.886  11.682  0.00  0.00    +0.000 C 
ATOM     10  O   UNL     1       5.517   1.743  11.378  0.00  0.00    +0.000 OA
BRANCH   9  11
ATOM     11  O   UNL     1       4.509   3.755  10.903  0.00  0.00    +0.000 OA
BRANCH  11  13
ATOM     12  C   UNL     1       2.690   4.325   9.465  0.00  0.00    +0.000 C 
ATOM     13  C   UNL     1       3.266   3.260  10.382  0.00  0.00    +0.000 C 
ENDBRANCH  11  13
ENDBRANCH   9  11
ENDBRANCH   3   9
ENDBRANCH   1   6
BRANCH   1  14
ATOM     14  P   UNL     1       7.032   6.223  17.668  0.00  0.00    +0.000 P 
ATOM     15  C   UNL     1       7.795   4.589  17.822  0.00  0.00    +0.000 C 
ATOM     16  O   UNL     1       8.011   7.253  18.162  0.00  0.00    +0.000 OA
BRANCH  14  17
ATOM     17  O   UNL     1       5.735   6.171  18.623  0.00  0.00    +0.000 OA
BRANCH  17  18
ATOM     18  C   UNL     1       4.696   5.288  18.671  0.00  0.00    +0.000 A 
ATOM     19  C   UNL     1       3.487   5.548  18.018  0.00  0.00    +0.000 A 
ATOM     20  C   UNL     1       2.536   4.520  17.855  0.00  0.00    +0.000 A 
ATOM     21  C   UNL     1       2.804   3.222  18.302  0.00  0.00    +0.000 A 
ATOM     22  C   UNL     1       4.014   2.980  18.958  0.00  0.00    +0.000 A 
ATOM     23  C   UNL     1       4.943   4.005  19.135  0.00  0.00    +0.000 A 
BRANCH  21  24
ATOM     24  O   UNL     1       1.845   2.280  18.063  0.00  0.00    +0.000 OA
ATOM     25  C   UNL     1       0.622   2.424  18.786  0.00  0.00    +0.000 C 
ENDBRANCH  21  24
ENDBRANCH  17  18
ENDBRANCH  14  17
ENDBRANCH   1  14
TORSDOF 8
ENDMDL
MODEL 3
REMARK VINA RESULT:      -6.9      3.438      6.085
REMARK  Name = 
REMARK  11 active torsions:
REMARK  status: ('A' for Active; 'I' for Inactive)
REMARK    1  A    between atoms: C_1  and  C_2
REMARK    2  A    between atoms: C_2  and  O_3
REMARK    3  A    between atoms: O_3  and  C_4
REMARK    4  A    between atoms: C_4  and  C_6
REMARK    5  A    between atoms: C_9  and  N_10
REMARK    6  A    between atoms: N_10  and  P_11
REMARK    7  A    between atoms: P_11  and  C_12
REMARK    8  A    between atoms: P_11  and  O_14
REMARK    9  A    between atoms: O_14  and  C_15
REMARK   10  A    between atoms: C_18  and  O_19
REMARK   11  A    between atoms: O_19  and  C_20
REMARK                            x       y       z     vdW  Elec       q    Type
REMARK                         _______ _______ _______ _____ _____    ______ ____
ROOT
ATOM      1  N   UNL     1       5.211   6.149  17.470  0.00  0.00    +0.000 N 
ATOM      2  H   UNL     1       5.947   6.417  18.119  0.00  0.00    +0.000 HD
ENDROOT
BRANCH   1   6
ATOM      3  C   UNL     1       1.940   8.213  19.153  0.00  0.00    +0.000 A 
ATOM      4  C   UNL     1       2.455   8.633  17.912  0.00  0.00    +0.000 A 
ATOM      5  C   UNL     1       3.503   7.933  17.284  0.00  0.00    +0.000 A 
ATOM      6  C   UNL     1       4.049   6.812  17.886  0.00  0.00    +0.000 A 
ATOM      7  C   UNL     1       3.471   6.358  19.091  0.00  0.00    +0.000 A 
ATOM      8  C   UNL     1       2.430   7.040  19.723  0.00  0.00    +0.000 A 
BRANCH   3   9
ATOM      9  C   UNL     1       0.978   9.094  19.855  0.00  0.00    +0.000 C 
ATOM     10  O   UNL     1       0.177   9.806  19.266  0.00  0.00    +0.000 OA
BRANCH   9  11
ATOM     11  O   UNL     1       1.225   9.112  21.192  0.00  0.00    +0.000 OA
BRANCH  11  13
ATOM     12  C   UNL     1      -0.503   9.366  22.821  0.00  0.00    +0.000 C 
ATOM     13  C   UNL     1       0.499  10.096  21.943  0.00  0.00    +0.000 C 
ENDBRANCH  11  13
ENDBRANCH   9  11
ENDBRANCH   3   9
ENDBRANCH   1   6
BRANCH   1  14
ATOM     14  P   UNL     1       5.714   4.806  16.700  0.00  0.00    +0.000 P 
ATOM     15  C   UNL     1       5.496   5.528  15.056  0.00  0.00    +0.000 C 
ATOM     16  O   UNL     1       7.166   4.454  16.876  0.00  0.00    +0.000 OA
BRANCH  14  17
ATOM     17  O   UNL     1       4.807   3.474  16.696  0.00  0.00    +0.000 OA
BRANCH  17  18
ATOM     18  C   UNL     1       3.819   3.063  17.542  0.00  0.00    +0.000 A 
ATOM     19  C   UNL     1       4.111   2.544  18.808  0.00  0.00    +0.000 A 
ATOM     20  C   UNL     1       3.085   2.379  19.760  0.00  0.00    +0.000 A 
ATOM     21  C   UNL     1       1.774   2.772  19.470  0.00  0.00    +0.000 A 
ATOM     22  C   UNL     1       1.496   3.282  18.199  0.00  0.00    +0.000 A 
ATOM     23  C   UNL     1       2.512   3.424  17.254  0.00  0.00    +0.000 A 
BRANCH  21  24
ATOM     24  O   UNL     1       0.852   2.617  20.466  0.00  0.00    +0.000 OA
ATOM     25  C   UNL     1       1.351   2.669  21.803  0.00  0.00    +0.000 C 
ENDBRANCH  21  24
ENDBRANCH  17  18
ENDBRANCH  14  17
ENDBRANCH   1  14
TORSDOF 8
ENDMDL
MODEL 4
REMARK VINA RESULT:      -6.9      4.696      7.038
REMARK  Name = 
REMARK  11 active torsions:
REMARK  status: ('A' for Active; 'I' for Inactive)
REMARK    1  A    between atoms: C_1  and  C_2
REMARK    2  A    between atoms: C_2  and  O_3
REMARK    3  A    between atoms: O_3  and  C_4
REMARK    4  A    between atoms: C_4  and  C_6
REMARK    5  A    between atoms: C_9  and  N_10
REMARK    6  A    between atoms: N_10  and  P_11
REMARK    7  A    between atoms: P_11  and  C_12
REMARK    8  A    between atoms: P_11  and  O_14
REMARK    9  A    between atoms: O_14  and  C_15
REMARK   10  A    between atoms: C_18  and  O_19
REMARK   11  A    between atoms: O_19  and  C_20
REMARK                            x       y       z     vdW  Elec       q    Type
REMARK                         _______ _______ _______ _____ _____    ______ ____
ROOT
ATOM      1  N   UNL     1       2.397   6.194  20.467  0.00  0.00    +0.000 N 
ATOM      2  H   UNL     1       2.203   5.977  21.441  0.00  0.00    +0.000 HD
ENDROOT
BRANCH   1   6
ATOM      3  C   UNL     1       0.747   9.937  19.438  0.00  0.00    +0.000 A 
ATOM      4  C   UNL     1       0.665   9.491  20.770  0.00  0.00    +0.000 A 
ATOM      5  C   UNL     1       1.259   8.279  21.170  0.00  0.00    +0.000 A 
ATOM      6  C   UNL     1       1.937   7.500  20.248  0.00  0.00    +0.000 A 
ATOM      7  C   UNL     1       2.079   7.997  18.935  0.00  0.00    +0.000 A 
ATOM      8  C   UNL     1       1.498   9.199  18.526  0.00  0.00    +0.000 A 
BRANCH   3   9
ATOM      9  C   UNL     1      -0.057  11.114  19.034  0.00  0.00    +0.000 C 
ATOM     10  O   UNL     1      -1.273  11.163  19.162  0.00  0.00    +0.000 OA
BRANCH   9  11
ATOM     11  O   UNL     1       0.711  12.023  18.376  0.00  0.00    +0.000 OA
BRANCH  11  13
ATOM     12  C   UNL     1       2.660  13.399  18.291  0.00  0.00    +0.000 C 
ATOM     13  C   UNL     1       1.602  12.792  19.196  0.00  0.00    +0.000 C 
ENDBRANCH  11  13
ENDBRANCH   9  11
ENDBRANCH   3   9
ENDBRANCH   1   6
BRANCH   1  14
ATOM     14  P   UNL     1       2.654   4.781  19.702  0.00  0.00    +0.000 P 
ATOM     15  C   UNL     1       2.321   3.789  21.178  0.00  0.00    +0.000 C 
ATOM     16  O   UNL     1       1.646   4.415  18.647  0.00  0.00    +0.000 OA
BRANCH  14  17
ATOM     17  O   UNL     1       4.138   4.356  19.237  0.00  0.00    +0.000 OA
BRANCH  17  18
ATOM     18  C   UNL     1       5.090   5.048  18.547  0.00  0.00    +0.000 A 
ATOM     19  C   UNL     1       4.746   5.963  17.547  0.00  0.00    +0.000 A 
ATOM     20  C   UNL     1       5.714   6.854  17.041  0.00  0.00    +0.000 A 
ATOM     21  C   UNL     1       7.014   6.866  17.558  0.00  0.00    +0.000 A 
ATOM     22  C   UNL     1       7.344   5.941  18.552  0.00  0.00    +0.000 A 
ATOM     23  C   UNL     1       6.388   5.048  19.035  0.00  0.00    +0.000 A 
BRANCH  21  24
ATOM     24  O   UNL     1       7.873   7.792  17.039  0.00  0.00    +0.000 OA
ATOM     25  C   UNL     1       8.018   9.005  17.777  0.00  0.00    +0.000 C 
ENDBRANCH  21  24
ENDBRANCH  17  18
ENDBRANCH  14  17
ENDBRANCH   1  14
TORSDOF 8
ENDMDL
MODEL 5
REMARK VINA RESULT:      -6.9      3.360      7.671
REMARK  Name = 
REMARK  11 active torsions:
REMARK  status: ('A' for Active; 'I' for Inactive)
REMARK    1  A    between atoms: C_1  and  C_2
REMARK    2  A    between atoms: C_2  and  O_3
REMARK    3  A    between atoms: O_3  and  C_4
REMARK    4  A    between atoms: C_4  and  C_6
REMARK    5  A    between atoms: C_9  and  N_10
REMARK    6  A    between atoms: N_10  and  P_11
REMARK    7  A    between atoms: P_11  and  C_12
REMARK    8  A    between atoms: P_11  and  O_14
REMARK    9  A    between atoms: O_14  and  C_15
REMARK   10  A    between atoms: C_18  and  O_19
REMARK   11  A    between atoms: O_19  and  C_20
REMARK                            x       y       z     vdW  Elec       q    Type
REMARK                         _______ _______ _______ _____ _____    ______ ____
ROOT
ATOM      1  N   UNL     1       3.065   3.567  19.431  0.00  0.00    +0.000 N 
ATOM      2  H   UNL     1       2.957   2.557  19.384  0.00  0.00    +0.000 HD
ENDROOT
BRANCH   1   6
ATOM      3  C   UNL     1       6.110   4.909  16.838  0.00  0.00    +0.000 A 
ATOM      4  C   UNL     1       6.402   4.713  18.200  0.00  0.00    +0.000 A 
ATOM      5  C   UNL     1       5.434   4.204  19.087  0.00  0.00    +0.000 A 
ATOM      6  C   UNL     1       4.167   3.890  18.626  0.00  0.00    +0.000 A 
ATOM      7  C   UNL     1       3.912   4.017  17.244  0.00  0.00    +0.000 A 
ATOM      8  C   UNL     1       4.864   4.517  16.353  0.00  0.00    +0.000 A 
BRANCH   3   9
ATOM      9  C   UNL     1       7.097   5.625  15.997  0.00  0.00    +0.000 C 
ATOM     10  O   UNL     1       7.339   5.307  14.840  0.00  0.00    +0.000 OA
BRANCH   9  11
ATOM     11  O   UNL     1       7.783   6.542  16.729  0.00  0.00    +0.000 OA
BRANCH  11  13
ATOM     12  C   UNL     1       7.962   8.661  17.816  0.00  0.00    +0.000 C 
ATOM     13  C   UNL     1       7.003   7.630  17.247  0.00  0.00    +0.000 C 
ENDBRANCH  11  13
ENDBRANCH   9  11
ENDBRANCH   3   9
ENDBRANCH   1   6
BRANCH   1  14
ATOM     14  P   UNL     1       2.239   4.080  20.736  0.00  0.00    +0.000 P 
ATOM     15  C   UNL     1       0.629   3.665  20.021  0.00  0.00    +0.000 C 
ATOM     16  O   UNL     1       2.425   3.269  21.989  0.00  0.00    +0.000 OA
BRANCH  14  17
ATOM     17  O   UNL     1       2.149   5.651  21.086  0.00  0.00    +0.000 OA
BRANCH  17  18
ATOM     18  C   UNL     1       1.824   6.723  20.307  0.00  0.00    +0.000 A 
ATOM     19  C   UNL     1       1.198   7.852  20.844  0.00  0.00    +0.000 A 
ATOM     20  C   UNL     1       1.116   9.041  20.091  0.00  0.00    +0.000 A 
ATOM     21  C   UNL     1       1.695   9.121  18.820  0.00  0.00    +0.000 A 
ATOM     22  C   UNL     1       2.310   7.983  18.295  0.00  0.00    +0.000 A 
ATOM     23  C   UNL     1       2.371   6.803  19.036  0.00  0.00    +0.000 A 
BRANCH  21  24
ATOM     24  O   UNL     1       1.606  10.325  18.180  0.00  0.00    +0.000 OA
ATOM     25  C   UNL     1       1.482  11.477  19.014  0.00  0.00    +0.000 C 
ENDBRANCH  21  24
ENDBRANCH  17  18
ENDBRANCH  14  17
ENDBRANCH   1  14
TORSDOF 8
ENDMDL
MODEL 6
REMARK VINA RESULT:      -6.8      4.428      6.373
REMARK  Name = 
REMARK  11 active torsions:
REMARK  status: ('A' for Active; 'I' for Inactive)
REMARK    1  A    between atoms: C_1  and  C_2
REMARK    2  A    between atoms: C_2  and  O_3
REMARK    3  A    between atoms: O_3  and  C_4
REMARK    4  A    between atoms: C_4  and  C_6
REMARK    5  A    between atoms: C_9  and  N_10
REMARK    6  A    between atoms: N_10  and  P_11
REMARK    7  A    between atoms: P_11  and  C_12
REMARK    8  A    between atoms: P_11  and  O_14
REMARK    9  A    between atoms: O_14  and  C_15
REMARK   10  A    between atoms: C_18  and  O_19
REMARK   11  A    between atoms: O_19  and  C_20
REMARK                            x       y       z     vdW  Elec       q    Type
REMARK                         _______ _______ _______ _____ _____    ______ ____
ROOT
ATOM      1  N   UNL     1       2.476   5.161  19.603  0.00  0.00    +0.000 N 
ATOM      2  H   UNL     1       2.328   4.794  20.539  0.00  0.00    +0.000 HD
ENDROOT
BRANCH   1   6
ATOM      3  C   UNL     1       1.326   9.213  19.386  0.00  0.00    +0.000 A 
ATOM      4  C   UNL     1       1.187   8.522  20.603  0.00  0.00    +0.000 A 
ATOM      5  C   UNL     1       1.619   7.189  20.738  0.00  0.00    +0.000 A 
ATOM      6  C   UNL     1       2.189   6.532  19.661  0.00  0.00    +0.000 A 
ATOM      7  C   UNL     1       2.393   7.261  18.469  0.00  0.00    +0.000 A 
ATOM      8  C   UNL     1       1.973   8.585  18.324  0.00  0.00    +0.000 A 
BRANCH   3   9
ATOM      9  C   UNL     1       0.681  10.540  19.246  0.00  0.00    +0.000 C 
ATOM     10  O   UNL     1      -0.147  10.788  18.380  0.00  0.00    +0.000 OA
BRANCH   9  11
ATOM     11  O   UNL     1       1.248  11.445  20.087  0.00  0.00    +0.000 OA
BRANCH  11  13
ATOM     12  C   UNL     1      -0.325  11.582  21.878  0.00  0.00    +0.000 C 
ATOM     13  C   UNL     1       0.336  12.341  20.741  0.00  0.00    +0.000 C 
ENDBRANCH  11  13
ENDBRANCH   9  11
ENDBRANCH   3   9
ENDBRANCH   1   6
BRANCH   1  14
ATOM     14  P   UNL     1       2.471   3.893  18.582  0.00  0.00    +0.000 P 
ATOM     15  C   UNL     1       2.361   2.674  19.914  0.00  0.00    +0.000 C 
ATOM     16  O   UNL     1       1.250   3.757  17.713  0.00  0.00    +0.000 OA
BRANCH  14  17
ATOM     17  O   UNL     1       3.798   3.496  17.758  0.00  0.00    +0.000 OA
BRANCH  17  18
ATOM     18  C   UNL     1       4.889   4.238  17.411  0.00  0.00    +0.000 A 
ATOM     19  C   UNL     1       4.943   4.932  16.198  0.00  0.00    +0.000 A 
ATOM     20  C   UNL     1       5.948   5.897  15.979  0.00  0.00    +0.000 A 
ATOM     21  C   UNL     1       6.874   6.203  16.983  0.00  0.00    +0.000 A 
ATOM     22  C   UNL     1       6.810   5.496  18.186  0.00  0.00    +0.000 A 
ATOM     23  C   UNL     1       5.827   4.528  18.390  0.00  0.00    +0.000 A 
BRANCH  21  24
ATOM     24  O   UNL     1       7.784   7.181  16.700  0.00  0.00    +0.000 OA
ATOM     25  C   UNL     1       7.886   8.244  17.648  0.00  0.00    +0.000 C 
ENDBRANCH  21  24
ENDBRANCH  17  18
ENDBRANCH  14  17
ENDBRANCH   1  14
TORSDOF 8
ENDMDL
MODEL 7
REMARK VINA RESULT:      -6.8      1.741      7.096
REMARK  Name = 
REMARK  11 active torsions:
REMARK  status: ('A' for Active; 'I' for Inactive)
REMARK    1  A    between atoms: C_1  and  C_2
REMARK    2  A    between atoms: C_2  and  O_3
REMARK    3  A    between atoms: O_3  and  C_4
REMARK    4  A    between atoms: C_4  and  C_6
REMARK    5  A    between atoms: C_9  and  N_10
REMARK    6  A    between atoms: N_10  and  P_11
REMARK    7  A    between atoms: P_11  and  C_12
REMARK    8  A    between atoms: P_11  and  O_14
REMARK    9  A    between atoms: O_14  and  C_15
REMARK   10  A    between atoms: C_18  and  O_19
REMARK   11  A    between atoms: O_19  and  C_20
REMARK                            x       y       z     vdW  Elec       q    Type
REMARK                         _______ _______ _______ _____ _____    ______ ____
ROOT
ATOM      1  N   UNL     1       7.181   5.654  16.048  0.00  0.00    +0.000 N 
ATOM      2  H   UNL     1       8.151   5.847  15.812  0.00  0.00    +0.000 HD
ENDROOT
BRANCH   1   6
ATOM      3  C   UNL     1       5.887   3.457  12.688  0.00  0.00    +0.000 A 
ATOM      4  C   UNL     1       5.039   3.572  13.804  0.00  0.00    +0.000 A 
ATOM      5  C   UNL     1       5.403   4.350  14.920  0.00  0.00    +0.000 A 
ATOM      6  C   UNL     1       6.617   5.016  14.935  0.00  0.00    +0.000 A 
ATOM      7  C   UNL     1       7.422   4.956  13.777  0.00  0.00    +0.000 A 
ATOM      8  C   UNL     1       7.071   4.191  12.663  0.00  0.00    +0.000 A 
BRANCH   3   9
ATOM      9  C   UNL     1       5.542   2.476  11.632  0.00  0.00    +0.000 C 
ATOM     10  O   UNL     1       6.359   1.704  11.150  0.00  0.00    +0.000 OA
BRANCH   9  11
ATOM     11  O   UNL     1       4.273   2.672  11.186  0.00  0.00    +0.000 OA
BRANCH  11  13
ATOM     12  C   UNL     1       2.905   3.820   9.601  0.00  0.00    +0.000 C 
ATOM     13  C   UNL     1       4.000   3.972  10.641  0.00  0.00    +0.000 C 
ENDBRANCH  11  13
ENDBRANCH   9  11
ENDBRANCH   3   9
ENDBRANCH   1   6
BRANCH   1  14
ATOM     14  P   UNL     1       6.795   6.604  17.312  0.00  0.00    +0.000 P 
ATOM     15  C   UNL     1       7.828   5.676  18.472  0.00  0.00    +0.000 C 
ATOM     16  O   UNL     1       7.305   8.018  17.248  0.00  0.00    +0.000 OA
BRANCH  14  17
ATOM     17  O   UNL     1       5.314   6.565  17.947  0.00  0.00    +0.000 OA
BRANCH  17  18
ATOM     18  C   UNL     1       4.681   5.603  18.678  0.00  0.00    +0.000 A 
ATOM     19  C   UNL     1       3.571   5.904  19.475  0.00  0.00    +0.000 A 
ATOM     20  C   UNL     1       2.776   4.866  20.002  0.00  0.00    +0.000 A 
ATOM     21  C   UNL     1       3.058   3.529  19.702  0.00  0.00    +0.000 A 
ATOM     22  C   UNL     1       4.174   3.244  18.911  0.00  0.00    +0.000 A 
ATOM     23  C   UNL     1       4.969   4.274  18.408  0.00  0.00    +0.000 A 
BRANCH  21  24
ATOM     24  O   UNL     1       2.210   2.592  20.220  0.00  0.00    +0.000 OA
ATOM     25  C   UNL     1       1.844   2.758  21.590  0.00  0.00    +0.000 C 
ENDBRANCH  21  24
ENDBRANCH  17  18
ENDBRANCH  14  17
ENDBRANCH   1  14
TORSDOF 8
ENDMDL
MODEL 8
REMARK VINA RESULT:      -6.8      2.959      3.580
REMARK  Name = 
REMARK  11 active torsions:
REMARK  status: ('A' for Active; 'I' for Inactive)
REMARK    1  A    between atoms: C_1  and  C_2
REMARK    2  A    between atoms: C_2  and  O_3
REMARK    3  A    between atoms: O_3  and  C_4
REMARK    4  A    between atoms: C_4  and  C_6
REMARK    5  A    between atoms: C_9  and  N_10
REMARK    6  A    between atoms: N_10  and  P_11
REMARK    7  A    between atoms: P_11  and  C_12
REMARK    8  A    between atoms: P_11  and  O_14
REMARK    9  A    between atoms: O_14  and  C_15
REMARK   10  A    between atoms: C_18  and  O_19
REMARK   11  A    between atoms: O_19  and  C_20
REMARK                            x       y       z     vdW  Elec       q    Type
REMARK                         _______ _______ _______ _____ _____    ______ ____
ROOT
ATOM      1  N   UNL     1       5.666   5.243  17.719  0.00  0.00    +0.000 N 
ATOM      2  H   UNL     1       5.355   4.275  17.705  0.00  0.00    +0.000 HD
ENDROOT
BRANCH   1   6
ATOM      3  C   UNL     1       2.409   7.726  18.727  0.00  0.00    +0.000 A 
ATOM      4  C   UNL     1       3.072   7.922  17.501  0.00  0.00    +0.000 A 
ATOM      5  C   UNL     1       4.121   7.075  17.096  0.00  0.00    +0.000 A 
ATOM      6  C   UNL     1       4.521   6.028  17.909  0.00  0.00    +0.000 A 
ATOM      7  C   UNL     1       3.797   5.796  19.098  0.00  0.00    +0.000 A 
ATOM      8  C   UNL     1       2.753   6.626  19.510  0.00  0.00    +0.000 A 
BRANCH   3   9
ATOM      9  C   UNL     1       1.451   8.758  19.188  0.00  0.00    +0.000 C 
ATOM     10  O   UNL     1       1.070   9.677  18.475  0.00  0.00    +0.000 OA
BRANCH   9  11
ATOM     11  O   UNL     1       1.201   8.627  20.518  0.00  0.00    +0.000 OA
BRANCH  11  13
ATOM     12  C   UNL     1      -0.100   9.010  22.483  0.00  0.00    +0.000 C 
ATOM     13  C   UNL     1      -0.003   9.252  20.986  0.00  0.00    +0.000 C 
ENDBRANCH  11  13
ENDBRANCH   9  11
ENDBRANCH   3   9
ENDBRANCH   1   6
BRANCH   1  14
ATOM     14  P   UNL     1       7.150   5.282  17.052  0.00  0.00    +0.000 P 
ATOM     15  C   UNL     1       7.623   6.801  17.914  0.00  0.00    +0.000 C 
ATOM     16  O   UNL     1       8.088   4.184  17.475  0.00  0.00    +0.000 OA
BRANCH  14  17
ATOM     17  O   UNL     1       7.338   5.614  15.486  0.00  0.00    +0.000 OA
BRANCH  17  18
ATOM     18  C   UNL     1       6.794   5.032  14.378  0.00  0.00    +0.000 A 
ATOM     19  C   UNL     1       7.556   4.795  13.229  0.00  0.00    +0.000 A 
ATOM     20  C   UNL     1       7.056   3.961  12.208  0.00  0.00    +0.000 A 
ATOM     21  C   UNL     1       5.817   3.327  12.348  0.00  0.00    +0.000 A 
ATOM     22  C   UNL     1       5.065   3.579  13.498  0.00  0.00    +0.000 A 
ATOM     23  C   UNL     1       5.555   4.421  14.496  0.00  0.00    +0.000 A 
BRANCH  21  24
ATOM     24  O   UNL     1       5.432   2.502  11.330  0.00  0.00    +0.000 OA
ATOM     25  C   UNL     1       6.217   1.325  11.137  0.00  0.00    +0.000 C 
ENDBRANCH  21  24
ENDBRANCH  17  18
ENDBRANCH  14  17
ENDBRANCH   1  14
TORSDOF 8
ENDMDL
MODEL 9
REMARK VINA RESULT:      -6.8      4.622      6.369
REMARK  Name = 
REMARK  11 active torsions:
REMARK  status: ('A' for Active; 'I' for Inactive)
REMARK    1  A    between atoms: C_1  and  C_2
REMARK    2  A    between atoms: C_2  and  O_3
REMARK    3  A    between atoms: O_3  and  C_4
REMARK    4  A    between atoms: C_4  and  C_6
REMARK    5  A    between atoms: C_9  and  N_10
REMARK    6  A    between atoms: N_10  and  P_11
REMARK    7  A    between atoms: P_11  and  C_12
REMARK    8  A    between atoms: P_11  and  O_14
REMARK    9  A    between atoms: O_14  and  C_15
REMARK   10  A    between atoms: C_18  and  O_19
REMARK   11  A    between atoms: O_19  and  C_20
REMARK                            x       y       z     vdW  Elec       q    Type
REMARK                         _______ _______ _______ _____ _____    ______ ____
ROOT
ATOM      1  N   UNL     1       2.821   6.280  19.927  0.00  0.00    +0.000 N 
ATOM      2  H   UNL     1       3.373   6.316  20.781  0.00  0.00    +0.000 HD
ENDROOT
BRANCH   1   6
ATOM      3  C   UNL     1       0.621   9.809  19.222  0.00  0.00    +0.000 A 
ATOM      4  C   UNL     1       0.639   9.256  20.515  0.00  0.00    +0.000 A 
ATOM      5  C   UNL     1       1.412   8.117  20.810  0.00  0.00    +0.000 A 
ATOM      6  C   UNL     1       2.171   7.518  19.818  0.00  0.00    +0.000 A 
ATOM      7  C   UNL     1       2.205   8.129  18.547  0.00  0.00    +0.000 A 
ATOM      8  C   UNL     1       1.445   9.260  18.242  0.00  0.00    +0.000 A 
BRANCH   3   9
ATOM      9  C   UNL     1      -0.356  10.883  18.923  0.00  0.00    +0.000 C 
ATOM     10  O   UNL     1      -1.566  10.722  19.004  0.00  0.00    +0.000 OA
BRANCH   9  11
ATOM     11  O   UNL     1       0.268  11.976  18.409  0.00  0.00    +0.000 OA
BRANCH  11  13
ATOM     12  C   UNL     1       1.931  13.682  18.559  0.00  0.00    +0.000 C 
ATOM     13  C   UNL     1       1.015  12.763  19.348  0.00  0.00    +0.000 C 
ENDBRANCH  11  13
ENDBRANCH   9  11
ENDBRANCH   3   9
ENDBRANCH   1   6
BRANCH   1  14
ATOM     14  P   UNL     1       2.667   4.713  19.519  0.00  0.00    +0.000 P 
ATOM     15  C   UNL     1       2.211   4.202  21.194  0.00  0.00    +0.000 C 
ATOM     16  O   UNL     1       1.525   4.386  18.595  0.00  0.00    +0.000 OA
BRANCH  14  17
ATOM     17  O   UNL     1       3.963   3.828  19.150  0.00  0.00    +0.000 OA
BRANCH  17  18
ATOM     18  C   UNL     1       4.915   3.998  18.188  0.00  0.00    +0.000 A 
ATOM     19  C   UNL     1       4.627   3.803  16.833  0.00  0.00    +0.000 A 
ATOM     20  C   UNL     1       5.535   4.239  15.847  0.00  0.00    +0.000 A 
ATOM     21  C   UNL     1       6.710   4.907  16.205  0.00  0.00    +0.000 A 
ATOM     22  C   UNL     1       6.988   5.088  17.562  0.00  0.00    +0.000 A 
ATOM     23  C   UNL     1       6.096   4.636  18.534  0.00  0.00    +0.000 A 
BRANCH  21  24
ATOM     24  O   UNL     1       7.510   5.332  15.182  0.00  0.00    +0.000 OA
ATOM     25  C   UNL     1       7.168   4.868  13.876  0.00  0.00    +0.000 C 
ENDBRANCH  21  24
ENDBRANCH  17  18
ENDBRANCH  14  17
ENDBRANCH   1  14
TORSDOF 8
ENDMDL
