MODEL 1
REMARK VINA RESULT:      -9.0      0.000      0.000
REMARK  Name = 
REMARK  8 active torsions:
REMARK  status: ('A' for Active; 'I' for Inactive)
REMARK    1  A    between atoms: C_1  and  C_2
REMARK    2  A    between atoms: C_3  and  C_4
REMARK    3  A    between atoms: C_4  and  C_5
REMARK    4  A    between atoms: C_16  and  O_17
REMARK    5  A    between atoms: O_17  and  C_18
REMARK    6  A    between atoms: C_18  and  C_19
REMARK    7  A    between atoms: N_21  and  C_22
REMARK    8  A    between atoms: C_22  and  C_23
REMARK                            x       y       z     vdW  Elec       q    Type
REMARK                         _______ _______ _______ _____ _____    ______ ____
ROOT
ATOM      1  C   UNL     1       1.972   9.702  17.774  0.00  0.00    +0.000 C 
ATOM      2  C   UNL     1       1.642   8.876  18.991  0.00  0.00    +0.000 A 
ATOM      3  C   UNL     1       1.003   9.353  20.082  0.00  0.00    +0.000 A 
ATOM      4  C   UNL     1       0.716   8.472  21.252  0.00  0.00    +0.000 A 
ATOM      5  O   UNL     1       0.072   8.866  22.220  0.00  0.00    +0.000 OA
ATOM      6  O   UNL     1       1.232   7.185  21.231  0.00  0.00    +0.000 OA
ATOM      7  C   UNL     1       1.878   6.674  20.097  0.00  0.00    +0.000 A 
ATOM      8  C   UNL     1       2.298   5.339  20.158  0.00  0.00    +0.000 A 
ATOM      9  C   UNL     1       2.905   4.758  19.045  0.00  0.00    +0.000 A 
ATOM     10  C   UNL     1       3.112   5.538  17.909  0.00  0.00    +0.000 A 
ATOM     11  C   UNL     1       2.705   6.873  17.873  0.00  0.00    +0.000 A 
ATOM     12  C   UNL     1       2.072   7.466  18.971  0.00  0.00    +0.000 A 
ENDROOT
BRANCH   3  13
ATOM     13  C   UNL     1       0.626  10.807  20.289  0.00  0.00    +0.000 C 
BRANCH  13  14
ATOM     14  C   UNL     1      -0.736  11.225  19.774  0.00  0.00    +0.000 A 
ATOM     15  C   UNL     1      -1.284  10.640  18.624  0.00  0.00    +0.000 A 
ATOM     16  C   UNL     1      -2.584  10.951  18.214  0.00  0.00    +0.000 A 
ATOM     17  C   UNL     1      -3.354  11.849  18.949  0.00  0.00    +0.000 A 
ATOM     18  C   UNL     1      -2.821  12.447  20.088  0.00  0.00    +0.000 A 
ATOM     19  C   UNL     1      -1.522  12.138  20.497  0.00  0.00    +0.000 A 
ENDBRANCH  13  14
ENDBRANCH   3  13
BRANCH   9  20
ATOM     20  O   UNL     1       3.279   3.447  19.171  0.00  0.00    +0.000 OA
BRANCH  20  21
ATOM     21  C   UNL     1       4.632   3.221  19.559  0.00  0.00    +0.000 C 
BRANCH  21  22
ATOM     22  C   UNL     1       5.666   4.186  18.968  0.00  0.00    +0.000 C 
ATOM     23  O   UNL     1       6.156   5.098  19.632  0.00  0.00    +0.000 OA
ATOM     24  N   UNL     1       6.001   3.955  17.659  0.00  0.00    +0.000 N 
ATOM     25  H   UNL     1       5.568   3.196  17.139  0.00  0.00    +0.000 HD
BRANCH  24  26
ATOM     26  C   UNL     1       7.004   4.740  16.973  0.00  0.00    +0.000 C 
BRANCH  26  27
ATOM     27  C   UNL     1       6.894   4.632  15.467  0.00  0.00    +0.000 A 
ATOM     28  C   UNL     1       5.946   3.775  14.904  0.00  0.00    +0.000 A 
ATOM     29  C   UNL     1       5.880   3.656  13.520  0.00  0.00    +0.000 A 
ATOM     30  C   UNL     1       6.763   4.385  12.733  0.00  0.00    +0.000 A 
ATOM     31  C   UNL     1       7.682   5.205  13.367  0.00  0.00    +0.000 A 
ATOM     32  N   UNL     1       7.770   5.344  14.710  0.00  0.00    +0.000 NA
ENDBRANCH  26  27
ENDBRANCH  24  26
ENDBRANCH  21  22
ENDBRANCH  20  21
ENDBRANCH   9  20
TORSDOF 7
ENDMDL
MODEL 2
REMARK VINA RESULT:      -8.7      4.286     10.257
REMARK  Name = 
REMARK  8 active torsions:
REMARK  status: ('A' for Active; 'I' for Inactive)
REMARK    1  A    between atoms: C_1  and  C_2
REMARK    2  A    between atoms: C_3  and  C_4
REMARK    3  A    between atoms: C_4  and  C_5
REMARK    4  A    between atoms: C_16  and  O_17
REMARK    5  A    between atoms: O_17  and  C_18
REMARK    6  A    between atoms: C_18  and  C_19
REMARK    7  A    between atoms: N_21  and  C_22
REMARK    8  A    between atoms: C_22  and  C_23
REMARK                            x       y       z     vdW  Elec       q    Type
REMARK                         _______ _______ _______ _____ _____    ______ ____
ROOT
ATOM      1  C   UNL     1       2.295   9.062  17.701  0.00  0.00    +0.000 C 
ATOM      2  C   UNL     1       1.977   8.268  18.942  0.00  0.00    +0.000 A 
ATOM      3  C   UNL     1       2.350   6.983  19.137  0.00  0.00    +0.000 A 
ATOM      4  C   UNL     1       1.993   6.262  20.393  0.00  0.00    +0.000 A 
ATOM      5  O   UNL     1       2.385   5.121  20.622  0.00  0.00    +0.000 OA
ATOM      6  O   UNL     1       1.167   6.912  21.298  0.00  0.00    +0.000 OA
ATOM      7  C   UNL     1       0.791   8.250  21.115  0.00  0.00    +0.000 A 
ATOM      8  C   UNL     1       0.012   8.831  22.123  0.00  0.00    +0.000 A 
ATOM      9  C   UNL     1      -0.353  10.173  22.022  0.00  0.00    +0.000 A 
ATOM     10  C   UNL     1       0.037  10.893  20.895  0.00  0.00    +0.000 A 
ATOM     11  C   UNL     1       0.797  10.291  19.889  0.00  0.00    +0.000 A 
ATOM     12  C   UNL     1       1.194   8.954  19.985  0.00  0.00    +0.000 A 
ENDROOT
BRANCH   3  13
ATOM     13  C   UNL     1       3.041   6.122  18.098  0.00  0.00    +0.000 C 
BRANCH  13  14
ATOM     14  C   UNL     1       4.556   6.143  18.110  0.00  0.00    +0.000 A 
ATOM     15  C   UNL     1       5.282   5.385  19.038  0.00  0.00    +0.000 A 
ATOM     16  C   UNL     1       6.677   5.325  18.976  0.00  0.00    +0.000 A 
ATOM     17  C   UNL     1       7.364   6.019  17.985  0.00  0.00    +0.000 A 
ATOM     18  C   UNL     1       6.659   6.787  17.061  0.00  0.00    +0.000 A 
ATOM     19  C   UNL     1       5.265   6.848  17.123  0.00  0.00    +0.000 A 
ENDBRANCH  13  14
ENDBRANCH   3  13
BRANCH   9  20
ATOM     20  O   UNL     1      -1.105  10.678  23.050  0.00  0.00    +0.000 OA
BRANCH  20  21
ATOM     21  C   UNL     1      -1.342  12.083  23.015  0.00  0.00    +0.000 C 
BRANCH  21  22
ATOM     22  C   UNL     1      -2.814  12.512  23.026  0.00  0.00    +0.000 C 
ATOM     23  O   UNL     1      -3.400  12.791  24.071  0.00  0.00    +0.000 OA
ATOM     24  N   UNL     1      -3.418  12.563  21.797  0.00  0.00    +0.000 N 
ATOM     25  H   UNL     1      -2.903  12.316  20.956  0.00  0.00    +0.000 HD
BRANCH  24  26
ATOM     26  C   UNL     1      -4.785  13.005  21.630  0.00  0.00    +0.000 C 
BRANCH  26  27
ATOM     27  C   UNL     1      -5.486  12.303  20.487  0.00  0.00    +0.000 A 
ATOM     28  C   UNL     1      -6.725  11.699  20.704  0.00  0.00    +0.000 A 
ATOM     29  C   UNL     1      -7.341  11.025  19.654  0.00  0.00    +0.000 A 
ATOM     30  C   UNL     1      -6.704  10.961  18.421  0.00  0.00    +0.000 A 
ATOM     31  C   UNL     1      -5.471  11.577  18.288  0.00  0.00    +0.000 A 
ATOM     32  N   UNL     1      -4.847  12.242  19.288  0.00  0.00    +0.000 NA
ENDBRANCH  26  27
ENDBRANCH  24  26
ENDBRANCH  21  22
ENDBRANCH  20  21
ENDBRANCH   9  20
TORSDOF 7
ENDMDL
MODEL 3
REMARK VINA RESULT:      -8.6      3.313      5.970
REMARK  Name = 
REMARK  8 active torsions:
REMARK  status: ('A' for Active; 'I' for Inactive)
REMARK    1  A    between atoms: C_1  and  C_2
REMARK    2  A    between atoms: C_3  and  C_4
REMARK    3  A    between atoms: C_4  and  C_5
REMARK    4  A    between atoms: C_16  and  O_17
REMARK    5  A    between atoms: O_17  and  C_18
REMARK    6  A    between atoms: C_18  and  C_19
REMARK    7  A    between atoms: N_21  and  C_22
REMARK    8  A    between atoms: C_22  and  C_23
REMARK                            x       y       z     vdW  Elec       q    Type
REMARK                         _______ _______ _______ _____ _____    ______ ____
ROOT
ATOM      1  C   UNL     1      -3.472  12.670  19.998  0.00  0.00    +0.000 C 
ATOM      2  C   UNL     1      -3.059  11.793  18.843  0.00  0.00    +0.000 A 
ATOM      3  C   UNL     1      -3.850  11.510  17.785  0.00  0.00    +0.000 A 
ATOM      4  C   UNL     1      -3.370  10.627  16.681  0.00  0.00    +0.000 A 
ATOM      5  O   UNL     1      -4.043  10.419  15.676  0.00  0.00    +0.000 OA
ATOM      6  O   UNL     1      -2.137  10.014  16.837  0.00  0.00    +0.000 OA
ATOM      7  C   UNL     1      -1.300  10.316  17.920  0.00  0.00    +0.000 A 
ATOM      8  C   UNL     1      -0.046   9.692  17.944  0.00  0.00    +0.000 A 
ATOM      9  C   UNL     1       0.850   9.989  18.971  0.00  0.00    +0.000 A 
ATOM     10  C   UNL     1       0.456  10.874  19.972  0.00  0.00    +0.000 A 
ATOM     11  C   UNL     1      -0.806  11.471  19.943  0.00  0.00    +0.000 A 
ATOM     12  C   UNL     1      -1.709  11.206  18.908  0.00  0.00    +0.000 A 
ENDROOT
BRANCH   3  13
ATOM     13  C   UNL     1      -5.299  11.938  17.656  0.00  0.00    +0.000 C 
BRANCH  13  14
ATOM     14  C   UNL     1      -6.270  11.322  18.642  0.00  0.00    +0.000 A 
ATOM     15  C   UNL     1      -6.359   9.932  18.795  0.00  0.00    +0.000 A 
ATOM     16  C   UNL     1      -7.178   9.373  19.781  0.00  0.00    +0.000 A 
ATOM     17  C   UNL     1      -7.916  10.196  20.627  0.00  0.00    +0.000 A 
ATOM     18  C   UNL     1      -7.848  11.579  20.481  0.00  0.00    +0.000 A 
ATOM     19  C   UNL     1      -7.031  12.138  19.496  0.00  0.00    +0.000 A 
ENDBRANCH  13  14
ENDBRANCH   3  13
BRANCH   9  20
ATOM     20  O   UNL     1       2.061   9.351  18.923  0.00  0.00    +0.000 OA
BRANCH  20  21
ATOM     21  C   UNL     1       2.341   8.637  17.722  0.00  0.00    +0.000 C 
BRANCH  21  22
ATOM     22  C   UNL     1       3.182   7.365  17.881  0.00  0.00    +0.000 C 
ATOM     23  O   UNL     1       4.041   7.049  17.060  0.00  0.00    +0.000 OA
ATOM     24  N   UNL     1       2.909   6.620  18.998  0.00  0.00    +0.000 N 
ATOM     25  H   UNL     1       2.184   6.909  19.650  0.00  0.00    +0.000 HD
BRANCH  24  26
ATOM     26  C   UNL     1       3.653   5.423  19.325  0.00  0.00    +0.000 C 
BRANCH  26  27
ATOM     27  C   UNL     1       2.836   4.163  19.139  0.00  0.00    +0.000 A 
ATOM     28  C   UNL     1       1.652   3.996  19.861  0.00  0.00    +0.000 A 
ATOM     29  C   UNL     1       0.929   2.818  19.710  0.00  0.00    +0.000 A 
ATOM     30  C   UNL     1       1.407   1.833  18.854  0.00  0.00    +0.000 A 
ATOM     31  C   UNL     1       2.594   2.069  18.181  0.00  0.00    +0.000 A 
ATOM     32  N   UNL     1       3.319   3.205  18.304  0.00  0.00    +0.000 NA
ENDBRANCH  26  27
ENDBRANCH  24  26
ENDBRANCH  21  22
ENDBRANCH  20  21
ENDBRANCH   9  20
TORSDOF 7
ENDMDL
MODEL 4
REMARK VINA RESULT:      -8.6      3.601      9.216
REMARK  Name = 
REMARK  8 active torsions:
REMARK  status: ('A' for Active; 'I' for Inactive)
REMARK    1  A    between atoms: C_1  and  C_2
REMARK    2  A    between atoms: C_3  and  C_4
REMARK    3  A    between atoms: C_4  and  C_5
REMARK    4  A    between atoms: C_16  and  O_17
REMARK    5  A    between atoms: O_17  and  C_18
REMARK    6  A    between atoms: C_18  and  C_19
REMARK    7  A    between atoms: N_21  and  C_22
REMARK    8  A    between atoms: C_22  and  C_23
REMARK                            x       y       z     vdW  Elec       q    Type
REMARK                         _______ _______ _______ _____ _____    ______ ____
ROOT
ATOM      1  C   UNL     1       2.235   9.172  17.752  0.00  0.00    +0.000 C 
ATOM      2  C   UNL     1       1.872   8.472  19.036  0.00  0.00    +0.000 A 
ATOM      3  C   UNL     1       2.089   7.159  19.273  0.00  0.00    +0.000 A 
ATOM      4  C   UNL     1       1.696   6.537  20.571  0.00  0.00    +0.000 A 
ATOM      5  O   UNL     1       1.952   5.366  20.834  0.00  0.00    +0.000 OA
ATOM      6  O   UNL     1       0.995   7.320  21.475  0.00  0.00    +0.000 OA
ATOM      7  C   UNL     1       0.783   8.687  21.249  0.00  0.00    +0.000 A 
ATOM      8  C   UNL     1       0.124   9.400  22.259  0.00  0.00    +0.000 A 
ATOM      9  C   UNL     1      -0.075  10.773  22.113  0.00  0.00    +0.000 A 
ATOM     10  C   UNL     1       0.356  11.394  20.943  0.00  0.00    +0.000 A 
ATOM     11  C   UNL     1       0.993  10.664  19.938  0.00  0.00    +0.000 A 
ATOM     12  C   UNL     1       1.224   9.291  20.076  0.00  0.00    +0.000 A 
ENDROOT
BRANCH   3  13
ATOM     13  C   UNL     1       2.623   6.179  18.248  0.00  0.00    +0.000 C 
BRANCH  13  14
ATOM     14  C   UNL     1       4.129   6.127  18.091  0.00  0.00    +0.000 A 
ATOM     15  C   UNL     1       4.932   5.479  19.039  0.00  0.00    +0.000 A 
ATOM     16  C   UNL     1       6.308   5.342  18.836  0.00  0.00    +0.000 A 
ATOM     17  C   UNL     1       6.900   5.849  17.682  0.00  0.00    +0.000 A 
ATOM     18  C   UNL     1       6.118   6.506  16.735  0.00  0.00    +0.000 A 
ATOM     19  C   UNL     1       4.743   6.644  16.938  0.00  0.00    +0.000 A 
ENDBRANCH  13  14
ENDBRANCH   3  13
BRANCH   9  20
ATOM     20  O   UNL     1      -0.715  11.407  23.145  0.00  0.00    +0.000 OA
BRANCH  20  21
ATOM     21  C   UNL     1      -1.402  12.609  22.806  0.00  0.00    +0.000 C 
BRANCH  21  22
ATOM     22  C   UNL     1      -2.730  12.431  22.061  0.00  0.00    +0.000 C 
ATOM     23  O   UNL     1      -3.782  12.207  22.658  0.00  0.00    +0.000 OA
ATOM     24  N   UNL     1      -2.657  12.544  20.698  0.00  0.00    +0.000 N 
ATOM     25  H   UNL     1      -1.766  12.721  20.239  0.00  0.00    +0.000 HD
BRANCH  24  26
ATOM     26  C   UNL     1      -3.830  12.460  19.855  0.00  0.00    +0.000 C 
BRANCH  26  27
ATOM     27  C   UNL     1      -3.567  11.707  18.569  0.00  0.00    +0.000 A 
ATOM     28  C   UNL     1      -4.521  11.727  17.550  0.00  0.00    +0.000 A 
ATOM     29  C   UNL     1      -4.284  11.001  16.388  0.00  0.00    +0.000 A 
ATOM     30  C   UNL     1      -3.109  10.267  16.273  0.00  0.00    +0.000 A 
ATOM     31  C   UNL     1      -2.217  10.289  17.332  0.00  0.00    +0.000 A 
ATOM     32  N   UNL     1      -2.417  10.987  18.474  0.00  0.00    +0.000 NA
ENDBRANCH  26  27
ENDBRANCH  24  26
ENDBRANCH  21  22
ENDBRANCH  20  21
ENDBRANCH   9  20
TORSDOF 7
ENDMDL
MODEL 5
REMARK VINA RESULT:      -8.6      3.867      9.094
REMARK  Name = 
REMARK  8 active torsions:
REMARK  status: ('A' for Active; 'I' for Inactive)
REMARK    1  A    between atoms: C_1  and  C_2
REMARK    2  A    between atoms: C_3  and  C_4
REMARK    3  A    between atoms: C_4  and  C_5
REMARK    4  A    between atoms: C_16  and  O_17
REMARK    5  A    between atoms: O_17  and  C_18
REMARK    6  A    between atoms: C_18  and  C_19
REMARK    7  A    between atoms: N_21  and  C_22
REMARK    8  A    between atoms: C_22  and  C_23
REMARK                            x       y       z     vdW  Elec       q    Type
REMARK                         _______ _______ _______ _____ _____    ______ ____
ROOT
ATOM      1  C   UNL     1       1.668   5.876  20.750  0.00  0.00    +0.000 C 
ATOM      2  C   UNL     1       1.654   7.214  20.056  0.00  0.00    +0.000 A 
ATOM      3  C   UNL     1       2.123   7.425  18.806  0.00  0.00    +0.000 A 
ATOM      4  C   UNL     1       2.079   8.783  18.188  0.00  0.00    +0.000 A 
ATOM      5  O   UNL     1       2.429   8.981  17.029  0.00  0.00    +0.000 OA
ATOM      6  O   UNL     1       1.654   9.838  18.981  0.00  0.00    +0.000 OA
ATOM      7  C   UNL     1       1.148   9.627  20.271  0.00  0.00    +0.000 A 
ATOM      8  C   UNL     1       0.682  10.755  20.959  0.00  0.00    +0.000 A 
ATOM      9  C   UNL     1       0.122  10.603  22.227  0.00  0.00    +0.000 A 
ATOM     10  C   UNL     1       0.077   9.331  22.794  0.00  0.00    +0.000 A 
ATOM     11  C   UNL     1       0.565   8.221  22.102  0.00  0.00    +0.000 A 
ATOM     12  C   UNL     1       1.107   8.350  20.819  0.00  0.00    +0.000 A 
ENDROOT
BRANCH   3  13
ATOM     13  C   UNL     1       2.828   6.380  17.964  0.00  0.00    +0.000 C 
BRANCH  13  14
ATOM     14  C   UNL     1       4.328   6.269  18.152  0.00  0.00    +0.000 A 
ATOM     15  C   UNL     1       4.871   5.467  19.165  0.00  0.00    +0.000 A 
ATOM     16  C   UNL     1       6.253   5.284  19.266  0.00  0.00    +0.000 A 
ATOM     17  C   UNL     1       7.109   5.896  18.355  0.00  0.00    +0.000 A 
ATOM     18  C   UNL     1       6.587   6.705  17.349  0.00  0.00    +0.000 A 
ATOM     19  C   UNL     1       5.206   6.890  17.248  0.00  0.00    +0.000 A 
ENDBRANCH  13  14
ENDBRANCH   3  13
BRANCH   9  20
ATOM     20  O   UNL     1      -0.324  11.746  22.835  0.00  0.00    +0.000 OA
BRANCH  20  21
ATOM     21  C   UNL     1      -0.836  12.753  21.966  0.00  0.00    +0.000 C 
BRANCH  21  22
ATOM     22  C   UNL     1      -2.212  12.468  21.352  0.00  0.00    +0.000 C 
ATOM     23  O   UNL     1      -3.219  12.342  22.046  0.00  0.00    +0.000 OA
ATOM     24  N   UNL     1      -2.232  12.369  19.985  0.00  0.00    +0.000 N 
ATOM     25  H   UNL     1      -1.377  12.469  19.445  0.00  0.00    +0.000 HD
BRANCH  24  26
ATOM     26  C   UNL     1      -3.460  12.160  19.248  0.00  0.00    +0.000 C 
BRANCH  26  27
ATOM     27  C   UNL     1      -3.242  11.381  17.969  0.00  0.00    +0.000 A 
ATOM     28  C   UNL     1      -4.159  11.502  16.923  0.00  0.00    +0.000 A 
ATOM     29  C   UNL     1      -3.968  10.752  15.767  0.00  0.00    +0.000 A 
ATOM     30  C   UNL     1      -2.878   9.895  15.686  0.00  0.00    +0.000 A 
ATOM     31  C   UNL     1      -2.019   9.822  16.770  0.00  0.00    +0.000 A 
ATOM     32  N   UNL     1      -2.175  10.539  17.907  0.00  0.00    +0.000 NA
ENDBRANCH  26  27
ENDBRANCH  24  26
ENDBRANCH  21  22
ENDBRANCH  20  21
ENDBRANCH   9  20
TORSDOF 7
ENDMDL
MODEL 6
REMARK VINA RESULT:      -8.5      0.961      1.354
REMARK  Name = 
REMARK  8 active torsions:
REMARK  status: ('A' for Active; 'I' for Inactive)
REMARK    1  A    between atoms: C_1  and  C_2
REMARK    2  A    between atoms: C_3  and  C_4
REMARK    3  A    between atoms: C_4  and  C_5
REMARK    4  A    between atoms: C_16  and  O_17
REMARK    5  A    between atoms: O_17  and  C_18
REMARK    6  A    between atoms: C_18  and  C_19
REMARK    7  A    between atoms: N_21  and  C_22
REMARK    8  A    between atoms: C_22  and  C_23
REMARK                            x       y       z     vdW  Elec       q    Type
REMARK                         _______ _______ _______ _____ _____    ______ ____
ROOT
ATOM      1  C   UNL     1       1.492  10.407  17.971  0.00  0.00    +0.000 C 
ATOM      2  C   UNL     1       1.371   9.639  19.263  0.00  0.00    +0.000 A 
ATOM      3  C   UNL     1       0.905  10.165  20.417  0.00  0.00    +0.000 A 
ATOM      4  C   UNL     1       0.819   9.341  21.658  0.00  0.00    +0.000 A 
ATOM      5  O   UNL     1       0.329   9.776  22.695  0.00  0.00    +0.000 OA
ATOM      6  O   UNL     1       1.344   8.058  21.617  0.00  0.00    +0.000 OA
ATOM      7  C   UNL     1       1.811   7.496  20.420  0.00  0.00    +0.000 A 
ATOM      8  C   UNL     1       2.255   6.169  20.476  0.00  0.00    +0.000 A 
ATOM      9  C   UNL     1       2.687   5.539  19.310  0.00  0.00    +0.000 A 
ATOM     10  C   UNL     1       2.701   6.263  18.120  0.00  0.00    +0.000 A 
ATOM     11  C   UNL     1       2.273   7.592  18.087  0.00  0.00    +0.000 A 
ATOM     12  C   UNL     1       1.812   8.233  19.241  0.00  0.00    +0.000 A 
ENDROOT
BRANCH   3  13
ATOM     13  C   UNL     1       0.542  11.624  20.612  0.00  0.00    +0.000 C 
BRANCH  13  14
ATOM     14  C   UNL     1      -0.927  11.971  20.493  0.00  0.00    +0.000 A 
ATOM     15  C   UNL     1      -1.581  12.702  21.495  0.00  0.00    +0.000 A 
ATOM     16  C   UNL     1      -2.907  13.111  21.331  0.00  0.00    +0.000 A 
ATOM     17  C   UNL     1      -3.597  12.798  20.164  0.00  0.00    +0.000 A 
ATOM     18  C   UNL     1      -2.967  12.063  19.163  0.00  0.00    +0.000 A 
ATOM     19  C   UNL     1      -1.642  11.653  19.326  0.00  0.00    +0.000 A 
ENDBRANCH  13  14
ENDBRANCH   3  13
BRANCH   9  20
ATOM     20  O   UNL     1       3.096   4.238  19.437  0.00  0.00    +0.000 OA
BRANCH  20  21
ATOM     21  C   UNL     1       3.719   3.667  18.289  0.00  0.00    +0.000 C 
BRANCH  21  22
ATOM     22  C   UNL     1       5.111   4.211  17.945  0.00  0.00    +0.000 C 
ATOM     23  O   UNL     1       6.037   4.181  18.753  0.00  0.00    +0.000 OA
ATOM     24  N   UNL     1       5.242   4.721  16.680  0.00  0.00    +0.000 N 
ATOM     25  H   UNL     1       4.450   4.737  16.042  0.00  0.00    +0.000 HD
BRANCH  24  26
ATOM     26  C   UNL     1       6.504   5.220  16.180  0.00  0.00    +0.000 C 
BRANCH  26  27
ATOM     27  C   UNL     1       6.731   4.870  14.725  0.00  0.00    +0.000 A 
ATOM     28  C   UNL     1       5.939   3.894  14.119  0.00  0.00    +0.000 A 
ATOM     29  C   UNL     1       6.181   3.555  12.791  0.00  0.00    +0.000 A 
ATOM     30  C   UNL     1       7.211   4.188  12.106  0.00  0.00    +0.000 A 
ATOM     31  C   UNL     1       7.959   5.139  12.780  0.00  0.00    +0.000 A 
ATOM     32  N   UNL     1       7.747   5.493  14.069  0.00  0.00    +0.000 NA
ENDBRANCH  26  27
ENDBRANCH  24  26
ENDBRANCH  21  22
ENDBRANCH  20  21
ENDBRANCH   9  20
TORSDOF 7
ENDMDL
MODEL 7
REMARK VINA RESULT:      -8.5      1.412      2.298
REMARK  Name = 
REMARK  8 active torsions:
REMARK  status: ('A' for Active; 'I' for Inactive)
REMARK    1  A    between atoms: C_1  and  C_2
REMARK    2  A    between atoms: C_3  and  C_4
REMARK    3  A    between atoms: C_4  and  C_5
REMARK    4  A    between atoms: C_16  and  O_17
REMARK    5  A    between atoms: O_17  and  C_18
REMARK    6  A    between atoms: C_18  and  C_19
REMARK    7  A    between atoms: N_21  and  C_22
REMARK    8  A    between atoms: C_22  and  C_23
REMARK                            x       y       z     vdW  Elec       q    Type
REMARK                         _______ _______ _______ _____ _____    ______ ____
ROOT
ATOM      1  C   UNL     1       0.332  12.027  18.679  0.00  0.00    +0.000 C 
ATOM      2  C   UNL     1       0.294  11.015  19.796  0.00  0.00    +0.000 A 
ATOM      3  C   UNL     1      -0.321  11.218  20.982  0.00  0.00    +0.000 A 
ATOM      4  C   UNL     1      -0.311  10.168  22.043  0.00  0.00    +0.000 A 
ATOM      5  O   UNL     1      -0.926  10.302  23.096  0.00  0.00    +0.000 OA
ATOM      6  O   UNL     1       0.449   9.030  21.816  0.00  0.00    +0.000 OA
ATOM      7  C   UNL     1       1.074   8.801  20.582  0.00  0.00    +0.000 A 
ATOM      8  C   UNL     1       1.759   7.588  20.436  0.00  0.00    +0.000 A 
ATOM      9  C   UNL     1       2.361   7.281  19.216  0.00  0.00    +0.000 A 
ATOM     10  C   UNL     1       2.296   8.212  18.182  0.00  0.00    +0.000 A 
ATOM     11  C   UNL     1       1.626   9.426  18.352  0.00  0.00    +0.000 A 
ATOM     12  C   UNL     1       0.995   9.740  19.559  0.00  0.00    +0.000 A 
ENDROOT
BRANCH   3  13
ATOM     13  C   UNL     1      -0.963  12.525  21.405  0.00  0.00    +0.000 C 
BRANCH  13  14
ATOM     14  C   UNL     1      -2.460  12.634  21.198  0.00  0.00    +0.000 A 
ATOM     15  C   UNL     1      -3.017  12.576  19.914  0.00  0.00    +0.000 A 
ATOM     16  C   UNL     1      -4.403  12.569  19.736  0.00  0.00    +0.000 A 
ATOM     17  C   UNL     1      -5.251  12.618  20.839  0.00  0.00    +0.000 A 
ATOM     18  C   UNL     1      -4.714  12.688  22.123  0.00  0.00    +0.000 A 
ATOM     19  C   UNL     1      -3.328  12.695  22.300  0.00  0.00    +0.000 A 
ENDBRANCH  13  14
ENDBRANCH   3  13
BRANCH   9  20
ATOM     20  O   UNL     1       3.002   6.074  19.142  0.00  0.00    +0.000 OA
BRANCH  20  21
ATOM     21  C   UNL     1       3.247   5.580  17.827  0.00  0.00    +0.000 C 
BRANCH  21  22
ATOM     22  C   UNL     1       4.592   4.873  17.620  0.00  0.00    +0.000 C 
ATOM     23  O   UNL     1       5.280   4.497  18.567  0.00  0.00    +0.000 OA
ATOM     24  N   UNL     1       4.960   4.690  16.313  0.00  0.00    +0.000 N 
ATOM     25  H   UNL     1       4.369   5.023  15.555  0.00  0.00    +0.000 HD
BRANCH  24  26
ATOM     26  C   UNL     1       6.172   3.989  15.947  0.00  0.00    +0.000 C 
BRANCH  26  27
ATOM     27  C   UNL     1       6.614   4.295  14.532  0.00  0.00    +0.000 A 
ATOM     28  C   UNL     1       6.149   3.505  13.478  0.00  0.00    +0.000 A 
ATOM     29  C   UNL     1       6.592   3.773  12.187  0.00  0.00    +0.000 A 
ATOM     30  C   UNL     1       7.492   4.811  11.979  0.00  0.00    +0.000 A 
ATOM     31  C   UNL     1       7.914   5.541  13.077  0.00  0.00    +0.000 A 
ATOM     32  N   UNL     1       7.501   5.309  14.344  0.00  0.00    +0.000 NA
ENDBRANCH  26  27
ENDBRANCH  24  26
ENDBRANCH  21  22
ENDBRANCH  20  21
ENDBRANCH   9  20
TORSDOF 7
ENDMDL
MODEL 8
REMARK VINA RESULT:      -8.4      2.932      4.955
REMARK  Name = 
REMARK  8 active torsions:
REMARK  status: ('A' for Active; 'I' for Inactive)
REMARK    1  A    between atoms: C_1  and  C_2
REMARK    2  A    between atoms: C_3  and  C_4
REMARK    3  A    between atoms: C_4  and  C_5
REMARK    4  A    between atoms: C_16  and  O_17
REMARK    5  A    between atoms: O_17  and  C_18
REMARK    6  A    between atoms: C_18  and  C_19
REMARK    7  A    between atoms: N_21  and  C_22
REMARK    8  A    between atoms: C_22  and  C_23
REMARK                            x       y       z     vdW  Elec       q    Type
REMARK                         _______ _______ _______ _____ _____    ______ ____
ROOT
ATOM      1  C   UNL     1      -0.219   9.846  22.898  0.00  0.00    +0.000 C 
ATOM      2  C   UNL     1       0.199  10.578  21.648  0.00  0.00    +0.000 A 
ATOM      3  C   UNL     1      -0.007  11.896  21.435  0.00  0.00    +0.000 A 
ATOM      4  C   UNL     1       0.432  12.548  20.167  0.00  0.00    +0.000 A 
ATOM      5  O   UNL     1       0.323  13.757  19.986  0.00  0.00    +0.000 OA
ATOM      6  O   UNL     1       0.949  11.735  19.169  0.00  0.00    +0.000 OA
ATOM      7  C   UNL     1       1.185  10.371  19.387  0.00  0.00    +0.000 A 
ATOM      8  C   UNL     1       1.774   9.656  18.336  0.00  0.00    +0.000 A 
ATOM      9  C   UNL     1       2.078   8.306  18.507  0.00  0.00    +0.000 A 
ATOM     10  C   UNL     1       1.751   7.692  19.714  0.00  0.00    +0.000 A 
ATOM     11  C   UNL     1       1.145   8.415  20.744  0.00  0.00    +0.000 A 
ATOM     12  C   UNL     1       0.856   9.776  20.600  0.00  0.00    +0.000 A 
ENDROOT
BRANCH   3  13
ATOM     13  C   UNL     1      -0.783  12.806  22.367  0.00  0.00    +0.000 C 
BRANCH  13  14
ATOM     14  C   UNL     1      -2.284  12.850  22.165  0.00  0.00    +0.000 A 
ATOM     15  C   UNL     1      -2.845  12.721  20.887  0.00  0.00    +0.000 A 
ATOM     16  C   UNL     1      -4.230  12.655  20.718  0.00  0.00    +0.000 A 
ATOM     17  C   UNL     1      -5.074  12.714  21.823  0.00  0.00    +0.000 A 
ATOM     18  C   UNL     1      -4.534  12.853  23.100  0.00  0.00    +0.000 A 
ATOM     19  C   UNL     1      -3.149  12.920  23.269  0.00  0.00    +0.000 A 
ENDBRANCH  13  14
ENDBRANCH   3  13
BRANCH   9  20
ATOM     20  O   UNL     1       2.663   7.674  17.442  0.00  0.00    +0.000 OA
BRANCH  20  21
ATOM     21  C   UNL     1       4.028   7.304  17.613  0.00  0.00    +0.000 C 
BRANCH  21  22
ATOM     22  C   UNL     1       4.276   5.866  18.086  0.00  0.00    +0.000 C 
ATOM     23  O   UNL     1       5.125   5.600  18.934  0.00  0.00    +0.000 OA
ATOM     24  N   UNL     1       3.484   4.914  17.500  0.00  0.00    +0.000 N 
ATOM     25  H   UNL     1       2.799   5.171  16.794  0.00  0.00    +0.000 HD
BRANCH  24  26
ATOM     26  C   UNL     1       3.554   3.519  17.877  0.00  0.00    +0.000 C 
BRANCH  26  27
ATOM     27  C   UNL     1       2.819   3.231  19.169  0.00  0.00    +0.000 A 
ATOM     28  C   UNL     1       1.466   3.554  19.280  0.00  0.00    +0.000 A 
ATOM     29  C   UNL     1       0.812   3.319  20.485  0.00  0.00    +0.000 A 
ATOM     30  C   UNL     1       1.523   2.779  21.550  0.00  0.00    +0.000 A 
ATOM     31  C   UNL     1       2.865   2.495  21.364  0.00  0.00    +0.000 A 
ATOM     32  N   UNL     1       3.530   2.709  20.205  0.00  0.00    +0.000 NA
ENDBRANCH  26  27
ENDBRANCH  24  26
ENDBRANCH  21  22
ENDBRANCH  20  21
ENDBRANCH   9  20
TORSDOF 7
ENDMDL
MODEL 9
REMARK VINA RESULT:      -8.4      4.358     10.183
REMARK  Name = 
REMARK  8 active torsions:
REMARK  status: ('A' for Active; 'I' for Inactive)
REMARK    1  A    between atoms: C_1  and  C_2
REMARK    2  A    between atoms: C_3  and  C_4
REMARK    3  A    between atoms: C_4  and  C_5
REMARK    4  A    between atoms: C_16  and  O_17
REMARK    5  A    between atoms: O_17  and  C_18
REMARK    6  A    between atoms: C_18  and  C_19
REMARK    7  A    between atoms: N_21  and  C_22
REMARK    8  A    between atoms: C_22  and  C_23
REMARK                            x       y       z     vdW  Elec       q    Type
REMARK                         _______ _______ _______ _____ _____    ______ ____
ROOT
ATOM      1  C   UNL     1       2.109   5.598  20.636  0.00  0.00    +0.000 C 
ATOM      2  C   UNL     1       2.066   6.881  19.845  0.00  0.00    +0.000 A 
ATOM      3  C   UNL     1       2.578   7.024  18.602  0.00  0.00    +0.000 A 
ATOM      4  C   UNL     1       2.500   8.330  17.885  0.00  0.00    +0.000 A 
ATOM      5  O   UNL     1       2.890   8.461  16.728  0.00  0.00    +0.000 OA
ATOM      6  O   UNL     1       1.994   9.418  18.579  0.00  0.00    +0.000 OA
ATOM      7  C   UNL     1       1.442   9.276  19.860  0.00  0.00    +0.000 A 
ATOM      8  C   UNL     1       0.896  10.427  20.444  0.00  0.00    +0.000 A 
ATOM      9  C   UNL     1       0.290  10.340  21.697  0.00  0.00    +0.000 A 
ATOM     10  C   UNL     1       0.278   9.112  22.354  0.00  0.00    +0.000 A 
ATOM     11  C   UNL     1       0.845   7.980  21.766  0.00  0.00    +0.000 A 
ATOM     12  C   UNL     1       1.435   8.041  20.499  0.00  0.00    +0.000 A 
ENDROOT
BRANCH   3  13
ATOM     13  C   UNL     1       3.365   5.956  17.869  0.00  0.00    +0.000 C 
BRANCH  13  14
ATOM     14  C   UNL     1       4.868   5.985  18.055  0.00  0.00    +0.000 A 
ATOM     15  C   UNL     1       5.686   6.747  17.209  0.00  0.00    +0.000 A 
ATOM     16  C   UNL     1       7.058   6.856  17.450  0.00  0.00    +0.000 A 
ATOM     17  C   UNL     1       7.631   6.207  18.539  0.00  0.00    +0.000 A 
ATOM     18  C   UNL     1       6.836   5.436  19.384  0.00  0.00    +0.000 A 
ATOM     19  C   UNL     1       5.464   5.326  19.143  0.00  0.00    +0.000 A 
ENDBRANCH  13  14
ENDBRANCH   3  13
BRANCH   9  20
ATOM     20  O   UNL     1      -0.233  11.501  22.201  0.00  0.00    +0.000 OA
BRANCH  20  21
ATOM     21  C   UNL     1      -1.413  11.362  22.988  0.00  0.00    +0.000 C 
BRANCH  21  22
ATOM     22  C   UNL     1      -2.605  12.227  22.562  0.00  0.00    +0.000 C 
ATOM     23  O   UNL     1      -3.346  12.759  23.387  0.00  0.00    +0.000 OA
ATOM     24  N   UNL     1      -2.776  12.362  21.210  0.00  0.00    +0.000 N 
ATOM     25  H   UNL     1      -2.148  11.899  20.558  0.00  0.00    +0.000 HD
BRANCH  24  26
ATOM     26  C   UNL     1      -3.819  13.192  20.646  0.00  0.00    +0.000 C 
BRANCH  26  27
ATOM     27  C   UNL     1      -4.860  12.387  19.898  0.00  0.00    +0.000 A 
ATOM     28  C   UNL     1      -6.086  12.110  20.506  0.00  0.00    +0.000 A 
ATOM     29  C   UNL     1      -7.019  11.337  19.823  0.00  0.00    +0.000 A 
ATOM     30  C   UNL     1      -6.705  10.852  18.559  0.00  0.00    +0.000 A 
ATOM     31  C   UNL     1      -5.464  11.162  18.029  0.00  0.00    +0.000 A 
ATOM     32  N   UNL     1      -4.535  11.912  18.666  0.00  0.00    +0.000 NA
ENDBRANCH  26  27
ENDBRANCH  24  26
ENDBRANCH  21  22
ENDBRANCH  20  21
ENDBRANCH   9  20
TORSDOF 7
ENDMDL
