MODEL 1
REMARK VINA RESULT:      -7.7      0.000      0.000
REMARK  Name = 
REMARK  3 active torsions:
REMARK  status: ('A' for Active; 'I' for Inactive)
REMARK    1  A    between atoms: C_1  and  C_2
REMARK    2  A    between atoms: C_4  and  C_5
REMARK    3  A    between atoms: N_7  and  C_8
REMARK                            x       y       z     vdW  Elec       q    Type
REMARK                         _______ _______ _______ _____ _____    ______ ____
ROOT
ATOM      1  C   UNL     1       4.799   5.124  17.356  0.00  0.00    +0.000 C 
ATOM      2  C   UNL     1       3.807   6.061  17.944  0.00  0.00    +0.000 A 
ATOM      3  C   UNL     1       3.522   7.353  17.570  0.00  0.00    +0.000 A 
ATOM      4  C   UNL     1       2.480   7.785  18.420  0.00  0.00    +0.000 A 
ATOM      5  N   UNL     1       2.128   6.820  19.291  0.00  0.00    +0.000 NA
ATOM      6  N   UNL     1       2.970   5.771  19.013  0.00  0.00    +0.000 N 
ATOM      7  C   UNL     1       2.937   4.573  19.805  0.00  0.00    +0.000 A 
ATOM      8  C   UNL     1       1.961   4.446  20.793  0.00  0.00    +0.000 A 
ATOM      9  C   UNL     1       1.959   3.305  21.593  0.00  0.00    +0.000 A 
ATOM     10  C   UNL     1       2.926   2.328  21.393  0.00  0.00    +0.000 A 
ATOM     11  C   UNL     1       3.854   2.522  20.387  0.00  0.00    +0.000 A 
ATOM     12  N   UNL     1       3.876   3.612  19.590  0.00  0.00    +0.000 NA
ENDROOT
BRANCH   4  13
ATOM     13  C   UNL     1       1.850   9.113  18.388  0.00  0.00    +0.000 C 
ATOM     14  O   UNL     1       2.082   9.888  17.464  0.00  0.00    +0.000 OA
ATOM     15  N   UNL     1       1.046   9.383  19.486  0.00  0.00    +0.000 N 
ATOM     16  H   UNL     1       1.077   8.667  20.208  0.00  0.00    +0.000 HD
BRANCH  15  17
ATOM     17  C   UNL     1       0.340  10.579  19.726  0.00  0.00    +0.000 A 
ATOM     18  C   UNL     1       0.891  11.655  20.432  0.00  0.00    +0.000 A 
ATOM     19  C   UNL     1       0.130  12.795  20.694  0.00  0.00    +0.000 A 
ATOM     20 CL   UNL     1       0.830  14.098  21.576  0.00  0.00    +0.000 Cl
ATOM     21  C   UNL     1      -1.183  12.888  20.253  0.00  0.00    +0.000 A 
ATOM     22  C   UNL     1      -1.722  11.834  19.522  0.00  0.00    +0.000 A 
ATOM     23 CL   UNL     1      -3.353  11.936  18.976  0.00  0.00    +0.000 Cl
ATOM     24  C   UNL     1      -0.967  10.690  19.242  0.00  0.00    +0.000 A 
ENDBRANCH  15  17
ENDBRANCH   4  13
TORSDOF 2
ENDMDL
MODEL 2
REMARK VINA RESULT:      -7.6      5.308      8.623
REMARK  Name = 
REMARK  3 active torsions:
REMARK  status: ('A' for Active; 'I' for Inactive)
REMARK    1  A    between atoms: C_1  and  C_2
REMARK    2  A    between atoms: C_4  and  C_5
REMARK    3  A    between atoms: N_7  and  C_8
REMARK                            x       y       z     vdW  Elec       q    Type
REMARK                         _______ _______ _______ _____ _____    ______ ____
ROOT
ATOM      1  C   UNL     1       2.242   4.533  21.079  0.00  0.00    +0.000 C 
ATOM      2  C   UNL     1       3.026   4.935  19.884  0.00  0.00    +0.000 A 
ATOM      3  C   UNL     1       3.977   4.215  19.200  0.00  0.00    +0.000 A 
ATOM      4  C   UNL     1       4.388   5.032  18.124  0.00  0.00    +0.000 A 
ATOM      5  N   UNL     1       3.737   6.211  18.129  0.00  0.00    +0.000 NA
ATOM      6  N   UNL     1       2.921   6.158  19.233  0.00  0.00    +0.000 N 
ATOM      7  C   UNL     1       2.118   7.288  19.608  0.00  0.00    +0.000 A 
ATOM      8  C   UNL     1       2.094   8.403  18.772  0.00  0.00    +0.000 A 
ATOM      9  C   UNL     1       1.353   9.517  19.160  0.00  0.00    +0.000 A 
ATOM     10  C   UNL     1       0.663   9.495  20.365  0.00  0.00    +0.000 A 
ATOM     11  C   UNL     1       0.727   8.348  21.134  0.00  0.00    +0.000 A 
ATOM     12  N   UNL     1       1.430   7.250  20.782  0.00  0.00    +0.000 NA
ENDROOT
BRANCH   4  13
ATOM     13  C   UNL     1       5.401   4.672  17.120  0.00  0.00    +0.000 C 
ATOM     14  O   UNL     1       6.517   4.302  17.470  0.00  0.00    +0.000 OA
ATOM     15  N   UNL     1       4.978   4.838  15.809  0.00  0.00    +0.000 N 
ATOM     16  H   UNL     1       4.063   5.275  15.720  0.00  0.00    +0.000 HD
BRANCH  15  17
ATOM     17  C   UNL     1       5.744   4.592  14.651  0.00  0.00    +0.000 A 
ATOM     18  C   UNL     1       6.907   5.308  14.346  0.00  0.00    +0.000 A 
ATOM     19  C   UNL     1       7.597   5.066  13.158  0.00  0.00    +0.000 A 
ATOM     20 CL   UNL     1       9.019   5.971  12.802  0.00  0.00    +0.000 Cl
ATOM     21  C   UNL     1       7.149   4.107  12.259  0.00  0.00    +0.000 A 
ATOM     22  C   UNL     1       6.011   3.370  12.576  0.00  0.00    +0.000 A 
ATOM     23 CL   UNL     1       5.442   2.182  11.466  0.00  0.00    +0.000 Cl
ATOM     24  C   UNL     1       5.317   3.594  13.770  0.00  0.00    +0.000 A 
ENDBRANCH  15  17
ENDBRANCH   4  13
TORSDOF 2
ENDMDL
MODEL 3
REMARK VINA RESULT:      -7.6      0.179      1.876
REMARK  Name = 
REMARK  3 active torsions:
REMARK  status: ('A' for Active; 'I' for Inactive)
REMARK    1  A    between atoms: C_1  and  C_2
REMARK    2  A    between atoms: C_4  and  C_5
REMARK    3  A    between atoms: N_7  and  C_8
REMARK                            x       y       z     vdW  Elec       q    Type
REMARK                         _______ _______ _______ _____ _____    ______ ____
ROOT
ATOM      1  C   UNL     1       4.869   5.163  17.412  0.00  0.00    +0.000 C 
ATOM      2  C   UNL     1       3.845   6.077  17.979  0.00  0.00    +0.000 A 
ATOM      3  C   UNL     1       3.542   7.365  17.604  0.00  0.00    +0.000 A 
ATOM      4  C   UNL     1       2.472   7.772  18.431  0.00  0.00    +0.000 A 
ATOM      5  N   UNL     1       2.119   6.797  19.290  0.00  0.00    +0.000 NA
ATOM      6  N   UNL     1       2.989   5.766  19.028  0.00  0.00    +0.000 N 
ATOM      7  C   UNL     1       2.962   4.564  19.815  0.00  0.00    +0.000 A 
ATOM      8  C   UNL     1       1.965   4.414  20.779  0.00  0.00    +0.000 A 
ATOM      9  C   UNL     1       1.968   3.270  21.574  0.00  0.00    +0.000 A 
ATOM     10  C   UNL     1       2.958   2.313  21.394  0.00  0.00    +0.000 A 
ATOM     11  C   UNL     1       3.906   2.530  20.410  0.00  0.00    +0.000 A 
ATOM     12  N   UNL     1       3.925   3.623  19.618  0.00  0.00    +0.000 NA
ENDROOT
BRANCH   4  13
ATOM     13  C   UNL     1       1.816   9.088  18.388  0.00  0.00    +0.000 C 
ATOM     14  O   UNL     1       1.982   9.833  17.427  0.00  0.00    +0.000 OA
ATOM     15  N   UNL     1       1.071   9.383  19.520  0.00  0.00    +0.000 N 
ATOM     16  H   UNL     1       1.156   8.694  20.264  0.00  0.00    +0.000 HD
BRANCH  15  17
ATOM     17  C   UNL     1       0.357  10.575  19.759  0.00  0.00    +0.000 A 
ATOM     18  C   UNL     1      -0.995  10.726  19.434  0.00  0.00    +0.000 A 
ATOM     19  C   UNL     1      -1.642  11.946  19.637  0.00  0.00    +0.000 A 
ATOM     20 CL   UNL     1      -3.305  12.106  19.215  0.00  0.00    +0.000 Cl
ATOM     21  C   UNL     1      -0.960  13.030  20.171  0.00  0.00    +0.000 A 
ATOM     22  C   UNL     1       0.377  12.873  20.526  0.00  0.00    +0.000 A 
ATOM     23 CL   UNL     1       1.235  14.214  21.185  0.00  0.00    +0.000 Cl
ATOM     24  C   UNL     1       1.034  11.652  20.340  0.00  0.00    +0.000 A 
ENDBRANCH  15  17
ENDBRANCH   4  13
TORSDOF 2
ENDMDL
MODEL 4
REMARK VINA RESULT:      -7.5      3.109      4.507
REMARK  Name = 
REMARK  3 active torsions:
REMARK  status: ('A' for Active; 'I' for Inactive)
REMARK    1  A    between atoms: C_1  and  C_2
REMARK    2  A    between atoms: C_4  and  C_5
REMARK    3  A    between atoms: N_7  and  C_8
REMARK                            x       y       z     vdW  Elec       q    Type
REMARK                         _______ _______ _______ _____ _____    ______ ____
ROOT
ATOM      1  C   UNL     1       1.884   9.426  17.800  0.00  0.00    +0.000 C 
ATOM      2  C   UNL     1       1.413   9.359  19.207  0.00  0.00    +0.000 A 
ATOM      3  C   UNL     1       0.821  10.344  19.962  0.00  0.00    +0.000 A 
ATOM      4  C   UNL     1       0.534   9.758  21.214  0.00  0.00    +0.000 A 
ATOM      5  N   UNL     1       0.929   8.471  21.254  0.00  0.00    +0.000 NA
ATOM      6  N   UNL     1       1.498   8.239  20.025  0.00  0.00    +0.000 N 
ATOM      7  C   UNL     1       2.109   6.974  19.725  0.00  0.00    +0.000 A 
ATOM      8  C   UNL     1       2.019   5.945  20.662  0.00  0.00    +0.000 A 
ATOM      9  C   UNL     1       2.652   4.735  20.392  0.00  0.00    +0.000 A 
ATOM     10  C   UNL     1       3.359   4.581  19.205  0.00  0.00    +0.000 A 
ATOM     11  C   UNL     1       3.393   5.644  18.322  0.00  0.00    +0.000 A 
ATOM     12  N   UNL     1       2.782   6.827  18.552  0.00  0.00    +0.000 NA
ENDROOT
BRANCH   4  13
ATOM     13  C   UNL     1      -0.103  10.443  22.349  0.00  0.00    +0.000 C 
ATOM     14  O   UNL     1       0.059  10.030  23.493  0.00  0.00    +0.000 OA
ATOM     15  N   UNL     1      -0.898  11.520  21.983  0.00  0.00    +0.000 N 
ATOM     16  H   UNL     1      -1.009  11.631  20.977  0.00  0.00    +0.000 HD
BRANCH  15  17
ATOM     17  C   UNL     1      -1.641  12.340  22.856  0.00  0.00    +0.000 A 
ATOM     18  C   UNL     1      -2.905  11.983  23.339  0.00  0.00    +0.000 A 
ATOM     19  C   UNL     1      -3.625  12.856  24.156  0.00  0.00    +0.000 A 
ATOM     20 CL   UNL     1      -5.184  12.395  24.725  0.00  0.00    +0.000 Cl
ATOM     21  C   UNL     1      -3.100  14.092  24.510  0.00  0.00    +0.000 A 
ATOM     22  C   UNL     1      -1.829  14.436  24.058  0.00  0.00    +0.000 A 
ATOM     23 CL   UNL     1      -1.170  15.968  24.487  0.00  0.00    +0.000 Cl
ATOM     24  C   UNL     1      -1.091  13.564  23.250  0.00  0.00    +0.000 A 
ENDBRANCH  15  17
ENDBRANCH   4  13
TORSDOF 2
ENDMDL
MODEL 5
REMARK VINA RESULT:      -7.5      3.080      4.094
REMARK  Name = 
REMARK  3 active torsions:
REMARK  status: ('A' for Active; 'I' for Inactive)
REMARK    1  A    between atoms: C_1  and  C_2
REMARK    2  A    between atoms: C_4  and  C_5
REMARK    3  A    between atoms: N_7  and  C_8
REMARK                            x       y       z     vdW  Elec       q    Type
REMARK                         _______ _______ _______ _____ _____    ______ ____
ROOT
ATOM      1  C   UNL     1       1.939   9.260  17.831  0.00  0.00    +0.000 C 
ATOM      2  C   UNL     1       1.447   9.243  19.232  0.00  0.00    +0.000 A 
ATOM      3  C   UNL     1       0.872  10.264  19.952  0.00  0.00    +0.000 A 
ATOM      4  C   UNL     1       0.552   9.720  21.215  0.00  0.00    +0.000 A 
ATOM      5  N   UNL     1       0.911   8.425  21.295  0.00  0.00    +0.000 NA
ATOM      6  N   UNL     1       1.490   8.144  20.081  0.00  0.00    +0.000 N 
ATOM      7  C   UNL     1       2.070   6.855  19.823  0.00  0.00    +0.000 A 
ATOM      8  C   UNL     1       1.939   5.855  20.785  0.00  0.00    +0.000 A 
ATOM      9  C   UNL     1       2.542   4.620  20.556  0.00  0.00    +0.000 A 
ATOM     10  C   UNL     1       3.260   4.416  19.385  0.00  0.00    +0.000 A 
ATOM     11  C   UNL     1       3.336   5.454  18.474  0.00  0.00    +0.000 A 
ATOM     12  N   UNL     1       2.755   6.659  18.664  0.00  0.00    +0.000 NA
ENDROOT
BRANCH   4  13
ATOM     13  C   UNL     1      -0.081  10.453  22.322  0.00  0.00    +0.000 C 
ATOM     14  O   UNL     1       0.012  10.038  23.474  0.00  0.00    +0.000 OA
ATOM     15  N   UNL     1      -0.792  11.574  21.921  0.00  0.00    +0.000 N 
ATOM     16  H   UNL     1      -0.859  11.685  20.912  0.00  0.00    +0.000 HD
BRANCH  15  17
ATOM     17  C   UNL     1      -1.513  12.447  22.762  0.00  0.00    +0.000 A 
ATOM     18  C   UNL     1      -1.021  13.696  23.158  0.00  0.00    +0.000 A 
ATOM     19  C   UNL     1      -1.748  14.498  24.039  0.00  0.00    +0.000 A 
ATOM     20 CL   UNL     1      -1.112  16.025  24.518  0.00  0.00    +0.000 Cl
ATOM     21  C   UNL     1      -2.974  14.076  24.534  0.00  0.00    +0.000 A 
ATOM     22  C   UNL     1      -3.481  12.849  24.117  0.00  0.00    +0.000 A 
ATOM     23 CL   UNL     1      -5.000  12.313  24.729  0.00  0.00    +0.000 Cl
ATOM     24  C   UNL     1      -2.768  12.041  23.224  0.00  0.00    +0.000 A 
ENDBRANCH  15  17
ENDBRANCH   4  13
TORSDOF 2
ENDMDL
MODEL 6
REMARK VINA RESULT:      -7.4      1.747      3.266
REMARK  Name = 
REMARK  3 active torsions:
REMARK  status: ('A' for Active; 'I' for Inactive)
REMARK    1  A    between atoms: C_1  and  C_2
REMARK    2  A    between atoms: C_4  and  C_5
REMARK    3  A    between atoms: N_7  and  C_8
REMARK                            x       y       z     vdW  Elec       q    Type
REMARK                         _______ _______ _______ _____ _____    ______ ____
ROOT
ATOM      1  C   UNL     1       3.434   3.748  19.714  0.00  0.00    +0.000 C 
ATOM      2  C   UNL     1       3.111   5.154  19.360  0.00  0.00    +0.000 A 
ATOM      3  C   UNL     1       2.274   6.032  20.010  0.00  0.00    +0.000 A 
ATOM      4  C   UNL     1       2.346   7.245  19.292  0.00  0.00    +0.000 A 
ATOM      5  N   UNL     1       3.179   7.142  18.238  0.00  0.00    +0.000 NA
ATOM      6  N   UNL     1       3.623   5.842  18.267  0.00  0.00    +0.000 N 
ATOM      7  C   UNL     1       4.485   5.337  17.235  0.00  0.00    +0.000 A 
ATOM      8  C   UNL     1       4.954   6.216  16.261  0.00  0.00    +0.000 A 
ATOM      9  C   UNL     1       5.751   5.717  15.233  0.00  0.00    +0.000 A 
ATOM     10  C   UNL     1       6.054   4.362  15.199  0.00  0.00    +0.000 A 
ATOM     11  C   UNL     1       5.560   3.555  16.207  0.00  0.00    +0.000 A 
ATOM     12  N   UNL     1       4.793   4.011  17.221  0.00  0.00    +0.000 NA
ENDROOT
BRANCH   4  13
ATOM     13  C   UNL     1       1.611   8.475  19.622  0.00  0.00    +0.000 C 
ATOM     14  O   UNL     1       1.289   8.713  20.783  0.00  0.00    +0.000 OA
ATOM     15  N   UNL     1       1.305   9.262  18.521  0.00  0.00    +0.000 N 
ATOM     16  H   UNL     1       1.545   8.838  17.628  0.00  0.00    +0.000 HD
BRANCH  15  17
ATOM     17  C   UNL     1       0.592  10.478  18.540  0.00  0.00    +0.000 A 
ATOM     18  C   UNL     1       1.209  11.714  18.761  0.00  0.00    +0.000 A 
ATOM     19  C   UNL     1       0.451  12.884  18.828  0.00  0.00    +0.000 A 
ATOM     20 CL   UNL     1       1.237  14.390  19.114  0.00  0.00    +0.000 Cl
ATOM     21  C   UNL     1      -0.928  12.846  18.671  0.00  0.00    +0.000 A 
ATOM     22  C   UNL     1      -1.541  11.622  18.418  0.00  0.00    +0.000 A 
ATOM     23 CL   UNL     1      -3.252  11.562  18.226  0.00  0.00    +0.000 Cl
ATOM     24  C   UNL     1      -0.791  10.444  18.336  0.00  0.00    +0.000 A 
ENDBRANCH  15  17
ENDBRANCH   4  13
TORSDOF 2
ENDMDL
MODEL 7
REMARK VINA RESULT:      -7.4      1.770      3.707
REMARK  Name = 
REMARK  3 active torsions:
REMARK  status: ('A' for Active; 'I' for Inactive)
REMARK    1  A    between atoms: C_1  and  C_2
REMARK    2  A    between atoms: C_4  and  C_5
REMARK    3  A    between atoms: N_7  and  C_8
REMARK                            x       y       z     vdW  Elec       q    Type
REMARK                         _______ _______ _______ _____ _____    ______ ____
ROOT
ATOM      1  C   UNL     1       3.327   3.710  19.714  0.00  0.00    +0.000 C 
ATOM      2  C   UNL     1       3.024   5.127  19.390  0.00  0.00    +0.000 A 
ATOM      3  C   UNL     1       2.200   6.003  20.058  0.00  0.00    +0.000 A 
ATOM      4  C   UNL     1       2.290   7.230  19.366  0.00  0.00    +0.000 A 
ATOM      5  N   UNL     1       3.121   7.137  18.310  0.00  0.00    +0.000 NA
ATOM      6  N   UNL     1       3.547   5.830  18.312  0.00  0.00    +0.000 N 
ATOM      7  C   UNL     1       4.402   5.334  17.270  0.00  0.00    +0.000 A 
ATOM      8  C   UNL     1       4.884   6.227  16.314  0.00  0.00    +0.000 A 
ATOM      9  C   UNL     1       5.673   5.738  15.275  0.00  0.00    +0.000 A 
ATOM     10  C   UNL     1       5.958   4.380  15.213  0.00  0.00    +0.000 A 
ATOM     11  C   UNL     1       5.451   3.560  16.205  0.00  0.00    +0.000 A 
ATOM     12  N   UNL     1       4.691   4.005  17.228  0.00  0.00    +0.000 NA
ENDROOT
BRANCH   4  13
ATOM     13  C   UNL     1       1.572   8.463  19.722  0.00  0.00    +0.000 C 
ATOM     14  O   UNL     1       1.260   8.684  20.888  0.00  0.00    +0.000 OA
ATOM     15  N   UNL     1       1.270   9.272  18.637  0.00  0.00    +0.000 N 
ATOM     16  H   UNL     1       1.499   8.861  17.735  0.00  0.00    +0.000 HD
BRANCH  15  17
ATOM     17  C   UNL     1       0.573  10.497  18.681  0.00  0.00    +0.000 A 
ATOM     18  C   UNL     1      -0.824  10.573  18.701  0.00  0.00    +0.000 A 
ATOM     19  C   UNL     1      -1.468  11.812  18.686  0.00  0.00    +0.000 A 
ATOM     20 CL   UNL     1      -3.189  11.874  18.698  0.00  0.00    +0.000 Cl
ATOM     21  C   UNL     1      -0.736  12.991  18.659  0.00  0.00    +0.000 A 
ATOM     22  C   UNL     1       0.654  12.919  18.673  0.00  0.00    +0.000 A 
ATOM     23 CL   UNL     1       1.572  14.376  18.634  0.00  0.00    +0.000 Cl
ATOM     24  C   UNL     1       1.311  11.684  18.700  0.00  0.00    +0.000 A 
ENDBRANCH  15  17
ENDBRANCH   4  13
TORSDOF 2
ENDMDL
MODEL 8
REMARK VINA RESULT:      -7.4      1.273      1.273
REMARK  Name = 
REMARK  3 active torsions:
REMARK  status: ('A' for Active; 'I' for Inactive)
REMARK    1  A    between atoms: C_1  and  C_2
REMARK    2  A    between atoms: C_4  and  C_5
REMARK    3  A    between atoms: N_7  and  C_8
REMARK                            x       y       z     vdW  Elec       q    Type
REMARK                         _______ _______ _______ _____ _____    ______ ____
ROOT
ATOM      1  C   UNL     1       5.361   5.389  17.174  0.00  0.00    +0.000 C 
ATOM      2  C   UNL     1       4.153   6.174  17.536  0.00  0.00    +0.000 A 
ATOM      3  C   UNL     1       3.976   7.537  17.513  0.00  0.00    +0.000 A 
ATOM      4  C   UNL     1       2.641   7.766  17.912  0.00  0.00    +0.000 A 
ATOM      5  N   UNL     1       2.006   6.609  18.180  0.00  0.00    +0.000 NA
ATOM      6  N   UNL     1       2.951   5.633  17.976  0.00  0.00    +0.000 N 
ATOM      7  C   UNL     1       2.652   4.253  18.242  0.00  0.00    +0.000 A 
ATOM      8  C   UNL     1       1.352   3.905  18.605  0.00  0.00    +0.000 A 
ATOM      9  C   UNL     1       1.073   2.575  18.910  0.00  0.00    +0.000 A 
ATOM     10  C   UNL     1       2.091   1.631  18.850  0.00  0.00    +0.000 A 
ATOM     11  C   UNL     1       3.352   2.053  18.471  0.00  0.00    +0.000 A 
ATOM     12  N   UNL     1       3.651   3.333  18.162  0.00  0.00    +0.000 NA
ENDROOT
BRANCH   4  13
ATOM     13  C   UNL     1       2.004   9.086  18.037  0.00  0.00    +0.000 C 
ATOM     14  O   UNL     1       2.397  10.031  17.360  0.00  0.00    +0.000 OA
ATOM     15  N   UNL     1       0.997   9.137  18.989  0.00  0.00    +0.000 N 
ATOM     16  H   UNL     1       0.900   8.285  19.538  0.00  0.00    +0.000 HD
BRANCH  15  17
ATOM     17  C   UNL     1       0.234  10.272  19.333  0.00  0.00    +0.000 A 
ATOM     18  C   UNL     1       0.692  11.251  20.222  0.00  0.00    +0.000 A 
ATOM     19  C   UNL     1      -0.124  12.327  20.575  0.00  0.00    +0.000 A 
ATOM     20 CL   UNL     1       0.462  13.510  21.681  0.00  0.00    +0.000 Cl
ATOM     21  C   UNL     1      -1.402  12.450  20.047  0.00  0.00    +0.000 A 
ATOM     22  C   UNL     1      -1.848  11.495  19.138  0.00  0.00    +0.000 A 
ATOM     23 CL   UNL     1      -3.434  11.635  18.480  0.00  0.00    +0.000 Cl
ATOM     24  C   UNL     1      -1.035  10.419  18.766  0.00  0.00    +0.000 A 
ENDBRANCH  15  17
ENDBRANCH   4  13
TORSDOF 2
ENDMDL
MODEL 9
REMARK VINA RESULT:      -7.4      3.902      8.429
REMARK  Name = 
REMARK  3 active torsions:
REMARK  status: ('A' for Active; 'I' for Inactive)
REMARK    1  A    between atoms: C_1  and  C_2
REMARK    2  A    between atoms: C_4  and  C_5
REMARK    3  A    between atoms: N_7  and  C_8
REMARK                            x       y       z     vdW  Elec       q    Type
REMARK                         _______ _______ _______ _____ _____    ______ ____
ROOT
ATOM      1  C   UNL     1      -0.060   9.646  23.177  0.00  0.00    +0.000 C 
ATOM      2  C   UNL     1       0.463   9.585  21.789  0.00  0.00    +0.000 A 
ATOM      3  C   UNL     1       1.035   8.521  21.133  0.00  0.00    +0.000 A 
ATOM      4  C   UNL     1       1.325   8.975  19.827  0.00  0.00    +0.000 A 
ATOM      5  N   UNL     1       0.962  10.262  19.666  0.00  0.00    +0.000 NA
ATOM      6  N   UNL     1       0.460  10.642  20.887  0.00  0.00    +0.000 N 
ATOM      7  C   UNL     1       0.037  11.995  21.119  0.00  0.00    +0.000 A 
ATOM      8  C   UNL     1       0.040  12.893  20.052  0.00  0.00    +0.000 A 
ATOM      9  C   UNL     1      -0.324  14.216  20.287  0.00  0.00    +0.000 A 
ATOM     10  C   UNL     1      -0.675  14.612  21.571  0.00  0.00    +0.000 A 
ATOM     11  C   UNL     1      -0.664  13.661  22.575  0.00  0.00    +0.000 A 
ATOM     12  N   UNL     1      -0.324  12.369  22.376  0.00  0.00    +0.000 NA
ENDROOT
BRANCH   4  13
ATOM     13  C   UNL     1       1.950   8.172  18.765  0.00  0.00    +0.000 C 
ATOM     14  O   UNL     1       2.024   8.609  17.621  0.00  0.00    +0.000 OA
ATOM     15  N   UNL     1       2.377   6.920  19.183  0.00  0.00    +0.000 N 
ATOM     16  H   UNL     1       2.115   6.690  20.139  0.00  0.00    +0.000 HD
BRANCH  15  17
ATOM     17  C   UNL     1       2.988   5.939  18.376  0.00  0.00    +0.000 A 
ATOM     18  C   UNL     1       2.527   4.619  18.309  0.00  0.00    +0.000 A 
ATOM     19  C   UNL     1       3.202   3.670  17.540  0.00  0.00    +0.000 A 
ATOM     20 CL   UNL     1       2.618   2.051  17.485  0.00  0.00    +0.000 Cl
ATOM     21  C   UNL     1       4.339   4.017  16.822  0.00  0.00    +0.000 A 
ATOM     22  C   UNL     1       4.781   5.336  16.862  0.00  0.00    +0.000 A 
ATOM     23 CL   UNL     1       6.194   5.776  15.980  0.00  0.00    +0.000 Cl
ATOM     24  C   UNL     1       4.106   6.300  17.618  0.00  0.00    +0.000 A 
ENDBRANCH  15  17
ENDBRANCH   4  13
TORSDOF 2
ENDMDL
