MODEL 1
REMARK VINA RESULT:      -6.8      0.000      0.000
REMARK  Name = 
REMARK  6 active torsions:
REMARK  status: ('A' for Active; 'I' for Inactive)
REMARK    1  A    between atoms: C_1  and  O_2
REMARK    2  A    between atoms: O_2  and  C_3
REMARK    3  A    between atoms: N_9  and  C_10
REMARK    4  A    between atoms: C_11  and  C_12
REMARK    5  A    between atoms: C_11  and  C_13
REMARK    6  A    between atoms: C_15  and  C_16
REMARK                            x       y       z     vdW  Elec       q    Type
REMARK                         _______ _______ _______ _____ _____    ______ ____
ROOT
ATOM      1  C   UNL     1       4.308   4.781  17.236  0.00  0.00    +0.000 A 
ATOM      2  C   UNL     1       4.706   6.025  16.706  0.00  0.00    +0.000 A 
ATOM      3  C   UNL     1       4.293   7.216  17.278  0.00  0.00    +0.000 A 
ATOM      4  C   UNL     1       3.439   7.168  18.365  0.00  0.00    +0.000 A 
ATOM      5  C   UNL     1       3.005   5.946  18.917  0.00  0.00    +0.000 A 
ATOM      6  C   UNL     1       3.462   4.692  18.398  0.00  0.00    +0.000 A 
ATOM      7  N   UNL     1       3.097   3.496  19.050  0.00  0.00    +0.000 N 
ATOM      8  C   UNL     1       3.594   2.182  18.632  0.00  0.00    +0.000 C 
ATOM      9  C   UNL     1       2.074   3.480  20.134  0.00  0.00    +0.000 C 
ATOM     10  C   UNL     1       0.797   2.756  19.659  0.00  0.00    +0.000 C 
ATOM     11  C   UNL     1       2.626   2.792  21.401  0.00  0.00    +0.000 C 
ATOM     12  C   UNL     1       1.646   4.852  20.573  0.00  0.00    +0.000 C 
ATOM     13  C   UNL     1       2.054   6.009  20.044  0.00  0.00    +0.000 C 
ATOM     14  C   UNL     1       1.519   7.315  20.556  0.00  0.00    +0.000 C 
ENDROOT
BRANCH   1  16
ATOM     15  C   UNL     1       5.806   3.729  15.699  0.00  0.00    +0.000 C 
ATOM     16  O   UNL     1       4.677   3.635  16.563  0.00  0.00    +0.000 OA
ENDBRANCH   1  16
TORSDOF 1
ENDMDL
MODEL 2
REMARK VINA RESULT:      -6.5      1.641      4.300
REMARK  Name = 
REMARK  6 active torsions:
REMARK  status: ('A' for Active; 'I' for Inactive)
REMARK    1  A    between atoms: C_1  and  O_2
REMARK    2  A    between atoms: O_2  and  C_3
REMARK    3  A    between atoms: N_9  and  C_10
REMARK    4  A    between atoms: C_11  and  C_12
REMARK    5  A    between atoms: C_11  and  C_13
REMARK    6  A    between atoms: C_15  and  C_16
REMARK                            x       y       z     vdW  Elec       q    Type
REMARK                         _______ _______ _______ _____ _____    ______ ____
ROOT
ATOM      1  C   UNL     1       3.947   3.995  19.626  0.00  0.00    +0.000 A 
ATOM      2  C   UNL     1       2.849   3.905  20.505  0.00  0.00    +0.000 A 
ATOM      3  C   UNL     1       1.858   4.871  20.520  0.00  0.00    +0.000 A 
ATOM      4  C   UNL     1       1.984   5.962  19.679  0.00  0.00    +0.000 A 
ATOM      5  C   UNL     1       3.073   6.100  18.796  0.00  0.00    +0.000 A 
ATOM      6  C   UNL     1       4.084   5.090  18.701  0.00  0.00    +0.000 A 
ATOM      7  N   UNL     1       5.095   5.208  17.724  0.00  0.00    +0.000 N 
ATOM      8  C   UNL     1       6.113   4.176  17.508  0.00  0.00    +0.000 C 
ATOM      9  C   UNL     1       5.268   6.459  16.930  0.00  0.00    +0.000 C 
ATOM     10  C   UNL     1       6.580   7.169  17.326  0.00  0.00    +0.000 C 
ATOM     11  C   UNL     1       5.273   6.153  15.417  0.00  0.00    +0.000 C 
ATOM     12  C   UNL     1       4.165   7.457  17.138  0.00  0.00    +0.000 C 
ATOM     13  C   UNL     1       3.137   7.328  17.980  0.00  0.00    +0.000 C 
ATOM     14  C   UNL     1       2.116   8.422  18.116  0.00  0.00    +0.000 C 
ENDROOT
BRANCH   1  16
ATOM     15  C   UNL     1       4.614   1.828  20.381  0.00  0.00    +0.000 C 
ATOM     16  O   UNL     1       4.946   3.050  19.729  0.00  0.00    +0.000 OA
ENDBRANCH   1  16
TORSDOF 1
ENDMDL
MODEL 3
REMARK VINA RESULT:      -6.4      1.875      3.926
REMARK  Name = 
REMARK  6 active torsions:
REMARK  status: ('A' for Active; 'I' for Inactive)
REMARK    1  A    between atoms: C_1  and  O_2
REMARK    2  A    between atoms: O_2  and  C_3
REMARK    3  A    between atoms: N_9  and  C_10
REMARK    4  A    between atoms: C_11  and  C_12
REMARK    5  A    between atoms: C_11  and  C_13
REMARK    6  A    between atoms: C_15  and  C_16
REMARK                            x       y       z     vdW  Elec       q    Type
REMARK                         _______ _______ _______ _____ _____    ______ ____
ROOT
ATOM      1  C   UNL     1       2.209   6.727  19.558  0.00  0.00    +0.000 A 
ATOM      2  C   UNL     1       2.464   7.923  18.857  0.00  0.00    +0.000 A 
ATOM      3  C   UNL     1       3.187   7.925  17.677  0.00  0.00    +0.000 A 
ATOM      4  C   UNL     1       3.699   6.727  17.211  0.00  0.00    +0.000 A 
ATOM      5  C   UNL     1       3.481   5.512  17.888  0.00  0.00    +0.000 A 
ATOM      6  C   UNL     1       2.682   5.455  19.075  0.00  0.00    +0.000 A 
ATOM      7  N   UNL     1       2.391   4.204  19.659  0.00  0.00    +0.000 N 
ATOM      8  C   UNL     1       1.511   4.057  20.822  0.00  0.00    +0.000 C 
ATOM      9  C   UNL     1       3.067   2.956  19.203  0.00  0.00    +0.000 C 
ATOM     10  C   UNL     1       4.017   2.428  20.298  0.00  0.00    +0.000 C 
ATOM     11  C   UNL     1       2.031   1.870  18.839  0.00  0.00    +0.000 C 
ATOM     12  C   UNL     1       3.904   3.145  17.969  0.00  0.00    +0.000 C 
ATOM     13  C   UNL     1       4.115   4.300  17.333  0.00  0.00    +0.000 C 
ATOM     14  C   UNL     1       5.006   4.357  16.125  0.00  0.00    +0.000 C 
ENDROOT
BRANCH   1  16
ATOM     15  C   UNL     1       1.138   8.099  21.196  0.00  0.00    +0.000 C 
ATOM     16  O   UNL     1       1.566   6.807  20.775  0.00  0.00    +0.000 OA
ENDBRANCH   1  16
TORSDOF 1
ENDMDL
MODEL 4
REMARK VINA RESULT:      -6.0      2.002      4.526
REMARK  Name = 
REMARK  6 active torsions:
REMARK  status: ('A' for Active; 'I' for Inactive)
REMARK    1  A    between atoms: C_1  and  O_2
REMARK    2  A    between atoms: O_2  and  C_3
REMARK    3  A    between atoms: N_9  and  C_10
REMARK    4  A    between atoms: C_11  and  C_12
REMARK    5  A    between atoms: C_11  and  C_13
REMARK    6  A    between atoms: C_15  and  C_16
REMARK                            x       y       z     vdW  Elec       q    Type
REMARK                         _______ _______ _______ _____ _____    ______ ____
ROOT
ATOM      1  C   UNL     1       2.934   7.083  18.700  0.00  0.00    +0.000 A 
ATOM      2  C   UNL     1       1.965   7.134  19.721  0.00  0.00    +0.000 A 
ATOM      3  C   UNL     1       1.792   6.081  20.602  0.00  0.00    +0.000 A 
ATOM      4  C   UNL     1       2.565   4.946  20.437  0.00  0.00    +0.000 A 
ATOM      5  C   UNL     1       3.535   4.847  19.420  0.00  0.00    +0.000 A 
ATOM      6  C   UNL     1       3.792   5.939  18.530  0.00  0.00    +0.000 A 
ATOM      7  N   UNL     1       4.849   5.845  17.600  0.00  0.00    +0.000 N 
ATOM      8  C   UNL     1       5.228   6.951  16.717  0.00  0.00    +0.000 C 
ATOM      9  C   UNL     1       5.569   4.560  17.368  0.00  0.00    +0.000 C 
ATOM     10  C   UNL     1       5.251   4.013  15.961  0.00  0.00    +0.000 C 
ATOM     11  C   UNL     1       7.093   4.749  17.525  0.00  0.00    +0.000 C 
ATOM     12  C   UNL     1       5.193   3.479  18.340  0.00  0.00    +0.000 C 
ATOM     13  C   UNL     1       4.268   3.572  19.300  0.00  0.00    +0.000 C 
ATOM     14  C   UNL     1       3.964   2.399  20.187  0.00  0.00    +0.000 C 
ENDROOT
BRANCH   1  16
ATOM     15  C   UNL     1       1.920   9.067  17.834  0.00  0.00    +0.000 C 
ATOM     16  O   UNL     1       2.988   8.126  17.798  0.00  0.00    +0.000 OA
ENDBRANCH   1  16
TORSDOF 1
ENDMDL
MODEL 5
REMARK VINA RESULT:      -5.9      1.498      4.086
REMARK  Name = 
REMARK  6 active torsions:
REMARK  status: ('A' for Active; 'I' for Inactive)
REMARK    1  A    between atoms: C_1  and  O_2
REMARK    2  A    between atoms: O_2  and  C_3
REMARK    3  A    between atoms: N_9  and  C_10
REMARK    4  A    between atoms: C_11  and  C_12
REMARK    5  A    between atoms: C_11  and  C_13
REMARK    6  A    between atoms: C_15  and  C_16
REMARK                            x       y       z     vdW  Elec       q    Type
REMARK                         _______ _______ _______ _____ _____    ______ ____
ROOT
ATOM      1  C   UNL     1       2.981   3.018  18.077  0.00  0.00    +0.000 A 
ATOM      2  C   UNL     1       1.814   2.758  18.822  0.00  0.00    +0.000 A 
ATOM      3  C   UNL     1       1.035   3.788  19.321  0.00  0.00    +0.000 A 
ATOM      4  C   UNL     1       1.447   5.092  19.111  0.00  0.00    +0.000 A 
ATOM      5  C   UNL     1       2.616   5.395  18.385  0.00  0.00    +0.000 A 
ATOM      6  C   UNL     1       3.413   4.362  17.795  0.00  0.00    +0.000 A 
ATOM      7  N   UNL     1       4.510   4.711  16.979  0.00  0.00    +0.000 N 
ATOM      8  C   UNL     1       5.319   3.715  16.271  0.00  0.00    +0.000 C 
ATOM      9  C   UNL     1       4.996   6.117  16.886  0.00  0.00    +0.000 C 
ATOM     10  C   UNL     1       6.381   6.253  17.551  0.00  0.00    +0.000 C 
ATOM     11  C   UNL     1       5.074   6.576  15.414  0.00  0.00    +0.000 C 
ATOM     12  C   UNL     1       4.096   7.107  17.571  0.00  0.00    +0.000 C 
ATOM     13  C   UNL     1       2.992   6.817  18.264  0.00  0.00    +0.000 C 
ATOM     14  C   UNL     1       2.200   7.904  18.931  0.00  0.00    +0.000 C 
ENDROOT
BRANCH   1  16
ATOM     15  C   UNL     1       4.076   0.983  18.692  0.00  0.00    +0.000 C 
ATOM     16  O   UNL     1       3.762   1.948  17.692  0.00  0.00    +0.000 OA
ENDBRANCH   1  16
TORSDOF 1
ENDMDL
MODEL 6
REMARK VINA RESULT:      -5.9      1.854      4.760
REMARK  Name = 
REMARK  6 active torsions:
REMARK  status: ('A' for Active; 'I' for Inactive)
REMARK    1  A    between atoms: C_1  and  O_2
REMARK    2  A    between atoms: O_2  and  C_3
REMARK    3  A    between atoms: N_9  and  C_10
REMARK    4  A    between atoms: C_11  and  C_12
REMARK    5  A    between atoms: C_11  and  C_13
REMARK    6  A    between atoms: C_15  and  C_16
REMARK                            x       y       z     vdW  Elec       q    Type
REMARK                         _______ _______ _______ _____ _____    ______ ____
ROOT
ATOM      1  C   UNL     1       3.007   6.633  18.686  0.00  0.00    +0.000 A 
ATOM      2  C   UNL     1       2.004   6.403  19.649  0.00  0.00    +0.000 A 
ATOM      3  C   UNL     1       1.695   5.123  20.074  0.00  0.00    +0.000 A 
ATOM      4  C   UNL     1       2.363   4.055  19.502  0.00  0.00    +0.000 A 
ATOM      5  C   UNL     1       3.361   4.239  18.525  0.00  0.00    +0.000 A 
ATOM      6  C   UNL     1       3.759   5.550  18.106  0.00  0.00    +0.000 A 
ATOM      7  N   UNL     1       4.841   5.696  17.213  0.00  0.00    +0.000 N 
ATOM      8  C   UNL     1       5.361   7.005  16.806  0.00  0.00    +0.000 C 
ATOM      9  C   UNL     1       5.445   4.521  16.522  0.00  0.00    +0.000 C 
ATOM     10  C   UNL     1       5.136   4.568  15.011  0.00  0.00    +0.000 C 
ATOM     11  C   UNL     1       6.972   4.478  16.744  0.00  0.00    +0.000 C 
ATOM     12  C   UNL     1       4.926   3.202  17.021  0.00  0.00    +0.000 C 
ATOM     13  C   UNL     1       3.975   3.030  17.943  0.00  0.00    +0.000 C 
ATOM     14  C   UNL     1       3.523   1.650  18.327  0.00  0.00    +0.000 C 
ENDROOT
BRANCH   1  16
ATOM     15  C   UNL     1       2.040   8.648  17.839  0.00  0.00    +0.000 C 
ATOM     16  O   UNL     1       3.199   7.923  18.237  0.00  0.00    +0.000 OA
ENDBRANCH   1  16
TORSDOF 1
ENDMDL
MODEL 7
REMARK VINA RESULT:      -5.8      2.002      4.153
REMARK  Name = 
REMARK  6 active torsions:
REMARK  status: ('A' for Active; 'I' for Inactive)
REMARK    1  A    between atoms: C_1  and  O_2
REMARK    2  A    between atoms: O_2  and  C_3
REMARK    3  A    between atoms: N_9  and  C_10
REMARK    4  A    between atoms: C_11  and  C_12
REMARK    5  A    between atoms: C_11  and  C_13
REMARK    6  A    between atoms: C_15  and  C_16
REMARK                            x       y       z     vdW  Elec       q    Type
REMARK                         _______ _______ _______ _____ _____    ______ ____
ROOT
ATOM      1  C   UNL     1       2.321   7.882  18.985  0.00  0.00    +0.000 A 
ATOM      2  C   UNL     1       1.439   8.408  19.949  0.00  0.00    +0.000 A 
ATOM      3  C   UNL     1       1.014   7.649  21.026  0.00  0.00    +0.000 A 
ATOM      4  C   UNL     1       1.441   6.337  21.121  0.00  0.00    +0.000 A 
ATOM      5  C   UNL     1       2.311   5.767  20.171  0.00  0.00    +0.000 A 
ATOM      6  C   UNL     1       2.827   6.536  19.079  0.00  0.00    +0.000 A 
ATOM      7  N   UNL     1       3.785   5.965  18.216  0.00  0.00    +0.000 N 
ATOM      8  C   UNL     1       4.423   6.715  17.131  0.00  0.00    +0.000 C 
ATOM      9  C   UNL     1       4.117   4.512  18.274  0.00  0.00    +0.000 C 
ATOM     10  C   UNL     1       3.613   3.794  17.005  0.00  0.00    +0.000 C 
ATOM     11  C   UNL     1       5.639   4.302  18.426  0.00  0.00    +0.000 C 
ATOM     12  C   UNL     1       3.492   3.802  19.442  0.00  0.00    +0.000 C 
ATOM     13  C   UNL     1       2.662   4.343  20.338  0.00  0.00    +0.000 C 
ATOM     14  C   UNL     1       2.079   3.509  21.442  0.00  0.00    +0.000 C 
ENDROOT
BRANCH   1  16
ATOM     15  C   UNL     1       1.991   9.929  17.796  0.00  0.00    +0.000 C 
ATOM     16  O   UNL     1       2.629   8.658  17.887  0.00  0.00    +0.000 OA
ENDBRANCH   1  16
TORSDOF 1
ENDMDL
MODEL 8
REMARK VINA RESULT:      -5.6      1.494      3.537
REMARK  Name = 
REMARK  6 active torsions:
REMARK  status: ('A' for Active; 'I' for Inactive)
REMARK    1  A    between atoms: C_1  and  O_2
REMARK    2  A    between atoms: O_2  and  C_3
REMARK    3  A    between atoms: N_9  and  C_10
REMARK    4  A    between atoms: C_11  and  C_12
REMARK    5  A    between atoms: C_11  and  C_13
REMARK    6  A    between atoms: C_15  and  C_16
REMARK                            x       y       z     vdW  Elec       q    Type
REMARK                         _______ _______ _______ _____ _____    ______ ____
ROOT
ATOM      1  C   UNL     1       3.624   6.187  18.012  0.00  0.00    +0.000 A 
ATOM      2  C   UNL     1       4.496   6.220  16.906  0.00  0.00    +0.000 A 
ATOM      3  C   UNL     1       4.957   5.055  16.317  0.00  0.00    +0.000 A 
ATOM      4  C   UNL     1       4.577   3.842  16.863  0.00  0.00    +0.000 A 
ATOM      5  C   UNL     1       3.720   3.764  17.978  0.00  0.00    +0.000 A 
ATOM      6  C   UNL     1       3.167   4.942  18.575  0.00  0.00    +0.000 A 
ATOM      7  N   UNL     1       2.222   4.817  19.615  0.00  0.00    +0.000 N 
ATOM      8  C   UNL     1       1.548   5.972  20.217  0.00  0.00    +0.000 C 
ATOM      9  C   UNL     1       1.942   3.502  20.259  0.00  0.00    +0.000 C 
ATOM     10  C   UNL     1       2.459   3.494  21.712  0.00  0.00    +0.000 C 
ATOM     11  C   UNL     1       0.429   3.192  20.239  0.00  0.00    +0.000 C 
ATOM     12  C   UNL     1       2.601   2.344  19.565  0.00  0.00    +0.000 C 
ATOM     13  C   UNL     1       3.420   2.421  18.513  0.00  0.00    +0.000 C 
ATOM     14  C   UNL     1       4.042   1.183  17.934  0.00  0.00    +0.000 C 
ENDROOT
BRANCH   1  16
ATOM     15  C   UNL     1       2.593   8.333  17.802  0.00  0.00    +0.000 C 
ATOM     16  O   UNL     1       3.280   7.381  18.610  0.00  0.00    +0.000 OA
ENDBRANCH   1  16
TORSDOF 1
ENDMDL
MODEL 9
REMARK VINA RESULT:      -5.5      1.538      4.221
REMARK  Name = 
REMARK  6 active torsions:
REMARK  status: ('A' for Active; 'I' for Inactive)
REMARK    1  A    between atoms: C_1  and  O_2
REMARK    2  A    between atoms: O_2  and  C_3
REMARK    3  A    between atoms: N_9  and  C_10
REMARK    4  A    between atoms: C_11  and  C_12
REMARK    5  A    between atoms: C_11  and  C_13
REMARK    6  A    between atoms: C_15  and  C_16
REMARK                            x       y       z     vdW  Elec       q    Type
REMARK                         _______ _______ _______ _____ _____    ______ ____
ROOT
ATOM      1  C   UNL     1       2.713   4.297  20.270  0.00  0.00    +0.000 A 
ATOM      2  C   UNL     1       1.767   5.064  20.979  0.00  0.00    +0.000 A 
ATOM      3  C   UNL     1       1.467   6.362  20.604  0.00  0.00    +0.000 A 
ATOM      4  C   UNL     1       2.148   6.917  19.535  0.00  0.00    +0.000 A 
ATOM      5  C   UNL     1       3.111   6.190  18.809  0.00  0.00    +0.000 A 
ATOM      6  C   UNL     1       3.403   4.823  19.121  0.00  0.00    +0.000 A 
ATOM      7  N   UNL     1       4.288   4.095  18.299  0.00  0.00    +0.000 N 
ATOM      8  C   UNL     1       4.569   2.671  18.502  0.00  0.00    +0.000 C 
ATOM      9  C   UNL     1       5.097   4.766  17.241  0.00  0.00    +0.000 C 
ATOM     10  C   UNL     1       6.593   4.752  17.618  0.00  0.00    +0.000 C 
ATOM     11  C   UNL     1       4.895   4.075  15.875  0.00  0.00    +0.000 C 
ATOM     12  C   UNL     1       4.726   6.205  17.025  0.00  0.00    +0.000 C 
ATOM     13  C   UNL     1       3.816   6.894  17.720  0.00  0.00    +0.000 C 
ATOM     14  C   UNL     1       3.565   8.345  17.423  0.00  0.00    +0.000 C 
ENDROOT
BRANCH   1  16
ATOM     15  C   UNL     1       2.150   2.478  21.716  0.00  0.00    +0.000 C 
ATOM     16  O   UNL     1       3.034   3.046  20.754  0.00  0.00    +0.000 OA
ENDBRANCH   1  16
TORSDOF 1
ENDMDL
