MODEL 1
REMARK VINA RESULT:      -7.4      0.000      0.000
REMARK  Name = 
REMARK  15 active torsions:
REMARK  status: ('A' for Active; 'I' for Inactive)
REMARK    1  A    between atoms: C_1  and  C_2
REMARK    2  A    between atoms: C_2  and  C_3
REMARK    3  A    between atoms: C_3  and  C_4
REMARK    4  A    between atoms: C_4  and  O_5
REMARK    5  A    between atoms: C_4  and  C_6
REMARK    6  A    between atoms: C_4  and  C_9
REMARK    7  A    between atoms: C_6  and  C_7
REMARK    8  A    between atoms: C_7  and  C_8
REMARK    9  A    between atoms: C_9  and  C_10
REMARK   10  A    between atoms: C_9  and  N_22
REMARK   11  A    between atoms: C_10  and  C_11
REMARK   12  A    between atoms: N_13  and  C_14
REMARK   13  A    between atoms: C_14  and  C_15
REMARK   14  A    between atoms: N_22  and  C_23
REMARK   15  A    between atoms: C_23  and  C_24
REMARK                            x       y       z     vdW  Elec       q    Type
REMARK                         _______ _______ _______ _____ _____    ______ ____
ROOT
ATOM      1  C   UNL     1      -1.285  11.355  18.155  0.00  0.00    +0.000 C 
ENDROOT
BRANCH   1   2
ATOM      2  N   UNL     1      -0.231  10.444  17.671  0.00  0.00    +0.000 NA
ATOM      3  H   UNL     1      -0.129  10.626  16.668  0.00  0.00    +0.000 HD
BRANCH   2   4
ATOM      4  C   UNL     1       1.064  10.544  18.348  0.00  0.00    +0.000 C 
BRANCH   4   5
ATOM      5  C   UNL     1       1.261   9.575  19.524  0.00  0.00    +0.000 A 
ATOM      6  C   UNL     1       1.895   8.315  19.251  0.00  0.00    +0.000 A 
ATOM      7  C   UNL     1       2.598   8.013  18.055  0.00  0.00    +0.000 A 
ATOM      8  C   UNL     1       3.138   6.749  17.804  0.00  0.00    +0.000 A 
ATOM      9  C   UNL     1       3.009   5.746  18.753  0.00  0.00    +0.000 A 
ATOM     10  C   UNL     1       2.353   6.019  19.953  0.00  0.00    +0.000 A 
ATOM     11  C   UNL     1       1.795   7.283  20.210  0.00  0.00    +0.000 A 
ATOM     12  C   UNL     1       1.096   7.511  21.403  0.00  0.00    +0.000 A 
ATOM     13  C   UNL     1       0.532   8.759  21.705  0.00  0.00    +0.000 A 
ATOM     14  C   UNL     1      -0.229   8.932  22.874  0.00  0.00    +0.000 A 
ATOM     15  C   UNL     1      -0.799  10.168  23.191  0.00  0.00    +0.000 A 
ATOM     16  C   UNL     1      -0.526  11.267  22.397  0.00  0.00    +0.000 A 
ATOM     17  C   UNL     1       0.246  11.104  21.250  0.00  0.00    +0.000 A 
ATOM     18  C   UNL     1       0.699   9.835  20.811  0.00  0.00    +0.000 A 
ENDBRANCH   4   5
ENDBRANCH   2   4
ENDBRANCH   1   2
BRANCH   1  19
ATOM     19  C   UNL     1      -2.707  10.898  17.583  0.00  0.00    +0.000 C 
BRANCH  19  20
ATOM     20  O   UNL     1      -2.877   9.497  17.870  0.00  0.00    +0.000 OA
ATOM     21  H   UNL     1      -2.277   8.985  17.304  0.00  0.00    +0.000 HD
ENDBRANCH  19  20
BRANCH  19  22
ATOM     22  C   UNL     1      -3.869  11.646  18.310  0.00  0.00    +0.000 C 
BRANCH  22  24
ATOM     23  C   UNL     1      -6.360  11.198  18.144  0.00  0.00    +0.000 C 
ATOM     24  C   UNL     1      -5.152  11.853  17.483  0.00  0.00    +0.000 C 
ENDBRANCH  22  24
ENDBRANCH  19  22
BRANCH  19  25
ATOM     25  C   UNL     1      -2.779  11.073  16.042  0.00  0.00    +0.000 C 
BRANCH  25  26
ATOM     26  C   UNL     1      -2.968   9.773  15.253  0.00  0.00    +0.000 C 
ATOM     27  C   UNL     1      -3.327  10.043  13.801  0.00  0.00    +0.000 C 
ENDBRANCH  25  26
ENDBRANCH  19  25
ENDBRANCH   1  19
BRANCH   1  28
ATOM     28  C   UNL     1      -0.958  12.866  17.900  0.00  0.00    +0.000 C 
BRANCH  28  29
ATOM     29  C   UNL     1      -0.558  13.697  19.090  0.00  0.00    +0.000 A 
ATOM     30  C   UNL     1      -1.389  14.221  20.062  0.00  0.00    +0.000 A 
ATOM     31  N   UNL     1      -0.629  14.864  21.001  0.00  0.00    +0.000 N 
ATOM     32  C   UNL     1       0.691  14.878  20.607  0.00  0.00    +0.000 A 
ATOM     33  C   UNL     1       1.825  15.461  21.194  0.00  0.00    +0.000 A 
ATOM     34  C   UNL     1       3.053  15.319  20.547  0.00  0.00    +0.000 A 
ATOM     35  C   UNL     1       3.154  14.609  19.351  0.00  0.00    +0.000 A 
ATOM     36  C   UNL     1       2.020  14.025  18.781  0.00  0.00    +0.000 A 
ATOM     37  C   UNL     1       0.763  14.156  19.410  0.00  0.00    +0.000 A 
BRANCH  31  38
ATOM     38  C   UNL     1      -1.182  15.470  22.201  0.00  0.00    +0.000 C 
ATOM     39  C   UNL     1      -2.070  14.517  22.982  0.00  0.00    +0.000 C 
ENDBRANCH  31  38
ENDBRANCH  28  29
ENDBRANCH   1  28
TORSDOF 12
ENDMDL
MODEL 2
REMARK VINA RESULT:      -7.1      0.653      2.142
REMARK  Name = 
REMARK  15 active torsions:
REMARK  status: ('A' for Active; 'I' for Inactive)
REMARK    1  A    between atoms: C_1  and  C_2
REMARK    2  A    between atoms: C_2  and  C_3
REMARK    3  A    between atoms: C_3  and  C_4
REMARK    4  A    between atoms: C_4  and  O_5
REMARK    5  A    between atoms: C_4  and  C_6
REMARK    6  A    between atoms: C_4  and  C_9
REMARK    7  A    between atoms: C_6  and  C_7
REMARK    8  A    between atoms: C_7  and  C_8
REMARK    9  A    between atoms: C_9  and  C_10
REMARK   10  A    between atoms: C_9  and  N_22
REMARK   11  A    between atoms: C_10  and  C_11
REMARK   12  A    between atoms: N_13  and  C_14
REMARK   13  A    between atoms: C_14  and  C_15
REMARK   14  A    between atoms: N_22  and  C_23
REMARK   15  A    between atoms: C_23  and  C_24
REMARK                            x       y       z     vdW  Elec       q    Type
REMARK                         _______ _______ _______ _____ _____    ______ ____
ROOT
ATOM      1  C   UNL     1      -1.325  11.379  18.103  0.00  0.00    +0.000 C 
ENDROOT
BRANCH   1   2
ATOM      2  N   UNL     1      -0.239  10.477  17.676  0.00  0.00    +0.000 NA
ATOM      3  H   UNL     1      -0.108  10.634  16.673  0.00  0.00    +0.000 HD
BRANCH   2   4
ATOM      4  C   UNL     1       1.032  10.620  18.390  0.00  0.00    +0.000 C 
BRANCH   4   5
ATOM      5  C   UNL     1       1.240   9.639  19.554  0.00  0.00    +0.000 A 
ATOM      6  C   UNL     1       1.885   8.388  19.263  0.00  0.00    +0.000 A 
ATOM      7  C   UNL     1       2.587   8.107  18.062  0.00  0.00    +0.000 A 
ATOM      8  C   UNL     1       3.138   6.851  17.794  0.00  0.00    +0.000 A 
ATOM      9  C   UNL     1       3.021   5.835  18.731  0.00  0.00    +0.000 A 
ATOM     10  C   UNL     1       2.365   6.087  19.936  0.00  0.00    +0.000 A 
ATOM     11  C   UNL     1       1.797   7.342  20.210  0.00  0.00    +0.000 A 
ATOM     12  C   UNL     1       1.098   7.549  21.407  0.00  0.00    +0.000 A 
ATOM     13  C   UNL     1       0.524   8.788  21.726  0.00  0.00    +0.000 A 
ATOM     14  C   UNL     1      -0.237   8.939  22.899  0.00  0.00    +0.000 A 
ATOM     15  C   UNL     1      -0.817  10.166  23.233  0.00  0.00    +0.000 A 
ATOM     16  C   UNL     1      -0.556  11.277  22.452  0.00  0.00    +0.000 A 
ATOM     17  C   UNL     1       0.215  11.136  21.301  0.00  0.00    +0.000 A 
ATOM     18  C   UNL     1       0.678   9.877  20.846  0.00  0.00    +0.000 A 
ENDBRANCH   4   5
ENDBRANCH   2   4
ENDBRANCH   1   2
BRANCH   1  19
ATOM     19  C   UNL     1      -2.714  10.897  17.474  0.00  0.00    +0.000 C 
BRANCH  19  20
ATOM     20  O   UNL     1      -2.894   9.505  17.797  0.00  0.00    +0.000 OA
ATOM     21  H   UNL     1      -2.292   8.975  17.250  0.00  0.00    +0.000 HD
ENDBRANCH  19  20
BRANCH  19  22
ATOM     22  C   UNL     1      -3.914  11.662  18.116  0.00  0.00    +0.000 C 
BRANCH  22  24
ATOM     23  C   UNL     1      -6.386  11.771  18.673  0.00  0.00    +0.000 C 
ATOM     24  C   UNL     1      -5.249  10.894  18.160  0.00  0.00    +0.000 C 
ENDBRANCH  22  24
ENDBRANCH  19  22
BRANCH  19  25
ATOM     25  C   UNL     1      -2.707  11.022  15.926  0.00  0.00    +0.000 C 
BRANCH  25  26
ATOM     26  C   UNL     1      -3.310   9.826  15.180  0.00  0.00    +0.000 C 
ATOM     27  C   UNL     1      -3.071   9.920  13.682  0.00  0.00    +0.000 C 
ENDBRANCH  25  26
ENDBRANCH  19  25
ENDBRANCH   1  19
BRANCH   1  28
ATOM     28  C   UNL     1      -1.007  12.891  17.845  0.00  0.00    +0.000 C 
BRANCH  28  29
ATOM     29  C   UNL     1      -0.543  13.709  19.022  0.00  0.00    +0.000 A 
ATOM     30  C   UNL     1       0.713  14.250  19.222  0.00  0.00    +0.000 A 
ATOM     31  N   UNL     1       0.709  14.972  20.384  0.00  0.00    +0.000 N 
ATOM     32  C   UNL     1      -0.501  14.822  21.026  0.00  0.00    +0.000 A 
ATOM     33  C   UNL     1      -0.960  15.310  22.259  0.00  0.00    +0.000 A 
ATOM     34  C   UNL     1      -2.254  14.977  22.663  0.00  0.00    +0.000 A 
ATOM     35  C   UNL     1      -3.074  14.188  21.858  0.00  0.00    +0.000 A 
ATOM     36  C   UNL     1      -2.610  13.717  20.627  0.00  0.00    +0.000 A 
ATOM     37  C   UNL     1      -1.304  14.032  20.194  0.00  0.00    +0.000 A 
BRANCH  31  38
ATOM     38  C   UNL     1       1.853  15.732  20.859  0.00  0.00    +0.000 C 
ATOM     39  C   UNL     1       1.958  17.100  20.207  0.00  0.00    +0.000 C 
ENDBRANCH  31  38
ENDBRANCH  28  29
ENDBRANCH   1  28
TORSDOF 12
ENDMDL
MODEL 3
REMARK VINA RESULT:      -7.0      2.722      5.995
REMARK  Name = 
REMARK  15 active torsions:
REMARK  status: ('A' for Active; 'I' for Inactive)
REMARK    1  A    between atoms: C_1  and  C_2
REMARK    2  A    between atoms: C_2  and  C_3
REMARK    3  A    between atoms: C_3  and  C_4
REMARK    4  A    between atoms: C_4  and  O_5
REMARK    5  A    between atoms: C_4  and  C_6
REMARK    6  A    between atoms: C_4  and  C_9
REMARK    7  A    between atoms: C_6  and  C_7
REMARK    8  A    between atoms: C_7  and  C_8
REMARK    9  A    between atoms: C_9  and  C_10
REMARK   10  A    between atoms: C_9  and  N_22
REMARK   11  A    between atoms: C_10  and  C_11
REMARK   12  A    between atoms: N_13  and  C_14
REMARK   13  A    between atoms: C_14  and  C_15
REMARK   14  A    between atoms: N_22  and  C_23
REMARK   15  A    between atoms: C_23  and  C_24
REMARK                            x       y       z     vdW  Elec       q    Type
REMARK                         _______ _______ _______ _____ _____    ______ ____
ROOT
ATOM      1  C   UNL     1       1.642   8.719  19.163  0.00  0.00    +0.000 C 
ENDROOT
BRANCH   1   2
ATOM      2  N   UNL     1       1.916   7.573  18.274  0.00  0.00    +0.000 NA
ATOM      3  H   UNL     1       1.122   7.509  17.631  0.00  0.00    +0.000 HD
BRANCH   2   4
ATOM      4  C   UNL     1       3.178   7.624  17.532  0.00  0.00    +0.000 C 
BRANCH   4   5
ATOM      5  C   UNL     1       4.052   6.366  17.646  0.00  0.00    +0.000 A 
ATOM      6  C   UNL     1       3.385   5.101  17.782  0.00  0.00    +0.000 A 
ATOM      7  C   UNL     1       2.002   4.893  17.540  0.00  0.00    +0.000 A 
ATOM      8  C   UNL     1       1.382   3.659  17.754  0.00  0.00    +0.000 A 
ATOM      9  C   UNL     1       2.133   2.582  18.200  0.00  0.00    +0.000 A 
ATOM     10  C   UNL     1       3.502   2.743  18.417  0.00  0.00    +0.000 A 
ATOM     11  C   UNL     1       4.132   3.983  18.217  0.00  0.00    +0.000 A 
ATOM     12  C   UNL     1       5.498   4.127  18.493  0.00  0.00    +0.000 A 
ATOM     13  C   UNL     1       6.169   5.343  18.299  0.00  0.00    +0.000 A 
ATOM     14  C   UNL     1       7.522   5.475  18.660  0.00  0.00    +0.000 A 
ATOM     15  C   UNL     1       8.207   6.678  18.474  0.00  0.00    +0.000 A 
ATOM     16  C   UNL     1       7.576   7.728  17.831  0.00  0.00    +0.000 A 
ATOM     17  C   UNL     1       6.243   7.594  17.452  0.00  0.00    +0.000 A 
ATOM     18  C   UNL     1       5.473   6.449  17.775  0.00  0.00    +0.000 A 
ENDBRANCH   4   5
ENDBRANCH   2   4
ENDBRANCH   1   2
BRANCH   1  19
ATOM     19  C   UNL     1       1.200   8.194  20.608  0.00  0.00    +0.000 C 
BRANCH  19  20
ATOM     20  O   UNL     1       2.224   8.563  21.552  0.00  0.00    +0.000 OA
ATOM     21  H   UNL     1       2.854   7.828  21.634  0.00  0.00    +0.000 HD
ENDBRANCH  19  20
BRANCH  19  22
ATOM     22  C   UNL     1      -0.113   8.896  21.079  0.00  0.00    +0.000 C 
BRANCH  22  24
ATOM     23  C   UNL     1      -0.751  10.362  23.048  0.00  0.00    +0.000 C 
ATOM     24  C   UNL     1      -0.322   8.968  22.603  0.00  0.00    +0.000 C 
ENDBRANCH  22  24
ENDBRANCH  19  22
BRANCH  19  25
ATOM     25  C   UNL     1       1.073   6.647  20.633  0.00  0.00    +0.000 C 
BRANCH  25  26
ATOM     26  C   UNL     1       2.351   5.902  21.035  0.00  0.00    +0.000 C 
ATOM     27  C   UNL     1       2.078   4.436  21.328  0.00  0.00    +0.000 C 
ENDBRANCH  25  26
ENDBRANCH  19  25
ENDBRANCH   1  19
BRANCH   1  28
ATOM     28  C   UNL     1       0.652   9.759  18.539  0.00  0.00    +0.000 C 
BRANCH  28  29
ATOM     29  C   UNL     1       1.000  11.217  18.685  0.00  0.00    +0.000 A 
ATOM     30  C   UNL     1       2.195  11.829  18.359  0.00  0.00    +0.000 A 
ATOM     31  N   UNL     1       2.086  13.174  18.588  0.00  0.00    +0.000 N 
ATOM     32  C   UNL     1       0.872  13.453  19.177  0.00  0.00    +0.000 A 
ATOM     33  C   UNL     1       0.329  14.658  19.649  0.00  0.00    +0.000 A 
ATOM     34  C   UNL     1      -0.944  14.632  20.221  0.00  0.00    +0.000 A 
ATOM     35  C   UNL     1      -1.662  13.440  20.313  0.00  0.00    +0.000 A 
ATOM     36  C   UNL     1      -1.115  12.249  19.831  0.00  0.00    +0.000 A 
ATOM     37  C   UNL     1       0.172  12.243  19.252  0.00  0.00    +0.000 A 
BRANCH  31  38
ATOM     38  C   UNL     1       3.141  14.126  18.284  0.00  0.00    +0.000 C 
ATOM     39  C   UNL     1       3.841  14.641  19.530  0.00  0.00    +0.000 C 
ENDBRANCH  31  38
ENDBRANCH  28  29
ENDBRANCH   1  28
TORSDOF 12
ENDMDL
MODEL 4
REMARK VINA RESULT:      -7.0      2.474      6.348
REMARK  Name = 
REMARK  15 active torsions:
REMARK  status: ('A' for Active; 'I' for Inactive)
REMARK    1  A    between atoms: C_1  and  C_2
REMARK    2  A    between atoms: C_2  and  C_3
REMARK    3  A    between atoms: C_3  and  C_4
REMARK    4  A    between atoms: C_4  and  O_5
REMARK    5  A    between atoms: C_4  and  C_6
REMARK    6  A    between atoms: C_4  and  C_9
REMARK    7  A    between atoms: C_6  and  C_7
REMARK    8  A    between atoms: C_7  and  C_8
REMARK    9  A    between atoms: C_9  and  C_10
REMARK   10  A    between atoms: C_9  and  N_22
REMARK   11  A    between atoms: C_10  and  C_11
REMARK   12  A    between atoms: N_13  and  C_14
REMARK   13  A    between atoms: C_14  and  C_15
REMARK   14  A    between atoms: N_22  and  C_23
REMARK   15  A    between atoms: C_23  and  C_24
REMARK                            x       y       z     vdW  Elec       q    Type
REMARK                         _______ _______ _______ _____ _____    ______ ____
ROOT
ATOM      1  C   UNL     1       1.687   8.770  19.592  0.00  0.00    +0.000 C 
ENDROOT
BRANCH   1   2
ATOM      2  N   UNL     1       2.880   8.104  19.034  0.00  0.00    +0.000 NA
ATOM      3  H   UNL     1       3.267   7.526  19.785  0.00  0.00    +0.000 HD
BRANCH   2   4
ATOM      4  C   UNL     1       2.661   7.304  17.827  0.00  0.00    +0.000 C 
BRANCH   4   5
ATOM      5  C   UNL     1       3.582   6.082  17.680  0.00  0.00    +0.000 A 
ATOM      6  C   UNL     1       2.986   4.780  17.800  0.00  0.00    +0.000 A 
ATOM      7  C   UNL     1       1.589   4.531  17.763  0.00  0.00    +0.000 A 
ATOM      8  C   UNL     1       1.051   3.255  17.955  0.00  0.00    +0.000 A 
ATOM      9  C   UNL     1       1.898   2.179  18.171  0.00  0.00    +0.000 A 
ATOM     10  C   UNL     1       3.278   2.383  18.181  0.00  0.00    +0.000 A 
ATOM     11  C   UNL     1       3.828   3.664  18.001  0.00  0.00    +0.000 A 
ATOM     12  C   UNL     1       5.216   3.847  18.068  0.00  0.00    +0.000 A 
ATOM     13  C   UNL     1       5.807   5.104  17.886  0.00  0.00    +0.000 A 
ATOM     14  C   UNL     1       7.196   5.267  18.037  0.00  0.00    +0.000 A 
ATOM     15  C   UNL     1       7.803   6.512  17.859  0.00  0.00    +0.000 A 
ATOM     16  C   UNL     1       7.044   7.584  17.428  0.00  0.00    +0.000 A 
ATOM     17  C   UNL     1       5.672   7.423  17.255  0.00  0.00    +0.000 A 
ATOM     18  C   UNL     1       5.001   6.219  17.587  0.00  0.00    +0.000 A 
ENDBRANCH   4   5
ENDBRANCH   2   4
ENDBRANCH   1   2
BRANCH   1  19
ATOM     19  C   UNL     1       1.175   7.980  20.885  0.00  0.00    +0.000 C 
BRANCH  19  20
ATOM     20  O   UNL     1       2.118   8.204  21.951  0.00  0.00    +0.000 OA
ATOM     21  H   UNL     1       1.666   8.663  22.677  0.00  0.00    +0.000 HD
ENDBRANCH  19  20
BRANCH  19  22
ATOM     22  C   UNL     1      -0.196   8.542  21.377  0.00  0.00    +0.000 C 
BRANCH  22  24
ATOM     23  C   UNL     1      -0.900  10.608  22.668  0.00  0.00    +0.000 C 
ATOM     24  C   UNL     1      -0.171   9.271  22.734  0.00  0.00    +0.000 C 
ENDBRANCH  22  24
ENDBRANCH  19  22
BRANCH  19  25
ATOM     25  C   UNL     1       1.115   6.450  20.625  0.00  0.00    +0.000 C 
BRANCH  25  26
ATOM     26  C   UNL     1       2.318   5.659  21.151  0.00  0.00    +0.000 C 
ATOM     27  C   UNL     1       1.985   4.188  21.340  0.00  0.00    +0.000 C 
ENDBRANCH  25  26
ENDBRANCH  19  25
ENDBRANCH   1  19
BRANCH   1  28
ATOM     28  C   UNL     1       0.569   9.026  18.525  0.00  0.00    +0.000 C 
BRANCH  28  29
ATOM     29  C   UNL     1      -0.259  10.275  18.678  0.00  0.00    +0.000 A 
ATOM     30  C   UNL     1       0.141  11.482  19.219  0.00  0.00    +0.000 A 
ATOM     31  N   UNL     1      -0.889  12.378  19.121  0.00  0.00    +0.000 N 
ATOM     32  C   UNL     1      -2.012  11.751  18.629  0.00  0.00    +0.000 A 
ATOM     33  C   UNL     1      -3.314  12.225  18.408  0.00  0.00    +0.000 A 
ATOM     34  C   UNL     1      -4.266  11.339  17.904  0.00  0.00    +0.000 A 
ATOM     35  C   UNL     1      -3.931  10.016  17.618  0.00  0.00    +0.000 A 
ATOM     36  C   UNL     1      -2.629   9.557  17.832  0.00  0.00    +0.000 A 
ATOM     37  C   UNL     1      -1.645  10.430  18.346  0.00  0.00    +0.000 A 
BRANCH  31  38
ATOM     38  C   UNL     1      -0.783  13.768  19.532  0.00  0.00    +0.000 C 
ATOM     39  C   UNL     1      -1.205  13.985  20.975  0.00  0.00    +0.000 C 
ENDBRANCH  31  38
ENDBRANCH  28  29
ENDBRANCH   1  28
TORSDOF 12
ENDMDL
MODEL 5
REMARK VINA RESULT:      -6.8      2.320      6.184
REMARK  Name = 
REMARK  15 active torsions:
REMARK  status: ('A' for Active; 'I' for Inactive)
REMARK    1  A    between atoms: C_1  and  C_2
REMARK    2  A    between atoms: C_2  and  C_3
REMARK    3  A    between atoms: C_3  and  C_4
REMARK    4  A    between atoms: C_4  and  O_5
REMARK    5  A    between atoms: C_4  and  C_6
REMARK    6  A    between atoms: C_4  and  C_9
REMARK    7  A    between atoms: C_6  and  C_7
REMARK    8  A    between atoms: C_7  and  C_8
REMARK    9  A    between atoms: C_9  and  C_10
REMARK   10  A    between atoms: C_9  and  N_22
REMARK   11  A    between atoms: C_10  and  C_11
REMARK   12  A    between atoms: N_13  and  C_14
REMARK   13  A    between atoms: C_14  and  C_15
REMARK   14  A    between atoms: N_22  and  C_23
REMARK   15  A    between atoms: C_23  and  C_24
REMARK                            x       y       z     vdW  Elec       q    Type
REMARK                         _______ _______ _______ _____ _____    ______ ____
ROOT
ATOM      1  C   UNL     1       1.725   8.963  19.256  0.00  0.00    +0.000 C 
ENDROOT
BRANCH   1   2
ATOM      2  N   UNL     1       2.904   8.248  18.732  0.00  0.00    +0.000 NA
ATOM      3  H   UNL     1       3.341   7.782  19.532  0.00  0.00    +0.000 HD
BRANCH   2   4
ATOM      4  C   UNL     1       2.646   7.289  17.655  0.00  0.00    +0.000 C 
BRANCH   4   5
ATOM      5  C   UNL     1       3.582   6.071  17.628  0.00  0.00    +0.000 A 
ATOM      6  C   UNL     1       2.994   4.774  17.813  0.00  0.00    +0.000 A 
ATOM      7  C   UNL     1       1.602   4.507  17.739  0.00  0.00    +0.000 A 
ATOM      8  C   UNL     1       1.068   3.241  17.996  0.00  0.00    +0.000 A 
ATOM      9  C   UNL     1       1.915   2.191  18.318  0.00  0.00    +0.000 A 
ATOM     10  C   UNL     1       3.292   2.412  18.369  0.00  0.00    +0.000 A 
ATOM     11  C   UNL     1       3.837   3.684  18.124  0.00  0.00    +0.000 A 
ATOM     12  C   UNL     1       5.219   3.886  18.233  0.00  0.00    +0.000 A 
ATOM     13  C   UNL     1       5.807   5.135  17.989  0.00  0.00    +0.000 A 
ATOM     14  C   UNL     1       7.187   5.324  18.183  0.00  0.00    +0.000 A 
ATOM     15  C   UNL     1       7.790   6.561  17.944  0.00  0.00    +0.000 A 
ATOM     16  C   UNL     1       7.039   7.593  17.411  0.00  0.00    +0.000 A 
ATOM     17  C   UNL     1       5.676   7.404  17.196  0.00  0.00    +0.000 A 
ATOM     18  C   UNL     1       5.003   6.218  17.582  0.00  0.00    +0.000 A 
ENDBRANCH   4   5
ENDBRANCH   2   4
ENDBRANCH   1   2
BRANCH   1  19
ATOM     19  C   UNL     1       1.246   8.293  20.628  0.00  0.00    +0.000 C 
BRANCH  19  20
ATOM     20  O   UNL     1      -0.110   7.840  20.456  0.00  0.00    +0.000 OA
ATOM     21  H   UNL     1      -0.578   8.462  19.876  0.00  0.00    +0.000 HD
ENDBRANCH  19  20
BRANCH  19  22
ATOM     22  C   UNL     1       2.100   7.029  20.960  0.00  0.00    +0.000 C 
BRANCH  22  24
ATOM     23  C   UNL     1       2.246   4.522  21.319  0.00  0.00    +0.000 C 
ATOM     24  C   UNL     1       1.356   5.682  20.885  0.00  0.00    +0.000 C 
ENDBRANCH  22  24
ENDBRANCH  19  22
BRANCH  19  25
ATOM     25  C   UNL     1       1.254   9.321  21.792  0.00  0.00    +0.000 C 
BRANCH  25  26
ATOM     26  C   UNL     1      -0.059   9.415  22.577  0.00  0.00    +0.000 C 
ATOM     27  C   UNL     1      -0.593  10.838  22.612  0.00  0.00    +0.000 C 
ENDBRANCH  25  26
ENDBRANCH  19  25
ENDBRANCH   1  19
BRANCH   1  28
ATOM     28  C   UNL     1       0.581   9.123  18.199  0.00  0.00    +0.000 C 
BRANCH  28  29
ATOM     29  C   UNL     1      -0.426  10.218  18.431  0.00  0.00    +0.000 A 
ATOM     30  C   UNL     1      -1.767  10.206  18.098  0.00  0.00    +0.000 A 
ATOM     31  N   UNL     1      -2.346  11.368  18.531  0.00  0.00    +0.000 N 
ATOM     32  C   UNL     1      -1.383  12.209  19.044  0.00  0.00    +0.000 A 
ATOM     33  C   UNL     1      -1.471  13.515  19.549  0.00  0.00    +0.000 A 
ATOM     34  C   UNL     1      -0.302  14.133  19.996  0.00  0.00    +0.000 A 
ATOM     35  C   UNL     1       0.922  13.466  19.950  0.00  0.00    +0.000 A 
ATOM     36  C   UNL     1       0.995  12.163  19.455  0.00  0.00    +0.000 A 
ATOM     37  C   UNL     1      -0.170  11.513  18.991  0.00  0.00    +0.000 A 
BRANCH  31  38
ATOM     38  C   UNL     1      -3.766  11.652  18.404  0.00  0.00    +0.000 C 
ATOM     39  C   UNL     1      -4.278  11.450  16.988  0.00  0.00    +0.000 C 
ENDBRANCH  31  38
ENDBRANCH  28  29
ENDBRANCH   1  28
TORSDOF 12
ENDMDL
MODEL 6
REMARK VINA RESULT:      -6.8      3.105      7.854
REMARK  Name = 
REMARK  15 active torsions:
REMARK  status: ('A' for Active; 'I' for Inactive)
REMARK    1  A    between atoms: C_1  and  C_2
REMARK    2  A    between atoms: C_2  and  C_3
REMARK    3  A    between atoms: C_3  and  C_4
REMARK    4  A    between atoms: C_4  and  O_5
REMARK    5  A    between atoms: C_4  and  C_6
REMARK    6  A    between atoms: C_4  and  C_9
REMARK    7  A    between atoms: C_6  and  C_7
REMARK    8  A    between atoms: C_7  and  C_8
REMARK    9  A    between atoms: C_9  and  C_10
REMARK   10  A    between atoms: C_9  and  N_22
REMARK   11  A    between atoms: C_10  and  C_11
REMARK   12  A    between atoms: N_13  and  C_14
REMARK   13  A    between atoms: C_14  and  C_15
REMARK   14  A    between atoms: N_22  and  C_23
REMARK   15  A    between atoms: C_23  and  C_24
REMARK                            x       y       z     vdW  Elec       q    Type
REMARK                         _______ _______ _______ _____ _____    ______ ____
ROOT
ATOM      1  C   UNL     1      -1.580  12.446  19.763  0.00  0.00    +0.000 C 
ENDROOT
BRANCH   1   2
ATOM      2  N   UNL     1      -0.964  13.589  19.064  0.00  0.00    +0.000 NA
ATOM      3  H   UNL     1      -1.693  13.993  18.470  0.00  0.00    +0.000 HD
BRANCH   2   4
ATOM      4  C   UNL     1      -0.366  14.617  19.918  0.00  0.00    +0.000 C 
BRANCH   4   5
ATOM      5  C   UNL     1      -0.435  16.048  19.363  0.00  0.00    +0.000 A 
ATOM      6  C   UNL     1      -1.670  16.766  19.523  0.00  0.00    +0.000 A 
ATOM      7  C   UNL     1      -2.722  16.369  20.389  0.00  0.00    +0.000 A 
ATOM      8  C   UNL     1      -3.935  17.060  20.459  0.00  0.00    +0.000 A 
ATOM      9  C   UNL     1      -4.128  18.189  19.676  0.00  0.00    +0.000 A 
ATOM     10  C   UNL     1      -3.101  18.625  18.838  0.00  0.00    +0.000 A 
ATOM     11  C   UNL     1      -1.884  17.929  18.751  0.00  0.00    +0.000 A 
ATOM     12  C   UNL     1      -0.891  18.362  17.861  0.00  0.00    +0.000 A 
ATOM     13  C   UNL     1       0.341  17.704  17.749  0.00  0.00    +0.000 A 
ATOM     14  C   UNL     1       1.285  18.117  16.791  0.00  0.00    +0.000 A 
ATOM     15  C   UNL     1       2.518  17.474  16.664  0.00  0.00    +0.000 A 
ATOM     16  C   UNL     1       2.862  16.480  17.562  0.00  0.00    +0.000 A 
ATOM     17  C   UNL     1       1.941  16.083  18.527  0.00  0.00    +0.000 A 
ATOM     18  C   UNL     1       0.622  16.599  18.575  0.00  0.00    +0.000 A 
ENDBRANCH   4   5
ENDBRANCH   2   4
ENDBRANCH   1   2
BRANCH   1  19
ATOM     19  C   UNL     1      -1.083  11.073  19.109  0.00  0.00    +0.000 C 
BRANCH  19  20
ATOM     20  O   UNL     1      -0.077  11.383  18.126  0.00  0.00    +0.000 OA
ATOM     21  H   UNL     1       0.022  10.624  17.528  0.00  0.00    +0.000 HD
ENDBRANCH  19  20
BRANCH  19  22
ATOM     22  C   UNL     1      -0.399  10.161  20.175  0.00  0.00    +0.000 C 
BRANCH  22  24
ATOM     23  C   UNL     1       0.078   9.615  22.606  0.00  0.00    +0.000 C 
ATOM     24  C   UNL     1      -0.570  10.602  21.641  0.00  0.00    +0.000 C 
ENDBRANCH  22  24
ENDBRANCH  19  22
BRANCH  19  25
ATOM     25  C   UNL     1      -2.243  10.343  18.379  0.00  0.00    +0.000 C 
BRANCH  25  26
ATOM     26  C   UNL     1      -1.963   9.993  16.913  0.00  0.00    +0.000 C 
ATOM     27  C   UNL     1      -2.773  10.860  15.963  0.00  0.00    +0.000 C 
ENDBRANCH  25  26
ENDBRANCH  19  25
ENDBRANCH   1  19
BRANCH   1  28
ATOM     28  C   UNL     1      -3.138  12.562  19.879  0.00  0.00    +0.000 C 
BRANCH  28  29
ATOM     29  C   UNL     1      -3.709  12.858  21.241  0.00  0.00    +0.000 A 
ATOM     30  C   UNL     1      -3.025  13.307  22.354  0.00  0.00    +0.000 A 
ATOM     31  N   UNL     1      -3.916  13.509  23.374  0.00  0.00    +0.000 N 
ATOM     32  C   UNL     1      -5.170  13.086  22.993  0.00  0.00    +0.000 A 
ATOM     33  C   UNL     1      -6.382  13.032  23.698  0.00  0.00    +0.000 A 
ATOM     34  C   UNL     1      -7.508  12.533  23.044  0.00  0.00    +0.000 A 
ATOM     35  C   UNL     1      -7.435  12.107  21.718  0.00  0.00    +0.000 A 
ATOM     36  C   UNL     1      -6.226  12.175  21.022  0.00  0.00    +0.000 A 
ATOM     37  C   UNL     1      -5.068  12.670  21.660  0.00  0.00    +0.000 A 
BRANCH  31  38
ATOM     38  C   UNL     1      -3.540  14.048  24.671  0.00  0.00    +0.000 C 
ATOM     39  C   UNL     1      -3.630  15.564  24.722  0.00  0.00    +0.000 C 
ENDBRANCH  31  38
ENDBRANCH  28  29
ENDBRANCH   1  28
TORSDOF 12
ENDMDL
MODEL 7
REMARK VINA RESULT:      -6.7      2.071      7.475
REMARK  Name = 
REMARK  15 active torsions:
REMARK  status: ('A' for Active; 'I' for Inactive)
REMARK    1  A    between atoms: C_1  and  C_2
REMARK    2  A    between atoms: C_2  and  C_3
REMARK    3  A    between atoms: C_3  and  C_4
REMARK    4  A    between atoms: C_4  and  O_5
REMARK    5  A    between atoms: C_4  and  C_6
REMARK    6  A    between atoms: C_4  and  C_9
REMARK    7  A    between atoms: C_6  and  C_7
REMARK    8  A    between atoms: C_7  and  C_8
REMARK    9  A    between atoms: C_9  and  C_10
REMARK   10  A    between atoms: C_9  and  N_22
REMARK   11  A    between atoms: C_10  and  C_11
REMARK   12  A    between atoms: N_13  and  C_14
REMARK   13  A    between atoms: C_14  and  C_15
REMARK   14  A    between atoms: N_22  and  C_23
REMARK   15  A    between atoms: C_23  and  C_24
REMARK                            x       y       z     vdW  Elec       q    Type
REMARK                         _______ _______ _______ _____ _____    ______ ____
ROOT
ATOM      1  C   UNL     1       1.099  10.816  18.660  0.00  0.00    +0.000 C 
ENDROOT
BRANCH   1   2
ATOM      2  N   UNL     1      -0.274  10.675  18.137  0.00  0.00    +0.000 NA
ATOM      3  H   UNL     1      -0.226   9.989  17.379  0.00  0.00    +0.000 HD
BRANCH   2   4
ATOM      4  C   UNL     1      -1.296  10.295  19.114  0.00  0.00    +0.000 C 
BRANCH   4   5
ATOM      5  C   UNL     1      -2.277  11.412  19.499  0.00  0.00    +0.000 A 
ATOM      6  C   UNL     1      -2.115  12.027  20.788  0.00  0.00    +0.000 A 
ATOM      7  C   UNL     1      -0.964  11.882  21.606  0.00  0.00    +0.000 A 
ATOM      8  C   UNL     1      -0.880  12.442  22.884  0.00  0.00    +0.000 A 
ATOM      9  C   UNL     1      -1.940  13.186  23.380  0.00  0.00    +0.000 A 
ATOM     10  C   UNL     1      -3.074  13.375  22.588  0.00  0.00    +0.000 A 
ATOM     11  C   UNL     1      -3.173  12.806  21.307  0.00  0.00    +0.000 A 
ATOM     12  C   UNL     1      -4.345  12.970  20.557  0.00  0.00    +0.000 A 
ATOM     13  C   UNL     1      -4.484  12.428  19.272  0.00  0.00    +0.000 A 
ATOM     14  C   UNL     1      -5.702  12.544  18.577  0.00  0.00    +0.000 A 
ATOM     15  C   UNL     1      -5.859  12.011  17.296  0.00  0.00    +0.000 A 
ATOM     16  C   UNL     1      -4.771  11.447  16.655  0.00  0.00    +0.000 A 
ATOM     17  C   UNL     1      -3.557  11.349  17.330  0.00  0.00    +0.000 A 
ATOM     18  C   UNL     1      -3.410  11.729  18.688  0.00  0.00    +0.000 A 
ENDBRANCH   4   5
ENDBRANCH   2   4
ENDBRANCH   1   2
BRANCH   1  19
ATOM     19  C   UNL     1       1.511  12.361  18.700  0.00  0.00    +0.000 C 
BRANCH  19  20
ATOM     20  O   UNL     1       2.541  12.577  17.716  0.00  0.00    +0.000 OA
ATOM     21  H   UNL     1       2.123  12.805  16.870  0.00  0.00    +0.000 HD
ENDBRANCH  19  20
BRANCH  19  22
ATOM     22  C   UNL     1       0.309  13.271  18.294  0.00  0.00    +0.000 C 
BRANCH  22  24
ATOM     23  C   UNL     1      -0.712  15.121  19.696  0.00  0.00    +0.000 C 
ATOM     24  C   UNL     1       0.408  14.744  18.733  0.00  0.00    +0.000 C 
ENDBRANCH  22  24
ENDBRANCH  19  22
BRANCH  19  25
ATOM     25  C   UNL     1       2.095  12.754  20.084  0.00  0.00    +0.000 C 
BRANCH  25  26
ATOM     26  C   UNL     1       3.232  13.781  20.036  0.00  0.00    +0.000 C 
ATOM     27  C   UNL     1       3.190  14.723  21.228  0.00  0.00    +0.000 C 
ENDBRANCH  25  26
ENDBRANCH  19  25
ENDBRANCH   1  19
BRANCH   1  28
ATOM     28  C   UNL     1       2.136   9.905  17.919  0.00  0.00    +0.000 C 
BRANCH  28  29
ATOM     29  C   UNL     1       2.357   8.521  18.471  0.00  0.00    +0.000 A 
ATOM     30  C   UNL     1       1.817   7.984  19.623  0.00  0.00    +0.000 A 
ATOM     31  N   UNL     1       2.217   6.681  19.739  0.00  0.00    +0.000 N 
ATOM     32  C   UNL     1       3.115   6.375  18.741  0.00  0.00    +0.000 A 
ATOM     33  C   UNL     1       3.840   5.203  18.476  0.00  0.00    +0.000 A 
ATOM     34  C   UNL     1       4.702   5.189  17.379  0.00  0.00    +0.000 A 
ATOM     35  C   UNL     1       4.833   6.310  16.559  0.00  0.00    +0.000 A 
ATOM     36  C   UNL     1       4.099   7.467  16.826  0.00  0.00    +0.000 A 
ATOM     37  C   UNL     1       3.223   7.513  17.932  0.00  0.00    +0.000 A 
BRANCH  31  38
ATOM     38  C   UNL     1       1.772   5.798  20.805  0.00  0.00    +0.000 C 
ATOM     39  C   UNL     1       1.071   4.556  20.281  0.00  0.00    +0.000 C 
ENDBRANCH  31  38
ENDBRANCH  28  29
ENDBRANCH   1  28
TORSDOF 12
ENDMDL
MODEL 8
REMARK VINA RESULT:      -6.7      1.658      6.679
REMARK  Name = 
REMARK  15 active torsions:
REMARK  status: ('A' for Active; 'I' for Inactive)
REMARK    1  A    between atoms: C_1  and  C_2
REMARK    2  A    between atoms: C_2  and  C_3
REMARK    3  A    between atoms: C_3  and  C_4
REMARK    4  A    between atoms: C_4  and  O_5
REMARK    5  A    between atoms: C_4  and  C_6
REMARK    6  A    between atoms: C_4  and  C_9
REMARK    7  A    between atoms: C_6  and  C_7
REMARK    8  A    between atoms: C_7  and  C_8
REMARK    9  A    between atoms: C_9  and  C_10
REMARK   10  A    between atoms: C_9  and  N_22
REMARK   11  A    between atoms: C_10  and  C_11
REMARK   12  A    between atoms: N_13  and  C_14
REMARK   13  A    between atoms: C_14  and  C_15
REMARK   14  A    between atoms: N_22  and  C_23
REMARK   15  A    between atoms: C_23  and  C_24
REMARK                            x       y       z     vdW  Elec       q    Type
REMARK                         _______ _______ _______ _____ _____    ______ ____
ROOT
ATOM      1  C   UNL     1      -0.462  11.177  19.140  0.00  0.00    +0.000 C 
ENDROOT
BRANCH   1   2
ATOM      2  N   UNL     1      -0.182  12.186  18.100  0.00  0.00    +0.000 NA
ATOM      3  H   UNL     1      -0.566  11.816  17.227  0.00  0.00    +0.000 HD
BRANCH   2   4
ATOM      4  C   UNL     1      -0.695  13.533  18.360  0.00  0.00    +0.000 C 
BRANCH   4   5
ATOM      5  C   UNL     1      -0.196  14.182  19.660  0.00  0.00    +0.000 A 
ATOM      6  C   UNL     1       1.143  14.703  19.674  0.00  0.00    +0.000 A 
ATOM      7  C   UNL     1       1.932  14.917  18.513  0.00  0.00    +0.000 A 
ATOM      8  C   UNL     1       3.256  15.359  18.580  0.00  0.00    +0.000 A 
ATOM      9  C   UNL     1       3.830  15.623  19.815  0.00  0.00    +0.000 A 
ATOM     10  C   UNL     1       3.072  15.454  20.974  0.00  0.00    +0.000 A 
ATOM     11  C   UNL     1       1.744  14.998  20.917  0.00  0.00    +0.000 A 
ATOM     12  C   UNL     1       1.025  14.788  22.102  0.00  0.00    +0.000 A 
ATOM     13  C   UNL     1      -0.304  14.342  22.092  0.00  0.00    +0.000 A 
ATOM     14  C   UNL     1      -0.972  14.067  23.299  0.00  0.00    +0.000 A 
ATOM     15  C   UNL     1      -2.296  13.623  23.309  0.00  0.00    +0.000 A 
ATOM     16  C   UNL     1      -2.998  13.549  22.120  0.00  0.00    +0.000 A 
ATOM     17  C   UNL     1      -2.348  13.841  20.924  0.00  0.00    +0.000 A 
ATOM     18  C   UNL     1      -0.963  14.133  20.865  0.00  0.00    +0.000 A 
ENDBRANCH   4   5
ENDBRANCH   2   4
ENDBRANCH   1   2
BRANCH   1  19
ATOM     19  C   UNL     1       0.910  10.645  19.767  0.00  0.00    +0.000 C 
BRANCH  19  20
ATOM     20  O   UNL     1       1.975  11.502  19.309  0.00  0.00    +0.000 OA
ATOM     21  H   UNL     1       2.785  11.283  19.798  0.00  0.00    +0.000 HD
ENDBRANCH  19  20
BRANCH  19  22
ATOM     22  C   UNL     1       0.892  10.752  21.325  0.00  0.00    +0.000 C 
BRANCH  22  24
ATOM     23  C   UNL     1      -0.847  10.326  23.121  0.00  0.00    +0.000 C 
ATOM     24  C   UNL     1       0.043   9.695  22.057  0.00  0.00    +0.000 C 
ENDBRANCH  22  24
ENDBRANCH  19  22
BRANCH  19  25
ATOM     25  C   UNL     1       1.229   9.203  19.288  0.00  0.00    +0.000 C 
BRANCH  25  26
ATOM     26  C   UNL     1       1.977   9.118  17.953  0.00  0.00    +0.000 C 
ATOM     27  C   UNL     1       2.846   7.873  17.873  0.00  0.00    +0.000 C 
ENDBRANCH  25  26
ENDBRANCH  19  25
ENDBRANCH   1  19
BRANCH   1  28
ATOM     28  C   UNL     1      -1.416  10.036  18.651  0.00  0.00    +0.000 C 
BRANCH  28  29
ATOM     29  C   UNL     1      -2.477  10.406  17.648  0.00  0.00    +0.000 A 
ATOM     30  C   UNL     1      -2.491  10.113  16.298  0.00  0.00    +0.000 A 
ATOM     31  N   UNL     1      -3.658  10.574  15.752  0.00  0.00    +0.000 N 
ATOM     32  C   UNL     1      -4.372  11.279  16.697  0.00  0.00    +0.000 A 
ATOM     33  C   UNL     1      -5.582  11.983  16.606  0.00  0.00    +0.000 A 
ATOM     34  C   UNL     1      -6.065  12.622  17.748  0.00  0.00    +0.000 A 
ATOM     35  C   UNL     1      -5.367  12.557  18.953  0.00  0.00    +0.000 A 
ATOM     36  C   UNL     1      -4.168  11.844  19.035  0.00  0.00    +0.000 A 
ATOM     37  C   UNL     1      -3.652  11.191  17.894  0.00  0.00    +0.000 A 
BRANCH  31  38
ATOM     38  C   UNL     1      -4.028  10.370  14.362  0.00  0.00    +0.000 C 
ATOM     39  C   UNL     1      -2.917   9.729  13.548  0.00  0.00    +0.000 C 
ENDBRANCH  31  38
ENDBRANCH  28  29
ENDBRANCH   1  28
TORSDOF 12
ENDMDL
MODEL 9
REMARK VINA RESULT:      -6.6      2.839      7.018
REMARK  Name = 
REMARK  15 active torsions:
REMARK  status: ('A' for Active; 'I' for Inactive)
REMARK    1  A    between atoms: C_1  and  C_2
REMARK    2  A    between atoms: C_2  and  C_3
REMARK    3  A    between atoms: C_3  and  C_4
REMARK    4  A    between atoms: C_4  and  O_5
REMARK    5  A    between atoms: C_4  and  C_6
REMARK    6  A    between atoms: C_4  and  C_9
REMARK    7  A    between atoms: C_6  and  C_7
REMARK    8  A    between atoms: C_7  and  C_8
REMARK    9  A    between atoms: C_9  and  C_10
REMARK   10  A    between atoms: C_9  and  N_22
REMARK   11  A    between atoms: C_10  and  C_11
REMARK   12  A    between atoms: N_13  and  C_14
REMARK   13  A    between atoms: C_14  and  C_15
REMARK   14  A    between atoms: N_22  and  C_23
REMARK   15  A    between atoms: C_23  and  C_24
REMARK                            x       y       z     vdW  Elec       q    Type
REMARK                         _______ _______ _______ _____ _____    ______ ____
ROOT
ATOM      1  C   UNL     1      -2.830  12.281  19.535  0.00  0.00    +0.000 C 
ENDROOT
BRANCH   1   2
ATOM      2  N   UNL     1      -1.959  13.451  19.760  0.00  0.00    +0.000 NA
ATOM      3  H   UNL     1      -2.580  14.250  19.914  0.00  0.00    +0.000 HD
BRANCH   2   4
ATOM      4  C   UNL     1      -0.993  13.329  20.855  0.00  0.00    +0.000 C 
BRANCH   4   5
ATOM      5  C   UNL     1      -1.274  14.222  22.073  0.00  0.00    +0.000 A 
ATOM      6  C   UNL     1      -2.207  13.738  23.053  0.00  0.00    +0.000 A 
ATOM      7  C   UNL     1      -2.670  12.398  23.127  0.00  0.00    +0.000 A 
ATOM      8  C   UNL     1      -3.633  11.989  24.054  0.00  0.00    +0.000 A 
ATOM      9  C   UNL     1      -4.152  12.906  24.955  0.00  0.00    +0.000 A 
ATOM     10  C   UNL     1      -3.695  14.224  24.931  0.00  0.00    +0.000 A 
ATOM     11  C   UNL     1      -2.737  14.648  23.995  0.00  0.00    +0.000 A 
ATOM     12  C   UNL     1      -2.336  15.991  23.961  0.00  0.00    +0.000 A 
ATOM     13  C   UNL     1      -1.377  16.455  23.051  0.00  0.00    +0.000 A 
ATOM     14  C   UNL     1      -1.054  17.823  22.991  0.00  0.00    +0.000 A 
ATOM     15  C   UNL     1      -0.101  18.304  22.091  0.00  0.00    +0.000 A 
ATOM     16  C   UNL     1       0.614  17.410  21.314  0.00  0.00    +0.000 A 
ATOM     17  C   UNL     1       0.314  16.053  21.385  0.00  0.00    +0.000 A 
ATOM     18  C   UNL     1      -0.759  15.551  22.164  0.00  0.00    +0.000 A 
ENDBRANCH   4   5
ENDBRANCH   2   4
ENDBRANCH   1   2
BRANCH   1  19
ATOM     19  C   UNL     1      -2.281  11.422  18.302  0.00  0.00    +0.000 C 
BRANCH  19  20
ATOM     20  O   UNL     1      -1.543  12.303  17.434  0.00  0.00    +0.000 OA
ATOM     21  H   UNL     1      -1.733  13.221  17.683  0.00  0.00    +0.000 HD
ENDBRANCH  19  20
BRANCH  19  22
ATOM     22  C   UNL     1      -1.277  10.329  18.786  0.00  0.00    +0.000 C 
BRANCH  22  24
ATOM     23  C   UNL     1       0.963   9.484  17.949  0.00  0.00    +0.000 C 
ATOM     24  C   UNL     1       0.215  10.653  18.579  0.00  0.00    +0.000 C 
ENDBRANCH  22  24
ENDBRANCH  19  22
BRANCH  19  25
ATOM     25  C   UNL     1      -3.446  10.814  17.474  0.00  0.00    +0.000 C 
BRANCH  25  26
ATOM     26  C   UNL     1      -3.028   9.730  16.474  0.00  0.00    +0.000 C 
ATOM     27  C   UNL     1      -3.053  10.245  15.044  0.00  0.00    +0.000 C 
ENDBRANCH  25  26
ENDBRANCH  19  25
ENDBRANCH   1  19
BRANCH   1  28
ATOM     28  C   UNL     1      -4.346  12.657  19.417  0.00  0.00    +0.000 C 
BRANCH  28  29
ATOM     29  C   UNL     1      -4.891  13.650  20.410  0.00  0.00    +0.000 A 
ATOM     30  C   UNL     1      -4.535  14.978  20.546  0.00  0.00    +0.000 A 
ATOM     31  N   UNL     1      -5.302  15.548  21.525  0.00  0.00    +0.000 N 
ATOM     32  C   UNL     1      -6.084  14.588  22.128  0.00  0.00    +0.000 A 
ATOM     33  C   UNL     1      -6.979  14.667  23.206  0.00  0.00    +0.000 A 
ATOM     34  C   UNL     1      -7.632  13.503  23.613  0.00  0.00    +0.000 A 
ATOM     35  C   UNL     1      -7.407  12.291  22.959  0.00  0.00    +0.000 A 
ATOM     36  C   UNL     1      -6.522  12.226  21.881  0.00  0.00    +0.000 A 
ATOM     37  C   UNL     1      -5.843  13.387  21.450  0.00  0.00    +0.000 A 
BRANCH  31  38
ATOM     38  C   UNL     1      -5.235  16.957  21.876  0.00  0.00    +0.000 C 
ATOM     39  C   UNL     1      -4.221  17.721  21.042  0.00  0.00    +0.000 C 
ENDBRANCH  31  38
ENDBRANCH  28  29
ENDBRANCH   1  28
TORSDOF 12
ENDMDL
