MODEL 1
REMARK VINA RESULT:      -6.4      0.000      0.000
REMARK  Name = 
REMARK  7 active torsions:
REMARK  status: ('A' for Active; 'I' for Inactive)
REMARK    1  A    between atoms: C_1  and  O_2
REMARK    2  A    between atoms: O_2  and  C_3
REMARK    3  A    between atoms: C_6  and  N_7
REMARK    4  A    between atoms: C_11  and  C_13
REMARK    5  A    between atoms: C_20  and  C_21
REMARK    6  A    between atoms: C_25  and  O_26
REMARK    7  A    between atoms: O_26  and  C_27
REMARK                            x       y       z     vdW  Elec       q    Type
REMARK                         _______ _______ _______ _____ _____    ______ ____
ROOT
ATOM      1  N   UNL     1       1.418   8.870  19.642  0.00  0.00    +0.000 N 
ATOM      2  C   UNL     1       1.775   8.033  20.795  0.00  0.00    +0.000 C 
ATOM      3  C   UNL     1       1.934   6.563  20.408  0.00  0.00    +0.000 C 
ATOM      4  N   UNL     1       2.841   6.424  19.266  0.00  0.00    +0.000 N 
ATOM      5  C   UNL     1       3.876   5.479  19.360  0.00  0.00    +0.000 C 
ATOM      6  O   UNL     1       4.008   4.822  20.394  0.00  0.00    +0.000 OA
ATOM      7  C   UNL     1       2.497   7.285  18.115  0.00  0.00    +0.000 C 
ATOM      8  C   UNL     1       1.268   6.719  17.374  0.00  0.00    +0.000 C 
ATOM      9  C   UNL     1       2.157   8.733  18.467  0.00  0.00    +0.000 C 
ATOM     10  O   UNL     1       2.302   9.622  17.620  0.00  0.00    +0.000 OA
ENDROOT
BRANCH   5  11
ATOM     11  C   UNL     1       4.838   5.217  18.235  0.00  0.00    +0.000 A 
ATOM     12  C   UNL     1       6.049   5.922  18.155  0.00  0.00    +0.000 A 
ATOM     13  C   UNL     1       7.000   5.676  17.168  0.00  0.00    +0.000 A 
ATOM     14  C   UNL     1       6.714   4.773  16.160  0.00  0.00    +0.000 A 
ATOM     15  C   UNL     1       5.482   4.126  16.152  0.00  0.00    +0.000 A 
ATOM     16  C   UNL     1       4.544   4.336  17.179  0.00  0.00    +0.000 A 
ATOM     17 CL   UNL     1       3.058   3.462  17.012  0.00  0.00    +0.000 Cl
ENDBRANCH   5  11
BRANCH   1  21
ATOM     18  C   UNL     1      -1.601  11.818  19.772  0.00  0.00    +0.000 A 
ATOM     19  C   UNL     1      -0.916  11.448  20.935  0.00  0.00    +0.000 A 
ATOM     20  C   UNL     1       0.051  10.452  20.906  0.00  0.00    +0.000 A 
ATOM     21  C   UNL     1       0.328   9.766  19.712  0.00  0.00    +0.000 A 
ATOM     22  C   UNL     1      -0.446  10.057  18.595  0.00  0.00    +0.000 A 
ATOM     23  C   UNL     1      -1.419  11.058  18.606  0.00  0.00    +0.000 A 
BRANCH  18  25
ATOM     24  C   UNL     1      -3.766  12.641  20.171  0.00  0.00    +0.000 C 
ATOM     25  O   UNL     1      -2.420  12.914  19.768  0.00  0.00    +0.000 OA
ENDBRANCH  18  25
BRANCH  23  26
ATOM     26  O   UNL     1      -2.031  11.151  17.391  0.00  0.00    +0.000 OA
ATOM     27  C   UNL     1      -2.343   9.974  16.672  0.00  0.00    +0.000 C 
ENDBRANCH  23  26
ENDBRANCH   1  21
TORSDOF 4
ENDMDL
MODEL 2
REMARK VINA RESULT:      -6.4      0.832      1.877
REMARK  Name = 
REMARK  7 active torsions:
REMARK  status: ('A' for Active; 'I' for Inactive)
REMARK    1  A    between atoms: C_1  and  O_2
REMARK    2  A    between atoms: O_2  and  C_3
REMARK    3  A    between atoms: C_6  and  N_7
REMARK    4  A    between atoms: C_11  and  C_13
REMARK    5  A    between atoms: C_20  and  C_21
REMARK    6  A    between atoms: C_25  and  O_26
REMARK    7  A    between atoms: O_26  and  C_27
REMARK                            x       y       z     vdW  Elec       q    Type
REMARK                         _______ _______ _______ _____ _____    ______ ____
ROOT
ATOM      1  N   UNL     1       1.390   8.935  19.543  0.00  0.00    +0.000 N 
ATOM      2  C   UNL     1       1.569   8.102  20.740  0.00  0.00    +0.000 C 
ATOM      3  C   UNL     1       1.670   6.616  20.394  0.00  0.00    +0.000 C 
ATOM      4  N   UNL     1       2.679   6.395  19.355  0.00  0.00    +0.000 N 
ATOM      5  C   UNL     1       3.634   5.387  19.572  0.00  0.00    +0.000 C 
ATOM      6  O   UNL     1       3.614   4.746  20.624  0.00  0.00    +0.000 OA
ATOM      7  C   UNL     1       2.515   7.250  18.163  0.00  0.00    +0.000 C 
ATOM      8  C   UNL     1       1.334   6.748  17.304  0.00  0.00    +0.000 C 
ATOM      9  C   UNL     1       2.236   8.724  18.455  0.00  0.00    +0.000 C 
ATOM     10  O   UNL     1       2.527   9.583  17.614  0.00  0.00    +0.000 OA
ENDROOT
BRANCH   5  11
ATOM     11  C   UNL     1       4.689   5.040  18.559  0.00  0.00    +0.000 A 
ATOM     12  C   UNL     1       5.969   5.609  18.639  0.00  0.00    +0.000 A 
ATOM     13  C   UNL     1       6.998   5.275  17.762  0.00  0.00    +0.000 A 
ATOM     14  C   UNL     1       6.738   4.427  16.702  0.00  0.00    +0.000 A 
ATOM     15  C   UNL     1       5.453   3.920  16.532  0.00  0.00    +0.000 A 
ATOM     16  C   UNL     1       4.428   4.214  17.450  0.00  0.00    +0.000 A 
ATOM     17 CL   UNL     1       2.888   3.512  17.088  0.00  0.00    +0.000 Cl
ENDBRANCH   5  11
BRANCH   1  21
ATOM     18  C   UNL     1      -1.922  11.550  19.461  0.00  0.00    +0.000 A 
ATOM     19  C   UNL     1      -1.502  10.897  18.297  0.00  0.00    +0.000 A 
ATOM     20  C   UNL     1      -0.390  10.065  18.309  0.00  0.00    +0.000 A 
ATOM     21  C   UNL     1       0.361   9.899  19.485  0.00  0.00    +0.000 A 
ATOM     22  C   UNL     1       0.005  10.651  20.599  0.00  0.00    +0.000 A 
ATOM     23  C   UNL     1      -1.112  11.488  20.604  0.00  0.00    +0.000 A 
BRANCH  18  25
ATOM     24  C   UNL     1      -4.073  11.753  18.532  0.00  0.00    +0.000 C 
ATOM     25  O   UNL     1      -3.114  12.223  19.486  0.00  0.00    +0.000 OA
ENDBRANCH  18  25
BRANCH  23  26
ATOM     26  O   UNL     1      -1.247  12.106  21.813  0.00  0.00    +0.000 OA
ATOM     27  C   UNL     1      -1.197  11.340  23.000  0.00  0.00    +0.000 C 
ENDBRANCH  23  26
ENDBRANCH   1  21
TORSDOF 4
ENDMDL
MODEL 3
REMARK VINA RESULT:      -6.4      3.084      8.804
REMARK  Name = 
REMARK  7 active torsions:
REMARK  status: ('A' for Active; 'I' for Inactive)
REMARK    1  A    between atoms: C_1  and  O_2
REMARK    2  A    between atoms: O_2  and  C_3
REMARK    3  A    between atoms: C_6  and  N_7
REMARK    4  A    between atoms: C_11  and  C_13
REMARK    5  A    between atoms: C_20  and  C_21
REMARK    6  A    between atoms: C_25  and  O_26
REMARK    7  A    between atoms: O_26  and  C_27
REMARK                            x       y       z     vdW  Elec       q    Type
REMARK                         _______ _______ _______ _____ _____    ______ ____
ROOT
ATOM      1  N   UNL     1       1.450   8.779  19.772  0.00  0.00    +0.000 N 
ATOM      2  C   UNL     1       0.913   9.571  18.659  0.00  0.00    +0.000 C 
ATOM      3  C   UNL     1      -0.525  10.021  18.916  0.00  0.00    +0.000 C 
ATOM      4  N   UNL     1      -0.635  10.676  20.222  0.00  0.00    +0.000 N 
ATOM      5  C   UNL     1      -1.292  11.917  20.281  0.00  0.00    +0.000 C 
ATOM      6  O   UNL     1      -1.726  12.425  19.247  0.00  0.00    +0.000 OA
ATOM      7  C   UNL     1      -0.072   9.891  21.340  0.00  0.00    +0.000 C 
ATOM      8  C   UNL     1      -1.015   8.723  21.700  0.00  0.00    +0.000 C 
ATOM      9  C   UNL     1       1.297   9.268  21.070  0.00  0.00    +0.000 C 
ATOM     10  O   UNL     1       2.047   8.999  22.015  0.00  0.00    +0.000 OA
ENDROOT
BRANCH   5  11
ATOM     11  C   UNL     1      -1.505  12.659  21.571  0.00  0.00    +0.000 A 
ATOM     12  C   UNL     1      -2.683  12.474  22.312  0.00  0.00    +0.000 A 
ATOM     13  C   UNL     1      -2.904  13.092  23.540  0.00  0.00    +0.000 A 
ATOM     14  C   UNL     1      -1.982  14.004  24.018  0.00  0.00    +0.000 A 
ATOM     15  C   UNL     1      -0.847  14.287  23.262  0.00  0.00    +0.000 A 
ATOM     16  C   UNL     1      -0.599  13.623  22.047  0.00  0.00    +0.000 A 
ATOM     17 CL   UNL     1       0.851  14.099  21.229  0.00  0.00    +0.000 Cl
ENDBRANCH   5  11
BRANCH   1  21
ATOM     18  C   UNL     1       3.598   5.181  19.264  0.00  0.00    +0.000 A 
ATOM     19  C   UNL     1       3.700   6.210  18.322  0.00  0.00    +0.000 A 
ATOM     20  C   UNL     1       2.967   7.381  18.464  0.00  0.00    +0.000 A 
ATOM     21  C   UNL     1       2.073   7.534  19.536  0.00  0.00    +0.000 A 
ATOM     22  C   UNL     1       1.890   6.455  20.393  0.00  0.00    +0.000 A 
ATOM     23  C   UNL     1       2.622   5.273  20.267  0.00  0.00    +0.000 A 
BRANCH  18  25
ATOM     24  C   UNL     1       4.009   3.047  18.367  0.00  0.00    +0.000 C 
ATOM     25  O   UNL     1       4.451   4.111  19.217  0.00  0.00    +0.000 OA
ENDBRANCH  18  25
BRANCH  23  26
ATOM     26  O   UNL     1       2.262   4.376  21.230  0.00  0.00    +0.000 OA
ATOM     27  C   UNL     1       1.299   3.383  20.937  0.00  0.00    +0.000 C 
ENDBRANCH  23  26
ENDBRANCH   1  21
TORSDOF 4
ENDMDL
MODEL 4
REMARK VINA RESULT:      -6.4      3.479      8.782
REMARK  Name = 
REMARK  7 active torsions:
REMARK  status: ('A' for Active; 'I' for Inactive)
REMARK    1  A    between atoms: C_1  and  O_2
REMARK    2  A    between atoms: O_2  and  C_3
REMARK    3  A    between atoms: C_6  and  N_7
REMARK    4  A    between atoms: C_11  and  C_13
REMARK    5  A    between atoms: C_20  and  C_21
REMARK    6  A    between atoms: C_25  and  O_26
REMARK    7  A    between atoms: O_26  and  C_27
REMARK                            x       y       z     vdW  Elec       q    Type
REMARK                         _______ _______ _______ _____ _____    ______ ____
ROOT
ATOM      1  N   UNL     1       1.129   9.218  20.237  0.00  0.00    +0.000 N 
ATOM      2  C   UNL     1       0.376   9.870  19.157  0.00  0.00    +0.000 C 
ATOM      3  C   UNL     1      -0.953  10.441  19.649  0.00  0.00    +0.000 C 
ATOM      4  N   UNL     1      -0.749  11.286  20.828  0.00  0.00    +0.000 N 
ATOM      5  C   UNL     1      -1.341  12.560  20.833  0.00  0.00    +0.000 C 
ATOM      6  O   UNL     1      -1.983  12.936  19.852  0.00  0.00    +0.000 OA
ATOM      7  C   UNL     1       0.030  10.641  21.904  0.00  0.00    +0.000 C 
ATOM      8  C   UNL     1      -0.839   9.599  22.641  0.00  0.00    +0.000 C 
ATOM      9  C   UNL     1       1.286   9.901  21.442  0.00  0.00    +0.000 C 
ATOM     10  O   UNL     1       2.223   9.729  22.231  0.00  0.00    +0.000 OA
ENDROOT
BRANCH   5  11
ATOM     11  C   UNL     1      -1.237  13.496  22.005  0.00  0.00    +0.000 A 
ATOM     12  C   UNL     1      -0.239  14.482  22.043  0.00  0.00    +0.000 A 
ATOM     13  C   UNL     1      -0.136  15.410  23.076  0.00  0.00    +0.000 A 
ATOM     14  C   UNL     1      -0.982  15.310  24.165  0.00  0.00    +0.000 A 
ATOM     15  C   UNL     1      -1.921  14.283  24.209  0.00  0.00    +0.000 A 
ATOM     16  C   UNL     1      -2.059  13.379  23.140  0.00  0.00    +0.000 A 
ATOM     17 CL   UNL     1      -3.268  12.158  23.358  0.00  0.00    +0.000 Cl
ENDBRANCH   5  11
BRANCH   1  21
ATOM     18  C   UNL     1       2.370   5.241  19.556  0.00  0.00    +0.000 A 
ATOM     19  C   UNL     1       1.695   5.585  20.733  0.00  0.00    +0.000 A 
ATOM     20  C   UNL     1       1.318   6.899  20.980  0.00  0.00    +0.000 A 
ATOM     21  C   UNL     1       1.648   7.916  20.069  0.00  0.00    +0.000 A 
ATOM     22  C   UNL     1       2.426   7.580  18.967  0.00  0.00    +0.000 A 
ATOM     23  C   UNL     1       2.810   6.264  18.702  0.00  0.00    +0.000 A 
BRANCH  18  25
ATOM     24  C   UNL     1       1.582   3.367  18.375  0.00  0.00    +0.000 C 
ATOM     25  O   UNL     1       2.580   3.927  19.235  0.00  0.00    +0.000 OA
ENDBRANCH  18  25
BRANCH  23  26
ATOM     26  O   UNL     1       3.559   6.199  17.564  0.00  0.00    +0.000 OA
ATOM     27  C   UNL     1       4.966   6.308  17.645  0.00  0.00    +0.000 C 
ENDBRANCH  23  26
ENDBRANCH   1  21
TORSDOF 4
ENDMDL
MODEL 5
REMARK VINA RESULT:      -6.3      1.073      1.390
REMARK  Name = 
REMARK  7 active torsions:
REMARK  status: ('A' for Active; 'I' for Inactive)
REMARK    1  A    between atoms: C_1  and  O_2
REMARK    2  A    between atoms: O_2  and  C_3
REMARK    3  A    between atoms: C_6  and  N_7
REMARK    4  A    between atoms: C_11  and  C_13
REMARK    5  A    between atoms: C_20  and  C_21
REMARK    6  A    between atoms: C_25  and  O_26
REMARK    7  A    between atoms: O_26  and  C_27
REMARK                            x       y       z     vdW  Elec       q    Type
REMARK                         _______ _______ _______ _____ _____    ______ ____
ROOT
ATOM      1  N   UNL     1       1.577   8.666  19.640  0.00  0.00    +0.000 N 
ATOM      2  C   UNL     1       1.891   7.779  20.767  0.00  0.00    +0.000 C 
ATOM      3  C   UNL     1       1.960   6.313  20.340  0.00  0.00    +0.000 C 
ATOM      4  N   UNL     1       2.850   6.152  19.187  0.00  0.00    +0.000 N 
ATOM      5  C   UNL     1       3.828   5.145  19.248  0.00  0.00    +0.000 C 
ATOM      6  O   UNL     1       3.927   4.454  20.263  0.00  0.00    +0.000 OA
ATOM      7  C   UNL     1       2.552   7.062  18.063  0.00  0.00    +0.000 C 
ATOM      8  C   UNL     1       1.286   6.590  17.316  0.00  0.00    +0.000 C 
ATOM      9  C   UNL     1       2.299   8.518  18.456  0.00  0.00    +0.000 C 
ATOM     10  O   UNL     1       2.492   9.419  17.632  0.00  0.00    +0.000 OA
ENDROOT
BRANCH   5  11
ATOM     11  C   UNL     1       4.766   4.857  18.109  0.00  0.00    +0.000 A 
ATOM     12  C   UNL     1       4.286   4.296  16.916  0.00  0.00    +0.000 A 
ATOM     13  C   UNL     1       5.102   4.065  15.811  0.00  0.00    +0.000 A 
ATOM     14  C   UNL     1       6.461   4.299  15.909  0.00  0.00    +0.000 A 
ATOM     15  C   UNL     1       6.989   4.762  17.111  0.00  0.00    +0.000 A 
ATOM     16  C   UNL     1       6.156   5.047  18.209  0.00  0.00    +0.000 A 
ATOM     17 CL   UNL     1       6.973   5.606  19.630  0.00  0.00    +0.000 Cl
ENDBRANCH   5  11
BRANCH   1  21
ATOM     18  C   UNL     1      -1.266  11.780  19.852  0.00  0.00    +0.000 A 
ATOM     19  C   UNL     1      -0.551  11.389  20.990  0.00  0.00    +0.000 A 
ATOM     20  C   UNL     1       0.358  10.341  20.935  0.00  0.00    +0.000 A 
ATOM     21  C   UNL     1       0.543   9.622  19.742  0.00  0.00    +0.000 A 
ATOM     22  C   UNL     1      -0.264   9.940  18.656  0.00  0.00    +0.000 A 
ATOM     23  C   UNL     1      -1.179  10.993  18.693  0.00  0.00    +0.000 A 
BRANCH  18  25
ATOM     24  C   UNL     1      -3.359  12.731  20.342  0.00  0.00    +0.000 C 
ATOM     25  O   UNL     1      -2.022  12.920  19.865  0.00  0.00    +0.000 OA
ENDBRANCH  18  25
BRANCH  23  26
ATOM     26  O   UNL     1      -1.839  11.102  17.504  0.00  0.00    +0.000 OA
ATOM     27  C   UNL     1      -2.187   9.934  16.787  0.00  0.00    +0.000 C 
ENDBRANCH  23  26
ENDBRANCH   1  21
TORSDOF 4
ENDMDL
MODEL 6
REMARK VINA RESULT:      -6.3      3.359      8.824
REMARK  Name = 
REMARK  7 active torsions:
REMARK  status: ('A' for Active; 'I' for Inactive)
REMARK    1  A    between atoms: C_1  and  O_2
REMARK    2  A    between atoms: O_2  and  C_3
REMARK    3  A    between atoms: C_6  and  N_7
REMARK    4  A    between atoms: C_11  and  C_13
REMARK    5  A    between atoms: C_20  and  C_21
REMARK    6  A    between atoms: C_25  and  O_26
REMARK    7  A    between atoms: O_26  and  C_27
REMARK                            x       y       z     vdW  Elec       q    Type
REMARK                         _______ _______ _______ _____ _____    ______ ____
ROOT
ATOM      1  N   UNL     1       1.147   9.154  20.195  0.00  0.00    +0.000 N 
ATOM      2  C   UNL     1       0.432   9.833  19.107  0.00  0.00    +0.000 C 
ATOM      3  C   UNL     1      -0.948  10.322  19.546  0.00  0.00    +0.000 C 
ATOM      4  N   UNL     1      -0.850  11.109  20.778  0.00  0.00    +0.000 N 
ATOM      5  C   UNL     1      -1.496  12.356  20.814  0.00  0.00    +0.000 C 
ATOM      6  O   UNL     1      -2.095  12.760  19.816  0.00  0.00    +0.000 OA
ATOM      7  C   UNL     1      -0.108  10.438  21.865  0.00  0.00    +0.000 C 
ATOM      8  C   UNL     1      -0.973   9.324  22.492  0.00  0.00    +0.000 C 
ATOM      9  C   UNL     1       1.203   9.776  21.443  0.00  0.00    +0.000 C 
ATOM     10  O   UNL     1       2.099   9.598  22.277  0.00  0.00    +0.000 OA
ENDROOT
BRANCH   5  11
ATOM     11  C   UNL     1      -1.502  13.230  22.037  0.00  0.00    +0.000 A 
ATOM     12  C   UNL     1      -2.581  13.191  22.934  0.00  0.00    +0.000 A 
ATOM     13  C   UNL     1      -2.609  13.936  24.111  0.00  0.00    +0.000 A 
ATOM     14  C   UNL     1      -1.587  14.829  24.374  0.00  0.00    +0.000 A 
ATOM     15  C   UNL     1      -0.548  14.967  23.457  0.00  0.00    +0.000 A 
ATOM     16  C   UNL     1      -0.494  14.176  22.296  0.00  0.00    +0.000 A 
ATOM     17 CL   UNL     1       0.859  14.479  21.258  0.00  0.00    +0.000 Cl
ENDBRANCH   5  11
BRANCH   1  21
ATOM     18  C   UNL     1       2.588   5.267  19.402  0.00  0.00    +0.000 A 
ATOM     19  C   UNL     1       1.890   5.540  20.584  0.00  0.00    +0.000 A 
ATOM     20  C   UNL     1       1.446   6.825  20.868  0.00  0.00    +0.000 A 
ATOM     21  C   UNL     1       1.731   7.885  19.992  0.00  0.00    +0.000 A 
ATOM     22  C   UNL     1       2.532   7.622  18.887  0.00  0.00    +0.000 A 
ATOM     23  C   UNL     1       2.983   6.336  18.584  0.00  0.00    +0.000 A 
BRANCH  18  25
ATOM     24  C   UNL     1       1.878   3.378  18.195  0.00  0.00    +0.000 C 
ATOM     25  O   UNL     1       2.866   3.975  19.043  0.00  0.00    +0.000 OA
ENDBRANCH  18  25
BRANCH  23  26
ATOM     26  O   UNL     1       3.742   6.344  17.451  0.00  0.00    +0.000 OA
ATOM     27  C   UNL     1       5.152   6.313  17.552  0.00  0.00    +0.000 C 
ENDBRANCH  23  26
ENDBRANCH   1  21
TORSDOF 4
ENDMDL
MODEL 7
REMARK VINA RESULT:      -6.2      3.948      9.368
REMARK  Name = 
REMARK  7 active torsions:
REMARK  status: ('A' for Active; 'I' for Inactive)
REMARK    1  A    between atoms: C_1  and  O_2
REMARK    2  A    between atoms: O_2  and  C_3
REMARK    3  A    between atoms: C_6  and  N_7
REMARK    4  A    between atoms: C_11  and  C_13
REMARK    5  A    between atoms: C_20  and  C_21
REMARK    6  A    between atoms: C_25  and  O_26
REMARK    7  A    between atoms: O_26  and  C_27
REMARK                            x       y       z     vdW  Elec       q    Type
REMARK                         _______ _______ _______ _____ _____    ______ ____
ROOT
ATOM      1  N   UNL     1       0.200  10.826  19.803  0.00  0.00    +0.000 N 
ATOM      2  C   UNL     1      -0.973  11.306  19.060  0.00  0.00    +0.000 C 
ATOM      3  C   UNL     1      -2.171  11.553  19.977  0.00  0.00    +0.000 C 
ATOM      4  N   UNL     1      -1.790  12.404  21.107  0.00  0.00    +0.000 N 
ATOM      5  C   UNL     1      -2.606  13.510  21.399  0.00  0.00    +0.000 C 
ATOM      6  O   UNL     1      -3.588  13.745  20.693  0.00  0.00    +0.000 OA
ATOM      7  C   UNL     1      -0.596  11.937  21.839  0.00  0.00    +0.000 C 
ATOM      8  C   UNL     1      -0.949  10.714  22.712  0.00  0.00    +0.000 C 
ATOM      9  C   UNL     1       0.579  11.509  20.959  0.00  0.00    +0.000 C 
ATOM     10  O   UNL     1       1.729  11.543  21.410  0.00  0.00    +0.000 OA
ENDROOT
BRANCH   5  11
ATOM     11  C   UNL     1      -2.341  14.427  22.560  0.00  0.00    +0.000 A 
ATOM     12  C   UNL     1      -1.482  15.528  22.417  0.00  0.00    +0.000 A 
ATOM     13  C   UNL     1      -1.250  16.440  23.443  0.00  0.00    +0.000 A 
ATOM     14  C   UNL     1      -1.800  16.214  24.691  0.00  0.00    +0.000 A 
ATOM     15  C   UNL     1      -2.579  15.078  24.898  0.00  0.00    +0.000 A 
ATOM     16  C   UNL     1      -2.857  14.186  23.846  0.00  0.00    +0.000 A 
ATOM     17 CL   UNL     1      -3.832  12.821  24.275  0.00  0.00    +0.000 Cl
ENDBRANCH   5  11
BRANCH   1  21
ATOM     18  C   UNL     1       2.611   7.561  18.645  0.00  0.00    +0.000 A 
ATOM     19  C   UNL     1       2.318   8.586  17.739  0.00  0.00    +0.000 A 
ATOM     20  C   UNL     1       1.494   9.644  18.102  0.00  0.00    +0.000 A 
ATOM     21  C   UNL     1       0.903   9.679  19.376  0.00  0.00    +0.000 A 
ATOM     22  C   UNL     1       1.103   8.593  20.220  0.00  0.00    +0.000 A 
ATOM     23  C   UNL     1       1.931   7.525  19.872  0.00  0.00    +0.000 A 
BRANCH  18  25
ATOM     24  C   UNL     1       4.323   6.913  17.171  0.00  0.00    +0.000 C 
ATOM     25  O   UNL     1       3.559   6.621  18.346  0.00  0.00    +0.000 OA
ENDBRANCH  18  25
BRANCH  23  26
ATOM     26  O   UNL     1       1.965   6.595  20.869  0.00  0.00    +0.000 OA
ATOM     27  C   UNL     1       1.592   5.258  20.594  0.00  0.00    +0.000 C 
ENDBRANCH  23  26
ENDBRANCH   1  21
TORSDOF 4
ENDMDL
MODEL 8
REMARK VINA RESULT:      -6.1      3.130      8.741
REMARK  Name = 
REMARK  7 active torsions:
REMARK  status: ('A' for Active; 'I' for Inactive)
REMARK    1  A    between atoms: C_1  and  O_2
REMARK    2  A    between atoms: O_2  and  C_3
REMARK    3  A    between atoms: C_6  and  N_7
REMARK    4  A    between atoms: C_11  and  C_13
REMARK    5  A    between atoms: C_20  and  C_21
REMARK    6  A    between atoms: C_25  and  O_26
REMARK    7  A    between atoms: O_26  and  C_27
REMARK                            x       y       z     vdW  Elec       q    Type
REMARK                         _______ _______ _______ _____ _____    ______ ____
ROOT
ATOM      1  N   UNL     1       0.923   8.871  19.877  0.00  0.00    +0.000 N 
ATOM      2  C   UNL     1       0.662   8.660  21.307  0.00  0.00    +0.000 C 
ATOM      3  C   UNL     1       0.753   9.962  22.104  0.00  0.00    +0.000 C 
ATOM      4  N   UNL     1      -0.077  11.002  21.492  0.00  0.00    +0.000 N 
ATOM      5  C   UNL     1      -0.952  11.719  22.326  0.00  0.00    +0.000 C 
ATOM      6  O   UNL     1      -1.015  11.440  23.524  0.00  0.00    +0.000 OA
ATOM      7  C   UNL     1       0.166  11.196  20.049  0.00  0.00    +0.000 C 
ATOM      8  C   UNL     1       1.497  11.948  19.828  0.00  0.00    +0.000 C 
ATOM      9  C   UNL     1       0.259   9.911  19.227  0.00  0.00    +0.000 C 
ATOM     10  O   UNL     1       0.005   9.935  18.017  0.00  0.00    +0.000 OA
ENDROOT
BRANCH   5  11
ATOM     11  C   UNL     1      -1.818  12.838  21.820  0.00  0.00    +0.000 A 
ATOM     12  C   UNL     1      -3.113  12.577  21.345  0.00  0.00    +0.000 A 
ATOM     13  C   UNL     1      -3.976  13.584  20.921  0.00  0.00    +0.000 A 
ATOM     14  C   UNL     1      -3.522  14.889  20.863  0.00  0.00    +0.000 A 
ATOM     15  C   UNL     1      -2.210  15.172  21.233  0.00  0.00    +0.000 A 
ATOM     16  C   UNL     1      -1.356  14.162  21.713  0.00  0.00    +0.000 A 
ATOM     17 CL   UNL     1       0.245  14.681  22.119  0.00  0.00    +0.000 Cl
ENDBRANCH   5  11
BRANCH   1  21
ATOM     18  C   UNL     1       3.969   6.639  17.991  0.00  0.00    +0.000 A 
ATOM     19  C   UNL     1       3.450   7.789  17.385  0.00  0.00    +0.000 A 
ATOM     20  C   UNL     1       2.421   8.506  17.983  0.00  0.00    +0.000 A 
ATOM     21  C   UNL     1       1.853   8.062  19.188  0.00  0.00    +0.000 A 
ATOM     22  C   UNL     1       2.293   6.853  19.712  0.00  0.00    +0.000 A 
ATOM     23  C   UNL     1       3.328   6.122  19.127  0.00  0.00    +0.000 A 
BRANCH  18  25
ATOM     24  C   UNL     1       5.194   6.078  16.064  0.00  0.00    +0.000 C 
ATOM     25  O   UNL     1       5.094   6.040  17.492  0.00  0.00    +0.000 OA
ENDBRANCH  18  25
BRANCH  23  26
ATOM     26  O   UNL     1       3.575   4.981  19.833  0.00  0.00    +0.000 OA
ATOM     27  C   UNL     1       2.808   3.820  19.579  0.00  0.00    +0.000 C 
ENDBRANCH  23  26
ENDBRANCH   1  21
TORSDOF 4
ENDMDL
MODEL 9
REMARK VINA RESULT:      -6.1      1.335      2.322
REMARK  Name = 
REMARK  7 active torsions:
REMARK  status: ('A' for Active; 'I' for Inactive)
REMARK    1  A    between atoms: C_1  and  O_2
REMARK    2  A    between atoms: O_2  and  C_3
REMARK    3  A    between atoms: C_6  and  N_7
REMARK    4  A    between atoms: C_11  and  C_13
REMARK    5  A    between atoms: C_20  and  C_21
REMARK    6  A    between atoms: C_25  and  O_26
REMARK    7  A    between atoms: O_26  and  C_27
REMARK                            x       y       z     vdW  Elec       q    Type
REMARK                         _______ _______ _______ _____ _____    ______ ____
ROOT
ATOM      1  N   UNL     1       1.584   8.809  19.449  0.00  0.00    +0.000 N 
ATOM      2  C   UNL     1       1.890   7.993  20.631  0.00  0.00    +0.000 C 
ATOM      3  C   UNL     1       1.946   6.502  20.299  0.00  0.00    +0.000 C 
ATOM      4  N   UNL     1       2.835   6.259  19.160  0.00  0.00    +0.000 N 
ATOM      5  C   UNL     1       3.803   5.249  19.287  0.00  0.00    +0.000 C 
ATOM      6  O   UNL     1       3.895   4.624  20.344  0.00  0.00    +0.000 OA
ATOM      7  C   UNL     1       2.545   7.098  17.980  0.00  0.00    +0.000 C 
ATOM      8  C   UNL     1       1.276   6.591  17.263  0.00  0.00    +0.000 C 
ATOM      9  C   UNL     1       2.306   8.578  18.278  0.00  0.00    +0.000 C 
ATOM     10  O   UNL     1       2.507   9.423  17.398  0.00  0.00    +0.000 OA
ENDROOT
BRANCH   5  11
ATOM     11  C   UNL     1       4.740   4.881  18.170  0.00  0.00    +0.000 A 
ATOM     12  C   UNL     1       4.250   4.282  16.999  0.00  0.00    +0.000 A 
ATOM     13  C   UNL     1       5.065   3.975  15.913  0.00  0.00    +0.000 A 
ATOM     14  C   UNL     1       6.430   4.169  16.012  0.00  0.00    +0.000 A 
ATOM     15  C   UNL     1       6.965   4.669  17.196  0.00  0.00    +0.000 A 
ATOM     16  C   UNL     1       6.134   5.029  18.273  0.00  0.00    +0.000 A 
ATOM     17 CL   UNL     1       6.959   5.625  19.674  0.00  0.00    +0.000 Cl
ENDBRANCH   5  11
BRANCH   1  21
ATOM     18  C   UNL     1      -1.715  11.435  19.644  0.00  0.00    +0.000 A 
ATOM     19  C   UNL     1      -1.325  10.870  18.424  0.00  0.00    +0.000 A 
ATOM     20  C   UNL     1      -0.218  10.036  18.347  0.00  0.00    +0.000 A 
ATOM     21  C   UNL     1       0.559   9.779  19.489  0.00  0.00    +0.000 A 
ATOM     22  C   UNL     1       0.234  10.445  20.664  0.00  0.00    +0.000 A 
ATOM     23  C   UNL     1      -0.878  11.284  20.760  0.00  0.00    +0.000 A 
BRANCH  18  25
ATOM     24  C   UNL     1      -3.841  11.804  18.711  0.00  0.00    +0.000 C 
ATOM     25  O   UNL     1      -2.902  12.108  19.749  0.00  0.00    +0.000 OA
ENDBRANCH  18  25
BRANCH  23  26
ATOM     26  O   UNL     1      -0.982  11.808  22.014  0.00  0.00    +0.000 OA
ATOM     27  C   UNL     1      -1.214  10.951  23.115  0.00  0.00    +0.000 C 
ENDBRANCH  23  26
ENDBRANCH   1  21
TORSDOF 4
ENDMDL
