MODEL 1
REMARK VINA RESULT:      -8.2      0.000      0.000
REMARK  Name = 
REMARK  4 active torsions:
REMARK  status: ('A' for Active; 'I' for Inactive)
REMARK    1  A    between atoms: C_2  and  C_3
REMARK    2  A    between atoms: C_2  and  C_17
REMARK    3  A    between atoms: C_3  and  N_4
REMARK    4  A    between atoms: C_5  and  C_6
REMARK                            x       y       z     vdW  Elec       q    Type
REMARK                         _______ _______ _______ _____ _____    ______ ____
ROOT
ATOM      1  N   UNL     1       2.682   4.584  19.231  0.00  0.00    +0.000 N 
ATOM      2  C   UNL     1       2.139   4.254  20.468  0.00  0.00    +0.000 A 
ATOM      3  N   UNL     1       1.600   5.332  21.022  0.00  0.00    +0.000 NA
ATOM      4  C   UNL     1       1.838   6.376  20.179  0.00  0.00    +0.000 A 
ATOM      5  C   UNL     1       1.497   7.729  20.317  0.00  0.00    +0.000 A 
ATOM      6  C   UNL     1       1.865   8.626  19.309  0.00  0.00    +0.000 A 
ATOM      7  C   UNL     1       2.562   8.184  18.187  0.00  0.00    +0.000 A 
ATOM      8  C   UNL     1       2.914   6.838  18.038  0.00  0.00    +0.000 A 
ATOM      9  C   UNL     1       2.530   5.948  19.051  0.00  0.00    +0.000 A 
ENDROOT
BRANCH   2  10
ATOM     10  C   UNL     1       2.118   2.890  21.101  0.00  0.00    +0.000 C 
ATOM     11  F   UNL     1       3.341   2.442  21.486  0.00  0.00    +0.000 F 
ATOM     12  F   UNL     1       1.336   2.848  22.209  0.00  0.00    +0.000 F 
ATOM     13  F   UNL     1       1.644   1.951  20.240  0.00  0.00    +0.000 F 
ENDBRANCH   2  10
BRANCH   1  14
ATOM     14  C   UNL     1       3.365   3.723  18.281  0.00  0.00    +0.000 C 
BRANCH  14  16
ATOM     15  O   UNL     1       5.539   3.606  19.296  0.00  0.00    +0.000 OA
ATOM     16  C   UNL     1       4.871   3.857  18.293  0.00  0.00    +0.000 C 
BRANCH  16  17
ATOM     17  C   UNL     1       5.588   4.214  17.041  0.00  0.00    +0.000 A 
ATOM     18  C   UNL     1       4.874   4.113  15.838  0.00  0.00    +0.000 A 
ATOM     19  C   UNL     1       5.487   4.435  14.628  0.00  0.00    +0.000 A 
ATOM     20  C   UNL     1       6.813   4.853  14.626  0.00  0.00    +0.000 A 
ATOM     21  F   UNL     1       7.408   5.158  13.466  0.00  0.00    +0.000 F 
ATOM     22  C   UNL     1       7.536   4.953  15.809  0.00  0.00    +0.000 A 
ATOM     23  C   UNL     1       6.923   4.631  17.024  0.00  0.00    +0.000 A 
ENDBRANCH  16  17
ENDBRANCH  14  16
ENDBRANCH   1  14
TORSDOF 4
ENDMDL
MODEL 2
REMARK VINA RESULT:      -8.2      0.175      1.309
REMARK  Name = 
REMARK  4 active torsions:
REMARK  status: ('A' for Active; 'I' for Inactive)
REMARK    1  A    between atoms: C_2  and  C_3
REMARK    2  A    between atoms: C_2  and  C_17
REMARK    3  A    between atoms: C_3  and  N_4
REMARK    4  A    between atoms: C_5  and  C_6
REMARK                            x       y       z     vdW  Elec       q    Type
REMARK                         _______ _______ _______ _____ _____    ______ ____
ROOT
ATOM      1  N   UNL     1       2.728   4.633  19.163  0.00  0.00    +0.000 N 
ATOM      2  C   UNL     1       2.234   4.278  20.413  0.00  0.00    +0.000 A 
ATOM      3  N   UNL     1       1.699   5.341  20.999  0.00  0.00    +0.000 NA
ATOM      4  C   UNL     1       1.891   6.398  20.163  0.00  0.00    +0.000 A 
ATOM      5  C   UNL     1       1.535   7.744  20.330  0.00  0.00    +0.000 A 
ATOM      6  C   UNL     1       1.855   8.660  19.322  0.00  0.00    +0.000 A 
ATOM      7  C   UNL     1       2.518   8.243  18.171  0.00  0.00    +0.000 A 
ATOM      8  C   UNL     1       2.885   6.905  17.992  0.00  0.00    +0.000 A 
ATOM      9  C   UNL     1       2.550   5.996  19.005  0.00  0.00    +0.000 A 
ENDROOT
BRANCH   2  10
ATOM     10  C   UNL     1       2.256   2.906  21.028  0.00  0.00    +0.000 C 
ATOM     11  F   UNL     1       1.608   1.963  20.297  0.00  0.00    +0.000 F 
ATOM     12  F   UNL     1       3.517   2.442  21.208  0.00  0.00    +0.000 F 
ATOM     13  F   UNL     1       1.649   2.900  22.245  0.00  0.00    +0.000 F 
ENDBRANCH   2  10
BRANCH   1  14
ATOM     14  C   UNL     1       3.390   3.794  18.177  0.00  0.00    +0.000 C 
BRANCH  14  16
ATOM     15  O   UNL     1       5.601   3.792  19.117  0.00  0.00    +0.000 OA
ATOM     16  C   UNL     1       4.892   3.965  18.126  0.00  0.00    +0.000 C 
BRANCH  16  17
ATOM     17  C   UNL     1       5.555   4.261  16.830  0.00  0.00    +0.000 A 
ATOM     18  C   UNL     1       6.886   4.702  16.872  0.00  0.00    +0.000 A 
ATOM     19  C   UNL     1       7.567   4.994  15.692  0.00  0.00    +0.000 A 
ATOM     20  C   UNL     1       6.914   4.849  14.473  0.00  0.00    +0.000 A 
ATOM     21  F   UNL     1       7.562   5.134  13.338  0.00  0.00    +0.000 F 
ATOM     22  C   UNL     1       5.594   4.418  14.414  0.00  0.00    +0.000 A 
ATOM     23  C   UNL     1       4.908   4.123  15.597  0.00  0.00    +0.000 A 
ENDBRANCH  16  17
ENDBRANCH  14  16
ENDBRANCH   1  14
TORSDOF 4
ENDMDL
MODEL 3
REMARK VINA RESULT:      -8.1      2.817      6.815
REMARK  Name = 
REMARK  4 active torsions:
REMARK  status: ('A' for Active; 'I' for Inactive)
REMARK    1  A    between atoms: C_2  and  C_3
REMARK    2  A    between atoms: C_2  and  C_17
REMARK    3  A    between atoms: C_3  and  N_4
REMARK    4  A    between atoms: C_5  and  C_6
REMARK                            x       y       z     vdW  Elec       q    Type
REMARK                         _______ _______ _______ _____ _____    ______ ____
ROOT
ATOM      1  N   UNL     1       5.820   4.338  16.108  0.00  0.00    +0.000 N 
ATOM      2  C   UNL     1       6.784   5.200  16.616  0.00  0.00    +0.000 A 
ATOM      3  N   UNL     1       7.562   5.630  15.631  0.00  0.00    +0.000 NA
ATOM      4  C   UNL     1       7.146   5.008  14.493  0.00  0.00    +0.000 A 
ATOM      5  C   UNL     1       7.654   5.101  13.189  0.00  0.00    +0.000 A 
ATOM      6  C   UNL     1       7.056   4.346  12.174  0.00  0.00    +0.000 A 
ATOM      7  C   UNL     1       5.976   3.513  12.454  0.00  0.00    +0.000 A 
ATOM      8  C   UNL     1       5.461   3.406  13.750  0.00  0.00    +0.000 A 
ATOM      9  C   UNL     1       6.063   4.175  14.755  0.00  0.00    +0.000 A 
ENDROOT
BRANCH   2  10
ATOM     10  C   UNL     1       6.937   5.630  18.049  0.00  0.00    +0.000 C 
ATOM     11  F   UNL     1       6.035   6.565  18.444  0.00  0.00    +0.000 F 
ATOM     12  F   UNL     1       6.808   4.593  18.915  0.00  0.00    +0.000 F 
ATOM     13  F   UNL     1       8.157   6.186  18.271  0.00  0.00    +0.000 F 
ENDBRANCH   2  10
BRANCH   1  14
ATOM     14  C   UNL     1       4.763   3.638  16.820  0.00  0.00    +0.000 C 
BRANCH  14  16
ATOM     15  O   UNL     1       3.530   5.680  17.103  0.00  0.00    +0.000 OA
ATOM     16  C   UNL     1       3.778   4.549  17.519  0.00  0.00    +0.000 C 
BRANCH  16  17
ATOM     17  C   UNL     1       3.011   4.045  18.688  0.00  0.00    +0.000 A 
ATOM     18  C   UNL     1       3.702   3.258  19.622  0.00  0.00    +0.000 A 
ATOM     19  C   UNL     1       3.043   2.756  20.742  0.00  0.00    +0.000 A 
ATOM     20  C   UNL     1       1.693   3.039  20.923  0.00  0.00    +0.000 A 
ATOM     21  F   UNL     1       1.055   2.554  21.995  0.00  0.00    +0.000 F 
ATOM     22  C   UNL     1       0.993   3.812  20.005  0.00  0.00    +0.000 A 
ATOM     23  C   UNL     1       1.652   4.317  18.880  0.00  0.00    +0.000 A 
ENDBRANCH  16  17
ENDBRANCH  14  16
ENDBRANCH   1  14
TORSDOF 4
ENDMDL
MODEL 4
REMARK VINA RESULT:      -8.1      2.843      6.758
REMARK  Name = 
REMARK  4 active torsions:
REMARK  status: ('A' for Active; 'I' for Inactive)
REMARK    1  A    between atoms: C_2  and  C_3
REMARK    2  A    between atoms: C_2  and  C_17
REMARK    3  A    between atoms: C_3  and  N_4
REMARK    4  A    between atoms: C_5  and  C_6
REMARK                            x       y       z     vdW  Elec       q    Type
REMARK                         _______ _______ _______ _____ _____    ______ ____
ROOT
ATOM      1  N   UNL     1       5.859   4.335  16.092  0.00  0.00    +0.000 N 
ATOM      2  C   UNL     1       6.794   5.227  16.603  0.00  0.00    +0.000 A 
ATOM      3  N   UNL     1       7.559   5.685  15.620  0.00  0.00    +0.000 NA
ATOM      4  C   UNL     1       7.163   5.053  14.480  0.00  0.00    +0.000 A 
ATOM      5  C   UNL     1       7.669   5.166  13.177  0.00  0.00    +0.000 A 
ATOM      6  C   UNL     1       7.097   4.395  12.159  0.00  0.00    +0.000 A 
ATOM      7  C   UNL     1       6.044   3.527  12.435  0.00  0.00    +0.000 A 
ATOM      8  C   UNL     1       5.532   3.399  13.731  0.00  0.00    +0.000 A 
ATOM      9  C   UNL     1       6.108   4.184  14.739  0.00  0.00    +0.000 A 
ENDROOT
BRANCH   2  10
ATOM     10  C   UNL     1       6.932   5.657  18.038  0.00  0.00    +0.000 C 
ATOM     11  F   UNL     1       6.796   4.645  18.933  0.00  0.00    +0.000 F 
ATOM     12  F   UNL     1       8.137   6.226  18.292  0.00  0.00    +0.000 F 
ATOM     13  F   UNL     1       5.980   6.568  18.375  0.00  0.00    +0.000 F 
ENDBRANCH   2  10
BRANCH   1  14
ATOM     14  C   UNL     1       4.825   3.599  16.802  0.00  0.00    +0.000 C 
BRANCH  14  16
ATOM     15  O   UNL     1       3.497   5.582  17.075  0.00  0.00    +0.000 OA
ATOM     16  C   UNL     1       3.815   4.475  17.508  0.00  0.00    +0.000 C 
BRANCH  16  17
ATOM     17  C   UNL     1       3.108   3.961  18.710  0.00  0.00    +0.000 A 
ATOM     18  C   UNL     1       1.747   4.275  18.842  0.00  0.00    +0.000 A 
ATOM     19  C   UNL     1       1.025   3.821  19.944  0.00  0.00    +0.000 A 
ATOM     20  C   UNL     1       1.667   3.059  20.914  0.00  0.00    +0.000 A 
ATOM     21  F   UNL     1       0.980   2.626  21.977  0.00  0.00    +0.000 F 
ATOM     22  C   UNL     1       3.016   2.744  20.801  0.00  0.00    +0.000 A 
ATOM     23  C   UNL     1       3.743   3.197  19.696  0.00  0.00    +0.000 A 
ENDBRANCH  16  17
ENDBRANCH  14  16
ENDBRANCH   1  14
TORSDOF 4
ENDMDL
MODEL 5
REMARK VINA RESULT:      -8.0      2.609      5.128
REMARK  Name = 
REMARK  4 active torsions:
REMARK  status: ('A' for Active; 'I' for Inactive)
REMARK    1  A    between atoms: C_2  and  C_3
REMARK    2  A    between atoms: C_2  and  C_17
REMARK    3  A    between atoms: C_3  and  N_4
REMARK    4  A    between atoms: C_5  and  C_6
REMARK                            x       y       z     vdW  Elec       q    Type
REMARK                         _______ _______ _______ _____ _____    ______ ____
ROOT
ATOM      1  N   UNL     1       4.569   4.207  18.031  0.00  0.00    +0.000 N 
ATOM      2  C   UNL     1       4.917   3.486  19.168  0.00  0.00    +0.000 A 
ATOM      3  N   UNL     1       5.998   4.019  19.722  0.00  0.00    +0.000 NA
ATOM      4  C   UNL     1       6.390   5.049  18.921  0.00  0.00    +0.000 A 
ATOM      5  C   UNL     1       7.488   5.912  19.051  0.00  0.00    +0.000 A 
ATOM      6  C   UNL     1       7.692   6.900  18.082  0.00  0.00    +0.000 A 
ATOM      7  C   UNL     1       6.821   7.023  17.002  0.00  0.00    +0.000 A 
ATOM      8  C   UNL     1       5.725   6.166  16.855  0.00  0.00    +0.000 A 
ATOM      9  C   UNL     1       5.527   5.188  17.839  0.00  0.00    +0.000 A 
ENDROOT
BRANCH   2  10
ATOM     10  C   UNL     1       4.188   2.298  19.733  0.00  0.00    +0.000 C 
ATOM     11  F   UNL     1       2.945   2.584  20.200  0.00  0.00    +0.000 F 
ATOM     12  F   UNL     1       4.029   1.308  18.820  0.00  0.00    +0.000 F 
ATOM     13  F   UNL     1       4.857   1.765  20.790  0.00  0.00    +0.000 F 
ENDBRANCH   2  10
BRANCH   1  14
ATOM     14  C   UNL     1       3.459   3.984  17.119  0.00  0.00    +0.000 C 
BRANCH  14  16
ATOM     15  O   UNL     1       1.091   3.761  17.455  0.00  0.00    +0.000 OA
ATOM     16  C   UNL     1       2.114   4.411  17.663  0.00  0.00    +0.000 C 
BRANCH  16  17
ATOM     17  C   UNL     1       2.025   5.598  18.554  0.00  0.00    +0.000 A 
ATOM     18  C   UNL     1       1.671   5.374  19.893  0.00  0.00    +0.000 A 
ATOM     19  C   UNL     1       1.571   6.443  20.781  0.00  0.00    +0.000 A 
ATOM     20  C   UNL     1       1.822   7.733  20.327  0.00  0.00    +0.000 A 
ATOM     21  F   UNL     1       1.722   8.763  21.175  0.00  0.00    +0.000 F 
ATOM     22  C   UNL     1       2.169   7.972  19.002  0.00  0.00    +0.000 A 
ATOM     23  C   UNL     1       2.270   6.901  18.109  0.00  0.00    +0.000 A 
ENDBRANCH  16  17
ENDBRANCH  14  16
ENDBRANCH   1  14
TORSDOF 4
ENDMDL
MODEL 6
REMARK VINA RESULT:      -8.0      2.789      6.783
REMARK  Name = 
REMARK  4 active torsions:
REMARK  status: ('A' for Active; 'I' for Inactive)
REMARK    1  A    between atoms: C_2  and  C_3
REMARK    2  A    between atoms: C_2  and  C_17
REMARK    3  A    between atoms: C_3  and  N_4
REMARK    4  A    between atoms: C_5  and  C_6
REMARK                            x       y       z     vdW  Elec       q    Type
REMARK                         _______ _______ _______ _____ _____    ______ ____
ROOT
ATOM      1  N   UNL     1       5.785   4.323  16.042  0.00  0.00    +0.000 N 
ATOM      2  C   UNL     1       6.760   5.147  16.592  0.00  0.00    +0.000 A 
ATOM      3  N   UNL     1       7.572   5.578  15.635  0.00  0.00    +0.000 NA
ATOM      4  C   UNL     1       7.166   4.994  14.473  0.00  0.00    +0.000 A 
ATOM      5  C   UNL     1       7.707   5.103  13.184  0.00  0.00    +0.000 A 
ATOM      6  C   UNL     1       7.114   4.387  12.138  0.00  0.00    +0.000 A 
ATOM      7  C   UNL     1       6.006   3.578  12.373  0.00  0.00    +0.000 A 
ATOM      8  C   UNL     1       5.458   3.455  13.655  0.00  0.00    +0.000 A 
ATOM      9  C   UNL     1       6.056   4.185  14.691  0.00  0.00    +0.000 A 
ENDROOT
BRANCH   2  10
ATOM     10  C   UNL     1       6.890   5.540  18.038  0.00  0.00    +0.000 C 
ATOM     11  F   UNL     1       8.147   5.906  18.399  0.00  0.00    +0.000 F 
ATOM     12  F   UNL     1       6.086   6.583  18.363  0.00  0.00    +0.000 F 
ATOM     13  F   UNL     1       6.562   4.509  18.861  0.00  0.00    +0.000 F 
ENDBRANCH   2  10
BRANCH   1  14
ATOM     14  C   UNL     1       4.693   3.636  16.713  0.00  0.00    +0.000 C 
BRANCH  14  16
ATOM     15  O   UNL     1       3.549   5.713  17.094  0.00  0.00    +0.000 OA
ATOM     16  C   UNL     1       3.746   4.553  17.453  0.00  0.00    +0.000 C 
BRANCH  16  17
ATOM     17  C   UNL     1       2.951   4.026  18.593  0.00  0.00    +0.000 A 
ATOM     18  C   UNL     1       3.091   4.672  19.830  0.00  0.00    +0.000 A 
ATOM     19  C   UNL     1       2.373   4.230  20.939  0.00  0.00    +0.000 A 
ATOM     20  C   UNL     1       1.520   3.139  20.808  0.00  0.00    +0.000 A 
ATOM     21  F   UNL     1       0.833   2.706  21.872  0.00  0.00    +0.000 F 
ATOM     22  C   UNL     1       1.374   2.484  19.591  0.00  0.00    +0.000 A 
ATOM     23  C   UNL     1       2.094   2.927  18.476  0.00  0.00    +0.000 A 
ENDBRANCH  16  17
ENDBRANCH  14  16
ENDBRANCH   1  14
TORSDOF 4
ENDMDL
MODEL 7
REMARK VINA RESULT:      -8.0      2.616      5.106
REMARK  Name = 
REMARK  4 active torsions:
REMARK  status: ('A' for Active; 'I' for Inactive)
REMARK    1  A    between atoms: C_2  and  C_3
REMARK    2  A    between atoms: C_2  and  C_17
REMARK    3  A    between atoms: C_3  and  N_4
REMARK    4  A    between atoms: C_5  and  C_6
REMARK                            x       y       z     vdW  Elec       q    Type
REMARK                         _______ _______ _______ _____ _____    ______ ____
ROOT
ATOM      1  N   UNL     1       4.573   4.270  17.967  0.00  0.00    +0.000 N 
ATOM      2  C   UNL     1       4.917   3.502  19.073  0.00  0.00    +0.000 A 
ATOM      3  N   UNL     1       6.001   4.006  19.648  0.00  0.00    +0.000 NA
ATOM      4  C   UNL     1       6.399   5.066  18.890  0.00  0.00    +0.000 A 
ATOM      5  C   UNL     1       7.501   5.916  19.056  0.00  0.00    +0.000 A 
ATOM      6  C   UNL     1       7.711   6.942  18.127  0.00  0.00    +0.000 A 
ATOM      7  C   UNL     1       6.841   7.114  17.054  0.00  0.00    +0.000 A 
ATOM      8  C   UNL     1       5.740   6.270  16.872  0.00  0.00    +0.000 A 
ATOM      9  C   UNL     1       5.537   5.253  17.815  0.00  0.00    +0.000 A 
ENDROOT
BRANCH   2  10
ATOM     10  C   UNL     1       4.182   2.295  19.589  0.00  0.00    +0.000 C 
ATOM     11  F   UNL     1       3.761   1.447  18.615  0.00  0.00    +0.000 F 
ATOM     12  F   UNL     1       4.939   1.553  20.434  0.00  0.00    +0.000 F 
ATOM     13  F   UNL     1       3.059   2.653  20.267  0.00  0.00    +0.000 F 
ENDBRANCH   2  10
BRANCH   1  14
ATOM     14  C   UNL     1       3.462   4.091  17.046  0.00  0.00    +0.000 C 
BRANCH  14  16
ATOM     15  O   UNL     1       1.100   3.814  17.378  0.00  0.00    +0.000 OA
ATOM     16  C   UNL     1       2.115   4.465  17.621  0.00  0.00    +0.000 C 
BRANCH  16  17
ATOM     17  C   UNL     1       2.013   5.593  18.583  0.00  0.00    +0.000 A 
ATOM     18  C   UNL     1       2.215   6.888  18.081  0.00  0.00    +0.000 A 
ATOM     19  C   UNL     1       2.130   7.991  18.929  0.00  0.00    +0.000 A 
ATOM     20  C   UNL     1       1.849   7.795  20.277  0.00  0.00    +0.000 A 
ATOM     21  F   UNL     1       1.773   8.851  21.096  0.00  0.00    +0.000 F 
ATOM     22  C   UNL     1       1.651   6.519  20.790  0.00  0.00    +0.000 A 
ATOM     23  C   UNL     1       1.734   5.411  19.942  0.00  0.00    +0.000 A 
ENDBRANCH  16  17
ENDBRANCH  14  16
ENDBRANCH   1  14
TORSDOF 4
ENDMDL
MODEL 8
REMARK VINA RESULT:      -7.9      1.823      2.360
REMARK  Name = 
REMARK  4 active torsions:
REMARK  status: ('A' for Active; 'I' for Inactive)
REMARK    1  A    between atoms: C_2  and  C_3
REMARK    2  A    between atoms: C_2  and  C_17
REMARK    3  A    between atoms: C_3  and  N_4
REMARK    4  A    between atoms: C_5  and  C_6
REMARK                            x       y       z     vdW  Elec       q    Type
REMARK                         _______ _______ _______ _____ _____    ______ ____
ROOT
ATOM      1  N   UNL     1       2.544   4.991  18.769  0.00  0.00    +0.000 N 
ATOM      2  C   UNL     1       2.393   4.385  20.011  0.00  0.00    +0.000 A 
ATOM      3  N   UNL     1       1.979   5.281  20.898  0.00  0.00    +0.000 NA
ATOM      4  C   UNL     1       1.913   6.480  20.254  0.00  0.00    +0.000 A 
ATOM      5  C   UNL     1       1.556   7.741  20.752  0.00  0.00    +0.000 A 
ATOM      6  C   UNL     1       1.576   8.841  19.887  0.00  0.00    +0.000 A 
ATOM      7  C   UNL     1       1.947   8.687  18.554  0.00  0.00    +0.000 A 
ATOM      8  C   UNL     1       2.311   7.436  18.044  0.00  0.00    +0.000 A 
ATOM      9  C   UNL     1       2.277   6.342  18.919  0.00  0.00    +0.000 A 
ENDROOT
BRANCH   2  10
ATOM     10  C   UNL     1       2.624   2.935  20.335  0.00  0.00    +0.000 C 
ATOM     11  F   UNL     1       2.057   2.075  19.449  0.00  0.00    +0.000 F 
ATOM     12  F   UNL     1       3.942   2.619  20.375  0.00  0.00    +0.000 F 
ATOM     13  F   UNL     1       2.096   2.608  21.544  0.00  0.00    +0.000 F 
ENDBRANCH   2  10
BRANCH   1  14
ATOM     14  C   UNL     1       2.973   4.395  17.515  0.00  0.00    +0.000 C 
BRANCH  14  16
ATOM     15  O   UNL     1       4.769   2.827  17.223  0.00  0.00    +0.000 OA
ATOM     16  C   UNL     1       4.426   3.978  17.492  0.00  0.00    +0.000 C 
BRANCH  16  17
ATOM     17  C   UNL     1       5.487   4.996  17.707  0.00  0.00    +0.000 A 
ATOM     18  C   UNL     1       6.352   4.805  18.795  0.00  0.00    +0.000 A 
ATOM     19  C   UNL     1       7.371   5.721  19.051  0.00  0.00    +0.000 A 
ATOM     20  C   UNL     1       7.518   6.827  18.221  0.00  0.00    +0.000 A 
ATOM     21  F   UNL     1       8.491   7.713  18.467  0.00  0.00    +0.000 F 
ATOM     22  C   UNL     1       6.666   7.033  17.142  0.00  0.00    +0.000 A 
ATOM     23  C   UNL     1       5.644   6.115  16.883  0.00  0.00    +0.000 A 
ENDBRANCH  16  17
ENDBRANCH  14  16
ENDBRANCH   1  14
TORSDOF 4
ENDMDL
MODEL 9
REMARK VINA RESULT:      -7.9      2.091      2.463
REMARK  Name = 
REMARK  4 active torsions:
REMARK  status: ('A' for Active; 'I' for Inactive)
REMARK    1  A    between atoms: C_2  and  C_3
REMARK    2  A    between atoms: C_2  and  C_17
REMARK    3  A    between atoms: C_3  and  N_4
REMARK    4  A    between atoms: C_5  and  C_6
REMARK                            x       y       z     vdW  Elec       q    Type
REMARK                         _______ _______ _______ _____ _____    ______ ____
ROOT
ATOM      1  N   UNL     1       3.185   4.895  18.255  0.00  0.00    +0.000 N 
ATOM      2  C   UNL     1       3.158   4.199  19.458  0.00  0.00    +0.000 A 
ATOM      3  N   UNL     1       2.660   4.976  20.412  0.00  0.00    +0.000 NA
ATOM      4  C   UNL     1       2.416   6.193  19.849  0.00  0.00    +0.000 A 
ATOM      5  C   UNL     1       1.913   7.362  20.438  0.00  0.00    +0.000 A 
ATOM      6  C   UNL     1       1.758   8.505  19.647  0.00  0.00    +0.000 A 
ATOM      7  C   UNL     1       2.100   8.484  18.297  0.00  0.00    +0.000 A 
ATOM      8  C   UNL     1       2.608   7.327  17.697  0.00  0.00    +0.000 A 
ATOM      9  C   UNL     1       2.749   6.186  18.499  0.00  0.00    +0.000 A 
ENDROOT
BRANCH   2  10
ATOM     10  C   UNL     1       3.588   2.775  19.680  0.00  0.00    +0.000 C 
ATOM     11  F   UNL     1       4.933   2.592  19.630  0.00  0.00    +0.000 F 
ATOM     12  F   UNL     1       3.187   2.297  20.884  0.00  0.00    +0.000 F 
ATOM     13  F   UNL     1       3.074   1.950  18.730  0.00  0.00    +0.000 F 
ENDBRANCH   2  10
BRANCH   1  14
ATOM     14  C   UNL     1       3.645   4.439  16.953  0.00  0.00    +0.000 C 
BRANCH  14  16
ATOM     15  O   UNL     1       5.593   3.188  16.313  0.00  0.00    +0.000 OA
ATOM     16  C   UNL     1       5.133   4.180  16.878  0.00  0.00    +0.000 C 
BRANCH  16  17
ATOM     17  C   UNL     1       6.084   5.187  17.415  0.00  0.00    +0.000 A 
ATOM     18  C   UNL     1       6.137   6.433  16.770  0.00  0.00    +0.000 A 
ATOM     19  C   UNL     1       7.004   7.423  17.225  0.00  0.00    +0.000 A 
ATOM     20  C   UNL     1       7.820   7.164  18.321  0.00  0.00    +0.000 A 
ATOM     21  F   UNL     1       8.660   8.110  18.758  0.00  0.00    +0.000 F 
ATOM     22  C   UNL     1       7.784   5.934  18.968  0.00  0.00    +0.000 A 
ATOM     23  C   UNL     1       6.913   4.939  18.514  0.00  0.00    +0.000 A 
ENDBRANCH  16  17
ENDBRANCH  14  16
ENDBRANCH   1  14
TORSDOF 4
ENDMDL
