MODEL 1
REMARK VINA RESULT:      -8.3      0.000      0.000
REMARK  Name = 
REMARK  5 active torsions:
REMARK  status: ('A' for Active; 'I' for Inactive)
REMARK    1  A    between atoms: C_2  and  C_18
REMARK    2  A    between atoms: N_3  and  C_4
REMARK    3  A    between atoms: C_4  and  C_5
REMARK    4  A    between atoms: C_5  and  N_6
REMARK    5  A    between atoms: N_6  and  C_7
REMARK                            x       y       z     vdW  Elec       q    Type
REMARK                         _______ _______ _______ _____ _____    ______ ____
ROOT
ATOM      1  C   UNL     1       7.887   6.004  19.256  0.00  0.00    +0.000 C 
ENDROOT
BRANCH   1   2
ATOM      2  N   UNL     1       7.854   4.753  18.481  0.00  0.00    +0.000 N 
ATOM      3  H   UNL     1       7.855   3.955  19.107  0.00  0.00    +0.000 HD
BRANCH   2   4
ATOM      4  C   UNL     1       6.851   4.618  17.489  0.00  0.00    +0.000 A 
ATOM      5  C   UNL     1       7.178   4.672  16.131  0.00  0.00    +0.000 A 
ATOM      6  C   UNL     1       6.194   4.463  15.186  0.00  0.00    +0.000 A 
ATOM      7  N   UNL     1       4.918   4.168  15.485  0.00  0.00    +0.000 NA
ATOM      8  C   UNL     1       4.586   4.064  16.778  0.00  0.00    +0.000 A 
ATOM      9  C   UNL     1       3.271   3.730  17.061  0.00  0.00    +0.000 A 
ATOM     10  C   UNL     1       2.824   3.600  18.371  0.00  0.00    +0.000 A 
ATOM     11 CL   UNL     1       1.184   3.181  18.680  0.00  0.00    +0.000 Cl
ATOM     12  C   UNL     1       3.694   3.809  19.429  0.00  0.00    +0.000 A 
ATOM     13  C   UNL     1       5.024   4.139  19.166  0.00  0.00    +0.000 A 
ATOM     14  C   UNL     1       5.507   4.274  17.837  0.00  0.00    +0.000 A 
ENDBRANCH   2   4
ENDBRANCH   1   2
BRANCH   1  15
ATOM     15  C   UNL     1       7.863   7.221  18.316  0.00  0.00    +0.000 C 
BRANCH  15  18
ATOM     16  O   UNL     1       7.658   9.952  17.642  0.00  0.00    +0.000 OA
ATOM     17  C   UNL     1       8.589   9.592  18.355  0.00  0.00    +0.000 C 
ATOM     18  N   UNL     1       8.759   8.280  18.743  0.00  0.00    +0.000 N 
ATOM     19  H   UNL     1       9.553   8.029  19.323  0.00  0.00    +0.000 HD
BRANCH  17  20
ATOM     20  C   UNL     1       9.594  10.582  18.841  0.00  0.00    +0.000 A 
ATOM     21  C   UNL     1      10.449  11.188  17.910  0.00  0.00    +0.000 A 
ATOM     22  C   UNL     1      11.399  12.131  18.326  0.00  0.00    +0.000 A 
ATOM     23  C   UNL     1      11.501  12.472  19.675  0.00  0.00    +0.000 A 
ATOM     24  C   UNL     1      10.661  11.869  20.608  0.00  0.00    +0.000 A 
ATOM     25  C   UNL     1       9.718  10.931  20.188  0.00  0.00    +0.000 A 
ATOM     26  F   UNL     1       8.934  10.374  21.125  0.00  0.00    +0.000 F 
ENDBRANCH  17  20
ENDBRANCH  15  18
ENDBRANCH   1  15
TORSDOF 5
ENDMDL
MODEL 2
REMARK VINA RESULT:      -8.2      4.300      6.624
REMARK  Name = 
REMARK  5 active torsions:
REMARK  status: ('A' for Active; 'I' for Inactive)
REMARK    1  A    between atoms: C_2  and  C_18
REMARK    2  A    between atoms: N_3  and  C_4
REMARK    3  A    between atoms: C_4  and  C_5
REMARK    4  A    between atoms: C_5  and  N_6
REMARK    5  A    between atoms: N_6  and  C_7
REMARK                            x       y       z     vdW  Elec       q    Type
REMARK                         _______ _______ _______ _____ _____    ______ ____
ROOT
ATOM      1  C   UNL     1       4.160   3.977  19.542  0.00  0.00    +0.000 C 
ENDROOT
BRANCH   1   2
ATOM      2  N   UNL     1       5.394   3.592  18.839  0.00  0.00    +0.000 N 
ATOM      3  H   UNL     1       5.228   2.769  18.267  0.00  0.00    +0.000 HD
BRANCH   2   4
ATOM      4  C   UNL     1       6.073   4.593  18.100  0.00  0.00    +0.000 A 
ATOM      5  C   UNL     1       6.727   5.642  18.752  0.00  0.00    +0.000 A 
ATOM      6  C   UNL     1       7.442   6.561  18.013  0.00  0.00    +0.000 A 
ATOM      7  N   UNL     1       7.590   6.499  16.679  0.00  0.00    +0.000 NA
ATOM      8  C   UNL     1       7.013   5.478  16.033  0.00  0.00    +0.000 A 
ATOM      9  C   UNL     1       7.203   5.419  14.661  0.00  0.00    +0.000 A 
ATOM     10  C   UNL     1       6.644   4.401  13.897  0.00  0.00    +0.000 A 
ATOM     11 CL   UNL     1       6.907   4.361  12.197  0.00  0.00    +0.000 Cl
ATOM     12  C   UNL     1       5.874   3.419  14.499  0.00  0.00    +0.000 A 
ATOM     13  C   UNL     1       5.675   3.456  15.880  0.00  0.00    +0.000 A 
ATOM     14  C   UNL     1       6.239   4.482  16.684  0.00  0.00    +0.000 A 
ENDBRANCH   2   4
ENDBRANCH   1   2
BRANCH   1  15
ATOM     15  C   UNL     1       3.114   4.504  18.545  0.00  0.00    +0.000 C 
BRANCH  15  18
ATOM     16  O   UNL     1       3.660   7.201  17.928  0.00  0.00    +0.000 OA
ATOM     17  C   UNL     1       2.739   6.951  18.698  0.00  0.00    +0.000 C 
ATOM     18  N   UNL     1       2.395   5.662  19.044  0.00  0.00    +0.000 N 
ATOM     19  H   UNL     1       1.632   5.506  19.695  0.00  0.00    +0.000 HD
BRANCH  17  20
ATOM     20  C   UNL     1       1.936   8.056  19.299  0.00  0.00    +0.000 A 
ATOM     21  C   UNL     1       1.551   7.955  20.643  0.00  0.00    +0.000 A 
ATOM     22  C   UNL     1       0.806   8.977  21.247  0.00  0.00    +0.000 A 
ATOM     23  C   UNL     1       0.439  10.104  20.510  0.00  0.00    +0.000 A 
ATOM     24  C   UNL     1       0.811  10.208  19.172  0.00  0.00    +0.000 A 
ATOM     25  C   UNL     1       1.552   9.188  18.576  0.00  0.00    +0.000 A 
ATOM     26  F   UNL     1       1.882   9.332  17.283  0.00  0.00    +0.000 F 
ENDBRANCH  17  20
ENDBRANCH  15  18
ENDBRANCH   1  15
TORSDOF 5
ENDMDL
MODEL 3
REMARK VINA RESULT:      -8.1      5.461      7.803
REMARK  Name = 
REMARK  5 active torsions:
REMARK  status: ('A' for Active; 'I' for Inactive)
REMARK    1  A    between atoms: C_2  and  C_18
REMARK    2  A    between atoms: N_3  and  C_4
REMARK    3  A    between atoms: C_4  and  C_5
REMARK    4  A    between atoms: C_5  and  N_6
REMARK    5  A    between atoms: N_6  and  C_7
REMARK                            x       y       z     vdW  Elec       q    Type
REMARK                         _______ _______ _______ _____ _____    ______ ____
ROOT
ATOM      1  C   UNL     1       1.700   5.402  20.010  0.00  0.00    +0.000 C 
ENDROOT
BRANCH   1   2
ATOM      2  N   UNL     1       2.226   6.633  20.623  0.00  0.00    +0.000 N 
ATOM      3  H   UNL     1       3.234   6.570  20.721  0.00  0.00    +0.000 HD
BRANCH   2   4
ATOM      4  C   UNL     1       1.849   7.871  20.048  0.00  0.00    +0.000 A 
ATOM      5  C   UNL     1       2.078   8.129  18.694  0.00  0.00    +0.000 A 
ATOM      6  C   UNL     1       1.633   9.314  18.143  0.00  0.00    +0.000 A 
ATOM      7  N   UNL     1       0.946  10.247  18.824  0.00  0.00    +0.000 NA
ATOM      8  C   UNL     1       0.672  10.005  20.111  0.00  0.00    +0.000 A 
ATOM      9  C   UNL     1      -0.063  10.968  20.785  0.00  0.00    +0.000 A 
ATOM     10  C   UNL     1      -0.399  10.815  22.125  0.00  0.00    +0.000 A 
ATOM     11 CL   UNL     1      -1.315  12.033  22.925  0.00  0.00    +0.000 Cl
ATOM     12  C   UNL     1       0.004   9.687  22.821  0.00  0.00    +0.000 A 
ATOM     13  C   UNL     1       0.740   8.701  22.160  0.00  0.00    +0.000 A 
ATOM     14  C   UNL     1       1.091   8.831  20.790  0.00  0.00    +0.000 A 
ENDBRANCH   2   4
ENDBRANCH   1   2
BRANCH   1  15
ATOM     15  C   UNL     1       2.814   4.351  19.872  0.00  0.00    +0.000 C 
BRANCH  15  18
ATOM     16  O   UNL     1       5.476   3.516  19.458  0.00  0.00    +0.000 OA
ATOM     17  C   UNL     1       4.886   4.073  18.538  0.00  0.00    +0.000 C 
ATOM     18  N   UNL     1       3.581   4.502  18.648  0.00  0.00    +0.000 N 
ATOM     19  H   UNL     1       3.140   4.969  17.863  0.00  0.00    +0.000 HD
BRANCH  17  20
ATOM     20  C   UNL     1       5.574   4.310  17.235  0.00  0.00    +0.000 A 
ATOM     21  C   UNL     1       4.859   4.101  16.048  0.00  0.00    +0.000 A 
ATOM     22  C   UNL     1       5.466   4.323  14.804  0.00  0.00    +0.000 A 
ATOM     23  C   UNL     1       6.792   4.752  14.740  0.00  0.00    +0.000 A 
ATOM     24  C   UNL     1       7.512   4.954  15.915  0.00  0.00    +0.000 A 
ATOM     25  C   UNL     1       6.903   4.731  17.149  0.00  0.00    +0.000 A 
ATOM     26  F   UNL     1       7.639   4.935  18.253  0.00  0.00    +0.000 F 
ENDBRANCH  17  20
ENDBRANCH  15  18
ENDBRANCH   1  15
TORSDOF 5
ENDMDL
MODEL 4
REMARK VINA RESULT:      -8.1      6.478      8.676
REMARK  Name = 
REMARK  5 active torsions:
REMARK  status: ('A' for Active; 'I' for Inactive)
REMARK    1  A    between atoms: C_2  and  C_18
REMARK    2  A    between atoms: N_3  and  C_4
REMARK    3  A    between atoms: C_4  and  C_5
REMARK    4  A    between atoms: C_5  and  N_6
REMARK    5  A    between atoms: N_6  and  C_7
REMARK                            x       y       z     vdW  Elec       q    Type
REMARK                         _______ _______ _______ _____ _____    ______ ____
ROOT
ATOM      1  C   UNL     1       1.271   7.893  21.109  0.00  0.00    +0.000 C 
ENDROOT
BRANCH   1   2
ATOM      2  N   UNL     1       2.181   7.532  20.009  0.00  0.00    +0.000 N 
ATOM      3  H   UNL     1       3.060   8.031  20.104  0.00  0.00    +0.000 HD
BRANCH   2   4
ATOM      4  C   UNL     1       2.404   6.155  19.761  0.00  0.00    +0.000 A 
ATOM      5  C   UNL     1       1.725   5.178  20.494  0.00  0.00    +0.000 A 
ATOM      6  C   UNL     1       1.906   3.846  20.182  0.00  0.00    +0.000 A 
ATOM      7  N   UNL     1       2.680   3.410  19.174  0.00  0.00    +0.000 NA
ATOM      8  C   UNL     1       3.305   4.326  18.425  0.00  0.00    +0.000 A 
ATOM      9  C   UNL     1       4.074   3.854  17.373  0.00  0.00    +0.000 A 
ATOM     10  C   UNL     1       4.766   4.722  16.536  0.00  0.00    +0.000 A 
ATOM     11 CL   UNL     1       5.707   4.096  15.239  0.00  0.00    +0.000 Cl
ATOM     12  C   UNL     1       4.703   6.090  16.744  0.00  0.00    +0.000 A 
ATOM     13  C   UNL     1       3.929   6.588  17.795  0.00  0.00    +0.000 A 
ATOM     14  C   UNL     1       3.209   5.723  18.660  0.00  0.00    +0.000 A 
ENDBRANCH   2   4
ENDBRANCH   1   2
BRANCH   1  15
ATOM     15  C   UNL     1       0.920   9.389  21.047  0.00  0.00    +0.000 C 
BRANCH  15  18
ATOM     16  O   UNL     1       0.868  10.635  18.517  0.00  0.00    +0.000 OA
ATOM     17  C   UNL     1      -0.194  10.285  19.021  0.00  0.00    +0.000 C 
ATOM     18  N   UNL     1      -0.260   9.658  20.246  0.00  0.00    +0.000 N 
ATOM     19  H   UNL     1      -1.164   9.398  20.627  0.00  0.00    +0.000 HD
BRANCH  17  20
ATOM     20  C   UNL     1      -1.483  10.527  18.308  0.00  0.00    +0.000 A 
ATOM     21  C   UNL     1      -1.753   9.803  17.139  0.00  0.00    +0.000 A 
ATOM     22  C   UNL     1      -2.957   9.994  16.447  0.00  0.00    +0.000 A 
ATOM     23  C   UNL     1      -3.897  10.911  16.919  0.00  0.00    +0.000 A 
ATOM     24  C   UNL     1      -3.633  11.640  18.076  0.00  0.00    +0.000 A 
ATOM     25  C   UNL     1      -2.433  11.446  18.760  0.00  0.00    +0.000 A 
ATOM     26  F   UNL     1      -2.223  12.175  19.867  0.00  0.00    +0.000 F 
ENDBRANCH  17  20
ENDBRANCH  15  18
ENDBRANCH   1  15
TORSDOF 5
ENDMDL
MODEL 5
REMARK VINA RESULT:      -8.1      4.269      6.674
REMARK  Name = 
REMARK  5 active torsions:
REMARK  status: ('A' for Active; 'I' for Inactive)
REMARK    1  A    between atoms: C_2  and  C_18
REMARK    2  A    between atoms: N_3  and  C_4
REMARK    3  A    between atoms: C_4  and  C_5
REMARK    4  A    between atoms: C_5  and  N_6
REMARK    5  A    between atoms: N_6  and  C_7
REMARK                            x       y       z     vdW  Elec       q    Type
REMARK                         _______ _______ _______ _____ _____    ______ ____
ROOT
ATOM      1  C   UNL     1       3.597   2.272  17.895  0.00  0.00    +0.000 C 
ENDROOT
BRANCH   1   2
ATOM      2  N   UNL     1       4.852   2.975  18.205  0.00  0.00    +0.000 N 
ATOM      3  H   UNL     1       5.573   2.307  18.459  0.00  0.00    +0.000 HD
BRANCH   2   4
ATOM      4  C   UNL     1       5.338   3.909  17.257  0.00  0.00    +0.000 A 
ATOM      5  C   UNL     1       4.891   3.881  15.933  0.00  0.00    +0.000 A 
ATOM      6  C   UNL     1       5.325   4.847  15.049  0.00  0.00    +0.000 A 
ATOM      7  N   UNL     1       6.138   5.862  15.386  0.00  0.00    +0.000 NA
ATOM      8  C   UNL     1       6.544   5.941  16.659  0.00  0.00    +0.000 A 
ATOM      9  C   UNL     1       7.359   7.012  16.990  0.00  0.00    +0.000 A 
ATOM     10  C   UNL     1       7.838   7.185  18.284  0.00  0.00    +0.000 A 
ATOM     11 CL   UNL     1       8.844   8.530  18.655  0.00  0.00    +0.000 Cl
ATOM     12  C   UNL     1       7.509   6.275  19.276  0.00  0.00    +0.000 A 
ATOM     13  C   UNL     1       6.684   5.192  18.966  0.00  0.00    +0.000 A 
ATOM     14  C   UNL     1       6.179   4.996  17.653  0.00  0.00    +0.000 A 
ENDBRANCH   2   4
ENDBRANCH   1   2
BRANCH   1  15
ATOM     15  C   UNL     1       2.467   2.753  18.821  0.00  0.00    +0.000 C 
BRANCH  15  18
ATOM     16  O   UNL     1       3.560   4.810  20.411  0.00  0.00    +0.000 OA
ATOM     17  C   UNL     1       2.771   5.112  19.523  0.00  0.00    +0.000 C 
ATOM     18  N   UNL     1       2.199   4.174  18.691  0.00  0.00    +0.000 N 
ATOM     19  H   UNL     1       1.542   4.472  17.978  0.00  0.00    +0.000 HD
BRANCH  17  20
ATOM     20  C   UNL     1       2.393   6.539  19.302  0.00  0.00    +0.000 A 
ATOM     21  C   UNL     1       1.709   7.220  20.318  0.00  0.00    +0.000 A 
ATOM     22  C   UNL     1       1.347   8.564  20.153  0.00  0.00    +0.000 A 
ATOM     23  C   UNL     1       1.664   9.234  18.970  0.00  0.00    +0.000 A 
ATOM     24  C   UNL     1       2.336   8.561  17.952  0.00  0.00    +0.000 A 
ATOM     25  C   UNL     1       2.694   7.225  18.122  0.00  0.00    +0.000 A 
ATOM     26  F   UNL     1       3.337   6.619  17.111  0.00  0.00    +0.000 F 
ENDBRANCH  17  20
ENDBRANCH  15  18
ENDBRANCH   1  15
TORSDOF 5
ENDMDL
MODEL 6
REMARK VINA RESULT:      -8.0      5.518      7.643
REMARK  Name = 
REMARK  5 active torsions:
REMARK  status: ('A' for Active; 'I' for Inactive)
REMARK    1  A    between atoms: C_2  and  C_18
REMARK    2  A    between atoms: N_3  and  C_4
REMARK    3  A    between atoms: C_4  and  C_5
REMARK    4  A    between atoms: C_5  and  N_6
REMARK    5  A    between atoms: N_6  and  C_7
REMARK                            x       y       z     vdW  Elec       q    Type
REMARK                         _______ _______ _______ _____ _____    ______ ____
ROOT
ATOM      1  C   UNL     1       1.797   4.895  20.297  0.00  0.00    +0.000 C 
ENDROOT
BRANCH   1   2
ATOM      2  N   UNL     1       2.340   6.182  20.762  0.00  0.00    +0.000 N 
ATOM      3  H   UNL     1       3.332   6.091  20.960  0.00  0.00    +0.000 HD
BRANCH   2   4
ATOM      4  C   UNL     1       2.085   7.331  19.974  0.00  0.00    +0.000 A 
ATOM      5  C   UNL     1       2.422   7.356  18.617  0.00  0.00    +0.000 A 
ATOM      6  C   UNL     1       2.095   8.459  17.856  0.00  0.00    +0.000 A 
ATOM      7  N   UNL     1       1.426   9.524  18.328  0.00  0.00    +0.000 NA
ATOM      8  C   UNL     1       1.049   9.508  19.612  0.00  0.00    +0.000 A 
ATOM      9  C   UNL     1       0.334  10.604  20.068  0.00  0.00    +0.000 A 
ATOM     10  C   UNL     1      -0.101  10.686  21.386  0.00  0.00    +0.000 A 
ATOM     11 CL   UNL     1      -0.989  12.063  21.912  0.00  0.00    +0.000 Cl
ATOM     12  C   UNL     1       0.178   9.664  22.278  0.00  0.00    +0.000 A 
ATOM     13  C   UNL     1       0.891   8.547  21.838  0.00  0.00    +0.000 A 
ATOM     14  C   UNL     1       1.343   8.437  20.496  0.00  0.00    +0.000 A 
ENDBRANCH   2   4
ENDBRANCH   1   2
BRANCH   1  15
ATOM     15  C   UNL     1       2.903   3.827  20.258  0.00  0.00    +0.000 C 
BRANCH  15  18
ATOM     16  O   UNL     1       5.264   5.280  19.739  0.00  0.00    +0.000 OA
ATOM     17  C   UNL     1       4.792   4.588  18.843  0.00  0.00    +0.000 C 
ATOM     18  N   UNL     1       3.650   3.835  19.014  0.00  0.00    +0.000 N 
ATOM     19  H   UNL     1       3.291   3.288  18.238  0.00  0.00    +0.000 HD
BRANCH  17  20
ATOM     20  C   UNL     1       5.454   4.530  17.507  0.00  0.00    +0.000 A 
ATOM     21  C   UNL     1       6.816   4.848  17.414  0.00  0.00    +0.000 A 
ATOM     22  C   UNL     1       7.475   4.794  16.179  0.00  0.00    +0.000 A 
ATOM     23  C   UNL     1       6.777   4.426  15.028  0.00  0.00    +0.000 A 
ATOM     24  C   UNL     1       5.422   4.116  15.111  0.00  0.00    +0.000 A 
ATOM     25  C   UNL     1       4.771   4.171  16.342  0.00  0.00    +0.000 A 
ATOM     26  F   UNL     1       3.463   3.868  16.369  0.00  0.00    +0.000 F 
ENDBRANCH  17  20
ENDBRANCH  15  18
ENDBRANCH   1  15
TORSDOF 5
ENDMDL
MODEL 7
REMARK VINA RESULT:      -8.0      5.698      7.946
REMARK  Name = 
REMARK  5 active torsions:
REMARK  status: ('A' for Active; 'I' for Inactive)
REMARK    1  A    between atoms: C_2  and  C_18
REMARK    2  A    between atoms: N_3  and  C_4
REMARK    3  A    between atoms: C_4  and  C_5
REMARK    4  A    between atoms: C_5  and  N_6
REMARK    5  A    between atoms: N_6  and  C_7
REMARK                            x       y       z     vdW  Elec       q    Type
REMARK                         _______ _______ _______ _____ _____    ______ ____
ROOT
ATOM      1  C   UNL     1       1.612   5.652  20.723  0.00  0.00    +0.000 C 
ENDROOT
BRANCH   1   2
ATOM      2  N   UNL     1       2.522   6.744  20.339  0.00  0.00    +0.000 N 
ATOM      3  H   UNL     1       3.255   6.390  19.733  0.00  0.00    +0.000 HD
BRANCH   2   4
ATOM      4  C   UNL     1       1.949   7.925  19.806  0.00  0.00    +0.000 A 
ATOM      5  C   UNL     1       2.013   8.194  18.436  0.00  0.00    +0.000 A 
ATOM      6  C   UNL     1       1.382   9.313  17.933  0.00  0.00    +0.000 A 
ATOM      7  N   UNL     1       0.661  10.167  18.680  0.00  0.00    +0.000 NA
ATOM      8  C   UNL     1       0.543   9.908  19.988  0.00  0.00    +0.000 A 
ATOM      9  C   UNL     1      -0.229  10.786  20.732  0.00  0.00    +0.000 A 
ATOM     10  C   UNL     1      -0.412  10.608  22.098  0.00  0.00    +0.000 A 
ATOM     11 CL   UNL     1      -1.382  11.719  22.986  0.00  0.00    +0.000 Cl
ATOM     12  C   UNL     1       0.185   9.541  22.749  0.00  0.00    +0.000 A 
ATOM     13  C   UNL     1       0.962   8.641  22.018  0.00  0.00    +0.000 A 
ATOM     14  C   UNL     1       1.161   8.797  20.621  0.00  0.00    +0.000 A 
ENDBRANCH   2   4
ENDBRANCH   1   2
BRANCH   1  15
ATOM     15  C   UNL     1       1.872   4.407  19.858  0.00  0.00    +0.000 C 
BRANCH  15  18
ATOM     16  O   UNL     1       4.294   2.962  19.786  0.00  0.00    +0.000 OA
ATOM     17  C   UNL     1       4.115   3.849  18.958  0.00  0.00    +0.000 C 
ATOM     18  N   UNL     1       2.957   4.595  18.912  0.00  0.00    +0.000 N 
ATOM     19  H   UNL     1       2.861   5.327  18.216  0.00  0.00    +0.000 HD
BRANCH  17  20
ATOM     20  C   UNL     1       5.166   4.158  17.945  0.00  0.00    +0.000 A 
ATOM     21  C   UNL     1       6.409   4.632  18.386  0.00  0.00    +0.000 A 
ATOM     22  C   UNL     1       7.425   4.923  17.466  0.00  0.00    +0.000 A 
ATOM     23  C   UNL     1       7.204   4.744  16.099  0.00  0.00    +0.000 A 
ATOM     24  C   UNL     1       5.969   4.282  15.653  0.00  0.00    +0.000 A 
ATOM     25  C   UNL     1       4.961   3.994  16.572  0.00  0.00    +0.000 A 
ATOM     26  F   UNL     1       3.787   3.554  16.093  0.00  0.00    +0.000 F 
ENDBRANCH  17  20
ENDBRANCH  15  18
ENDBRANCH   1  15
TORSDOF 5
ENDMDL
MODEL 8
REMARK VINA RESULT:      -7.9      7.331     10.069
REMARK  Name = 
REMARK  5 active torsions:
REMARK  status: ('A' for Active; 'I' for Inactive)
REMARK    1  A    between atoms: C_2  and  C_18
REMARK    2  A    between atoms: N_3  and  C_4
REMARK    3  A    between atoms: C_4  and  C_5
REMARK    4  A    between atoms: C_5  and  N_6
REMARK    5  A    between atoms: N_6  and  C_7
REMARK                            x       y       z     vdW  Elec       q    Type
REMARK                         _______ _______ _______ _____ _____    ______ ____
ROOT
ATOM      1  C   UNL     1       1.525  10.203  18.443  0.00  0.00    +0.000 C 
ENDROOT
BRANCH   1   2
ATOM      2  N   UNL     1       0.283   9.699  19.051  0.00  0.00    +0.000 N 
ATOM      3  H   UNL     1       0.126   8.735  18.777  0.00  0.00    +0.000 HD
BRANCH   2   4
ATOM      4  C   UNL     1       0.119   9.862  20.449  0.00  0.00    +0.000 A 
ATOM      5  C   UNL     1       0.869   9.100  21.349  0.00  0.00    +0.000 A 
ATOM      6  C   UNL     1       0.743   9.331  22.704  0.00  0.00    +0.000 A 
ATOM      7  N   UNL     1      -0.042  10.285  23.233  0.00  0.00    +0.000 NA
ATOM      8  C   UNL     1      -0.737  11.060  22.391  0.00  0.00    +0.000 A 
ATOM      9  C   UNL     1      -1.517  12.055  22.959  0.00  0.00    +0.000 A 
ATOM     10  C   UNL     1      -2.279  12.913  22.173  0.00  0.00    +0.000 A 
ATOM     11 CL   UNL     1      -3.232  14.138  22.916  0.00  0.00    +0.000 Cl
ATOM     12  C   UNL     1      -2.276  12.783  20.794  0.00  0.00    +0.000 A 
ATOM     13  C   UNL     1      -1.492  11.791  20.201  0.00  0.00    +0.000 A 
ATOM     14  C   UNL     1      -0.701  10.906  20.981  0.00  0.00    +0.000 A 
ENDBRANCH   2   4
ENDBRANCH   1   2
BRANCH   1  15
ATOM     15  C   UNL     1       2.342   9.043  17.850  0.00  0.00    +0.000 C 
BRANCH  15  18
ATOM     16  O   UNL     1       3.872   6.675  17.957  0.00  0.00    +0.000 OA
ATOM     17  C   UNL     1       2.697   6.631  18.308  0.00  0.00    +0.000 C 
ATOM     18  N   UNL     1       1.881   7.742  18.300  0.00  0.00    +0.000 N 
ATOM     19  H   UNL     1       0.913   7.652  18.588  0.00  0.00    +0.000 HD
BRANCH  17  20
ATOM     20  C   UNL     1       2.096   5.346  18.770  0.00  0.00    +0.000 A 
ATOM     21  C   UNL     1       1.887   4.324  17.834  0.00  0.00    +0.000 A 
ATOM     22  C   UNL     1       1.334   3.099  18.230  0.00  0.00    +0.000 A 
ATOM     23  C   UNL     1       0.985   2.889  19.565  0.00  0.00    +0.000 A 
ATOM     24  C   UNL     1       1.181   3.902  20.500  0.00  0.00    +0.000 A 
ATOM     25  C   UNL     1       1.731   5.119  20.100  0.00  0.00    +0.000 A 
ATOM     26  F   UNL     1       1.897   6.066  21.037  0.00  0.00    +0.000 F 
ENDBRANCH  17  20
ENDBRANCH  15  18
ENDBRANCH   1  15
TORSDOF 5
ENDMDL
MODEL 9
REMARK VINA RESULT:      -7.9      6.710      8.904
REMARK  Name = 
REMARK  5 active torsions:
REMARK  status: ('A' for Active; 'I' for Inactive)
REMARK    1  A    between atoms: C_2  and  C_18
REMARK    2  A    between atoms: N_3  and  C_4
REMARK    3  A    between atoms: C_4  and  C_5
REMARK    4  A    between atoms: C_5  and  N_6
REMARK    5  A    between atoms: N_6  and  C_7
REMARK                            x       y       z     vdW  Elec       q    Type
REMARK                         _______ _______ _______ _____ _____    ______ ____
ROOT
ATOM      1  C   UNL     1       2.120   8.455  17.778  0.00  0.00    +0.000 C 
ENDROOT
BRANCH   1   2
ATOM      2  N   UNL     1       2.557   7.641  18.924  0.00  0.00    +0.000 N 
ATOM      3  H   UNL     1       1.933   7.786  19.713  0.00  0.00    +0.000 HD
BRANCH   2   4
ATOM      4  C   UNL     1       2.784   6.260  18.705  0.00  0.00    +0.000 A 
ATOM      5  C   UNL     1       2.016   5.296  19.364  0.00  0.00    +0.000 A 
ATOM      6  C   UNL     1       2.209   3.961  19.076  0.00  0.00    +0.000 A 
ATOM      7  N   UNL     1       3.079   3.509  18.157  0.00  0.00    +0.000 NA
ATOM      8  C   UNL     1       3.795   4.413  17.477  0.00  0.00    +0.000 A 
ATOM      9  C   UNL     1       4.664   3.925  16.514  0.00  0.00    +0.000 A 
ATOM     10  C   UNL     1       5.455   4.780  15.754  0.00  0.00    +0.000 A 
ATOM     11 CL   UNL     1       6.519   4.135  14.566  0.00  0.00    +0.000 Cl
ATOM     12  C   UNL     1       5.391   6.149  15.952  0.00  0.00    +0.000 A 
ATOM     13  C   UNL     1       4.517   6.662  16.912  0.00  0.00    +0.000 A 
ATOM     14  C   UNL     1       3.695   5.811  17.698  0.00  0.00    +0.000 A 
ENDBRANCH   2   4
ENDBRANCH   1   2
BRANCH   1  15
ATOM     15  C   UNL     1       1.661   9.845  18.250  0.00  0.00    +0.000 C 
BRANCH  15  18
ATOM     16  O   UNL     1      -0.742   9.958  19.723  0.00  0.00    +0.000 OA
ATOM     17  C   UNL     1      -0.774  10.227  18.527  0.00  0.00    +0.000 C 
ATOM     18  N   UNL     1       0.353  10.210  17.735  0.00  0.00    +0.000 N 
ATOM     19  H   UNL     1       0.274  10.428  16.747  0.00  0.00    +0.000 HD
BRANCH  17  20
ATOM     20  C   UNL     1      -2.063  10.595  17.871  0.00  0.00    +0.000 A 
ATOM     21  C   UNL     1      -2.342  10.082  16.597  0.00  0.00    +0.000 A 
ATOM     22  C   UNL     1      -3.546  10.395  15.953  0.00  0.00    +0.000 A 
ATOM     23  C   UNL     1      -4.478  11.226  16.577  0.00  0.00    +0.000 A 
ATOM     24  C   UNL     1      -4.205  11.747  17.839  0.00  0.00    +0.000 A 
ATOM     25  C   UNL     1      -3.005  11.431  18.476  0.00  0.00    +0.000 A 
ATOM     26  F   UNL     1      -2.786  11.961  19.690  0.00  0.00    +0.000 F 
ENDBRANCH  17  20
ENDBRANCH  15  18
ENDBRANCH   1  15
TORSDOF 5
ENDMDL
