MODEL 1
REMARK VINA RESULT:      -6.6      0.000      0.000
REMARK  Name = 
REMARK  5 active torsions:
REMARK  status: ('A' for Active; 'I' for Inactive)
REMARK    1  A    between atoms: O_1  and  C_2
REMARK    2  A    between atoms: C_2  and  CA_3
REMARK    3  A    between atoms: N_12  and  C_13
REMARK    4  A    between atoms: C_13  and  C_14
REMARK    5  A    between atoms: C_22  and  C_23
REMARK                            x       y       z     vdW  Elec       q    Type
REMARK                         _______ _______ _______ _____ _____    ______ ____
ROOT
ATOM      1  CA  UNL     1       4.798  15.779  19.278  0.00  0.00    +0.000 A 
ATOM      2  C   UNL     1       4.723  15.420  20.597  0.00  0.00    +0.000 A 
ATOM      3  C   UNL     1       5.867  14.884  21.212  0.00  0.00    +0.000 A 
ATOM      4  C   UNL     1       6.043  14.481  22.561  0.00  0.00    +0.000 A 
ATOM      5  C   UNL     1       5.177  14.497  23.688  0.00  0.00    +0.000 A 
ATOM      6  C   UNL     1       5.657  14.126  24.942  0.00  0.00    +0.000 A 
ATOM      7  C   UNL     1       6.981  13.739  25.082  0.00  0.00    +0.000 A 
ATOM      8  C   UNL     1       7.848  13.696  23.975  0.00  0.00    +0.000 A 
ATOM      9  C   UNL     1       7.359  14.065  22.704  0.00  0.00    +0.000 A 
ATOM     10  N   UNL     1       7.976  14.182  21.445  0.00  0.00    +0.000 N 
ATOM     11  C   UNL     1       7.073  14.711  20.492  0.00  0.00    +0.000 A 
ATOM     12  C   UNL     1       7.083  15.115  19.125  0.00  0.00    +0.000 A 
ATOM     13  N   UNL     1       5.933  15.635  18.587  0.00  0.00    +0.000 NA
ENDROOT
BRANCH  12  14
ATOM     14  C   UNL     1       8.074  15.020  18.043  0.00  0.00    +0.000 A 
ATOM     15  C   UNL     1       8.394  13.761  17.533  0.00  0.00    +0.000 A 
ATOM     16  N   UNL     1       9.698  13.758  17.081  0.00  0.00    +0.000 N 
ATOM     17  C   UNL     1      10.290  14.967  17.348  0.00  0.00    +0.000 A 
ATOM     18  C   UNL     1      11.637  15.352  17.205  0.00  0.00    +0.000 A 
ATOM     19  C   UNL     1      11.989  16.622  17.663  0.00  0.00    +0.000 A 
ATOM     20  C   UNL     1      11.045  17.450  18.270  0.00  0.00    +0.000 A 
ATOM     21  C   UNL     1       9.709  17.038  18.438  0.00  0.00    +0.000 A 
ATOM     22  C   UNL     1       9.311  15.775  17.945  0.00  0.00    +0.000 A 
ATOM     23  H   UNL     1      10.197  12.933  16.780  0.00  0.00    +0.000 HD
ENDBRANCH  12  14
BRANCH   1  24
ATOM     24  C   UNL     1       3.595  16.218  18.491  0.00  0.00    +0.000 C 
BRANCH  24  25
ATOM     25  O   UNL     1       3.122  17.508  18.868  0.00  0.00    +0.000 OA
ATOM     26  H   UNL     1       3.304  17.588  19.819  0.00  0.00    +0.000 HD
ENDBRANCH  24  25
ENDBRANCH   1  24
BRANCH  10  27
ATOM     27  C   UNL     1       9.441  14.213  21.363  0.00  0.00    +0.000 C 
BRANCH  27  28
ATOM     28  C   UNL     1      10.193  12.997  20.844  0.00  0.00    +0.000 A 
ATOM     29  C   UNL     1      11.505  13.165  20.353  0.00  0.00    +0.000 A 
ATOM     30  C   UNL     1      11.997  12.342  19.334  0.00  0.00    +0.000 A 
ATOM     31  C   UNL     1      11.206  11.311  18.836  0.00  0.00    +0.000 A 
ATOM     32  C   UNL     1       9.986  11.030  19.447  0.00  0.00    +0.000 A 
ATOM     33 BR   UNL     1       8.919   9.618  18.781  0.00  0.00    +0.000 Br
ATOM     34  C   UNL     1       9.495  11.843  20.475  0.00  0.00    +0.000 A 
ENDBRANCH  27  28
ENDBRANCH  10  27
TORSDOF 5
ENDMDL
MODEL 2
REMARK VINA RESULT:      -6.6      8.442     11.222
REMARK  Name = 
REMARK  5 active torsions:
REMARK  status: ('A' for Active; 'I' for Inactive)
REMARK    1  A    between atoms: O_1  and  C_2
REMARK    2  A    between atoms: C_2  and  CA_3
REMARK    3  A    between atoms: N_12  and  C_13
REMARK    4  A    between atoms: C_13  and  C_14
REMARK    5  A    between atoms: C_22  and  C_23
REMARK                            x       y       z     vdW  Elec       q    Type
REMARK                         _______ _______ _______ _____ _____    ______ ____
ROOT
ATOM      1  CA  UNL     1      -4.730  12.012  18.890  0.00  0.00    +0.000 A 
ATOM      2  C   UNL     1      -5.342  12.749  19.869  0.00  0.00    +0.000 A 
ATOM      3  C   UNL     1      -4.552  13.279  20.902  0.00  0.00    +0.000 A 
ATOM      4  C   UNL     1      -4.947  14.097  21.993  0.00  0.00    +0.000 A 
ATOM      5  C   UNL     1      -6.203  14.641  22.378  0.00  0.00    +0.000 A 
ATOM      6  C   UNL     1      -6.282  15.511  23.462  0.00  0.00    +0.000 A 
ATOM      7  C   UNL     1      -5.132  15.840  24.162  0.00  0.00    +0.000 A 
ATOM      8  C   UNL     1      -3.884  15.296  23.810  0.00  0.00    +0.000 A 
ATOM      9  C   UNL     1      -3.805  14.409  22.716  0.00  0.00    +0.000 A 
ATOM     10  N   UNL     1      -2.723  13.761  22.093  0.00  0.00    +0.000 N 
ATOM     11  C   UNL     1      -3.154  13.060  20.942  0.00  0.00    +0.000 A 
ATOM     12  C   UNL     1      -2.582  12.293  19.885  0.00  0.00    +0.000 A 
ATOM     13  N   UNL     1      -3.410  11.808  18.905  0.00  0.00    +0.000 NA
ENDROOT
BRANCH  12  14
ATOM     14  C   UNL     1      -1.231  11.779  19.617  0.00  0.00    +0.000 A 
ATOM     15  C   UNL     1      -0.903  11.393  18.317  0.00  0.00    +0.000 A 
ATOM     16  N   UNL     1       0.038  10.384  18.352  0.00  0.00    +0.000 N 
ATOM     17  C   UNL     1       0.295  10.028  19.653  0.00  0.00    +0.000 A 
ATOM     18  C   UNL     1       1.060   8.955  20.149  0.00  0.00    +0.000 A 
ATOM     19  C   UNL     1       1.061   8.757  21.531  0.00  0.00    +0.000 A 
ATOM     20  C   UNL     1       0.301   9.572  22.369  0.00  0.00    +0.000 A 
ATOM     21  C   UNL     1      -0.488  10.619  21.855  0.00  0.00    +0.000 A 
ATOM     22  C   UNL     1      -0.475  10.872  20.465  0.00  0.00    +0.000 A 
ATOM     23  H   UNL     1       0.344   9.858  17.546  0.00  0.00    +0.000 HD
ENDBRANCH  12  14
BRANCH   1  24
ATOM     24  C   UNL     1      -5.503  11.278  17.830  0.00  0.00    +0.000 C 
BRANCH  24  25
ATOM     25  O   UNL     1      -4.885  11.338  16.547  0.00  0.00    +0.000 OA
ATOM     26  H   UNL     1      -5.374  12.014  16.050  0.00  0.00    +0.000 HD
ENDBRANCH  24  25
ENDBRANCH   1  24
BRANCH  10  27
ATOM     27  C   UNL     1      -1.356  14.219  22.368  0.00  0.00    +0.000 C 
BRANCH  27  28
ATOM     28  C   UNL     1      -0.600  15.012  21.313  0.00  0.00    +0.000 A 
ATOM     29  C   UNL     1      -1.264  16.063  20.645  0.00  0.00    +0.000 A 
ATOM     30  C   UNL     1      -0.937  16.388  19.324  0.00  0.00    +0.000 A 
ATOM     31  C   UNL     1       0.090  15.707  18.678  0.00  0.00    +0.000 A 
ATOM     32  C   UNL     1       0.865  14.800  19.397  0.00  0.00    +0.000 A 
ATOM     33 BR   UNL     1       2.272  13.886  18.523  0.00  0.00    +0.000 Br
ATOM     34  C   UNL     1       0.550  14.480  20.722  0.00  0.00    +0.000 A 
ENDBRANCH  27  28
ENDBRANCH  10  27
TORSDOF 5
ENDMDL
MODEL 3
REMARK VINA RESULT:      -6.6      8.260     11.344
REMARK  Name = 
REMARK  5 active torsions:
REMARK  status: ('A' for Active; 'I' for Inactive)
REMARK    1  A    between atoms: O_1  and  C_2
REMARK    2  A    between atoms: C_2  and  CA_3
REMARK    3  A    between atoms: N_12  and  C_13
REMARK    4  A    between atoms: C_13  and  C_14
REMARK    5  A    between atoms: C_22  and  C_23
REMARK                            x       y       z     vdW  Elec       q    Type
REMARK                         _______ _______ _______ _____ _____    ______ ____
ROOT
ATOM      1  CA  UNL     1      -4.221  11.856  18.115  0.00  0.00    +0.000 A 
ATOM      2  C   UNL     1      -5.122  12.326  19.034  0.00  0.00    +0.000 A 
ATOM      3  C   UNL     1      -4.657  12.659  20.317  0.00  0.00    +0.000 A 
ATOM      4  C   UNL     1      -5.382  13.197  21.412  0.00  0.00    +0.000 A 
ATOM      5  C   UNL     1      -6.744  13.573  21.568  0.00  0.00    +0.000 A 
ATOM      6  C   UNL     1      -7.168  14.179  22.748  0.00  0.00    +0.000 A 
ATOM      7  C   UNL     1      -6.256  14.410  23.766  0.00  0.00    +0.000 A 
ATOM      8  C   UNL     1      -4.909  14.026  23.639  0.00  0.00    +0.000 A 
ATOM      9  C   UNL     1      -4.482  13.405  22.446  0.00  0.00    +0.000 A 
ATOM     10  N   UNL     1      -3.220  12.970  22.001  0.00  0.00    +0.000 N 
ATOM     11  C   UNL     1      -3.292  12.515  20.663  0.00  0.00    +0.000 A 
ATOM     12  C   UNL     1      -2.409  12.030  19.654  0.00  0.00    +0.000 A 
ATOM     13  N   UNL     1      -2.927  11.726  18.421  0.00  0.00    +0.000 NA
ENDROOT
BRANCH  12  14
ATOM     14  C   UNL     1      -0.986  11.662  19.638  0.00  0.00    +0.000 A 
ATOM     15  C   UNL     1      -0.325  11.579  18.412  0.00  0.00    +0.000 A 
ATOM     16  N   UNL     1       0.684  10.641  18.487  0.00  0.00    +0.000 N 
ATOM     17  C   UNL     1       0.669  10.034  19.718  0.00  0.00    +0.000 A 
ATOM     18  C   UNL     1       1.408   8.926  20.175  0.00  0.00    +0.000 A 
ATOM     19  C   UNL     1       1.109   8.441  21.449  0.00  0.00    +0.000 A 
ATOM     20  C   UNL     1       0.091   9.015  22.211  0.00  0.00    +0.000 A 
ATOM     21  C   UNL     1      -0.664  10.100  21.726  0.00  0.00    +0.000 A 
ATOM     22  C   UNL     1      -0.355  10.642  20.459  0.00  0.00    +0.000 A 
ATOM     23  H   UNL     1       1.224  10.316  17.698  0.00  0.00    +0.000 HD
ENDBRANCH  12  14
BRANCH   1  24
ATOM     24  C   UNL     1      -4.640  11.329  16.770  0.00  0.00    +0.000 C 
BRANCH  24  25
ATOM     25  O   UNL     1      -3.636  11.488  15.771  0.00  0.00    +0.000 OA
ATOM     26  H   UNL     1      -3.863  10.858  15.067  0.00  0.00    +0.000 HD
ENDBRANCH  24  25
ENDBRANCH   1  24
BRANCH  10  27
ATOM     27  C   UNL     1      -2.013  13.431  22.697  0.00  0.00    +0.000 C 
BRANCH  27  28
ATOM     28  C   UNL     1      -1.057  14.384  21.996  0.00  0.00    +0.000 A 
ATOM     29  C   UNL     1      -1.588  15.388  21.158  0.00  0.00    +0.000 A 
ATOM     30  C   UNL     1      -0.871  15.844  20.046  0.00  0.00    +0.000 A 
ATOM     31  C   UNL     1       0.402  15.343  19.793  0.00  0.00    +0.000 A 
ATOM     32  C   UNL     1       0.998  14.492  20.720  0.00  0.00    +0.000 A 
ATOM     33 BR   UNL     1       2.735  13.825  20.383  0.00  0.00    +0.000 Br
ATOM     34  C   UNL     1       0.290  14.043  21.840  0.00  0.00    +0.000 A 
ENDBRANCH  27  28
ENDBRANCH  10  27
TORSDOF 5
ENDMDL
MODEL 4
REMARK VINA RESULT:      -6.5      9.674     13.458
REMARK  Name = 
REMARK  5 active torsions:
REMARK  status: ('A' for Active; 'I' for Inactive)
REMARK    1  A    between atoms: O_1  and  C_2
REMARK    2  A    between atoms: C_2  and  CA_3
REMARK    3  A    between atoms: N_12  and  C_13
REMARK    4  A    between atoms: C_13  and  C_14
REMARK    5  A    between atoms: C_22  and  C_23
REMARK                            x       y       z     vdW  Elec       q    Type
REMARK                         _______ _______ _______ _____ _____    ______ ____
ROOT
ATOM      1  CA  UNL     1       0.270  10.234  20.839  0.00  0.00    +0.000 A 
ATOM      2  C   UNL     1      -0.263   9.981  19.604  0.00  0.00    +0.000 A 
ATOM      3  C   UNL     1      -1.464  10.618  19.249  0.00  0.00    +0.000 A 
ATOM      4  C   UNL     1      -2.180  10.547  18.026  0.00  0.00    +0.000 A 
ATOM      5  C   UNL     1      -1.930   9.858  16.807  0.00  0.00    +0.000 A 
ATOM      6  C   UNL     1      -2.769  10.053  15.712  0.00  0.00    +0.000 A 
ATOM      7  C   UNL     1      -3.846  10.918  15.820  0.00  0.00    +0.000 A 
ATOM      8  C   UNL     1      -4.122  11.593  17.023  0.00  0.00    +0.000 A 
ATOM      9  C   UNL     1      -3.276  11.389  18.134  0.00  0.00    +0.000 A 
ATOM     10  N   UNL     1      -3.251  11.949  19.425  0.00  0.00    +0.000 N 
ATOM     11  C   UNL     1      -2.117  11.501  20.143  0.00  0.00    +0.000 A 
ATOM     12  C   UNL     1      -1.500  11.726  21.408  0.00  0.00    +0.000 A 
ATOM     13  N   UNL     1      -0.326  11.074  21.689  0.00  0.00    +0.000 NA
ENDROOT
BRANCH  12  14
ATOM     14  C   UNL     1      -1.892  12.472  22.612  0.00  0.00    +0.000 A 
ATOM     15  C   UNL     1      -2.786  11.884  23.507  0.00  0.00    +0.000 A 
ATOM     16  N   UNL     1      -3.527  12.862  24.139  0.00  0.00    +0.000 N 
ATOM     17  C   UNL     1      -3.204  14.096  23.631  0.00  0.00    +0.000 A 
ATOM     18  C   UNL     1      -3.812  15.344  23.865  0.00  0.00    +0.000 A 
ATOM     19  C   UNL     1      -3.348  16.430  23.122  0.00  0.00    +0.000 A 
ATOM     20  C   UNL     1      -2.349  16.263  22.163  0.00  0.00    +0.000 A 
ATOM     21  C   UNL     1      -1.775  15.002  21.914  0.00  0.00    +0.000 A 
ATOM     22  C   UNL     1      -2.193  13.892  22.681  0.00  0.00    +0.000 A 
ATOM     23  H   UNL     1      -4.319  12.683  24.739  0.00  0.00    +0.000 HD
ENDBRANCH  12  14
BRANCH   1  24
ATOM     24  C   UNL     1       1.463   9.490  21.371  0.00  0.00    +0.000 C 
BRANCH  24  25
ATOM     25  O   UNL     1       1.673   9.695  22.766  0.00  0.00    +0.000 OA
ATOM     26  H   UNL     1       1.096   9.055  23.216  0.00  0.00    +0.000 HD
ENDBRANCH  24  25
ENDBRANCH   1  24
BRANCH  10  27
ATOM     27  C   UNL     1      -4.024  13.167  19.695  0.00  0.00    +0.000 C 
BRANCH  27  28
ATOM     28  C   UNL     1      -5.475  13.057  20.136  0.00  0.00    +0.000 A 
ATOM     29  C   UNL     1      -6.470  13.709  19.376  0.00  0.00    +0.000 A 
ATOM     30  C   UNL     1      -7.630  14.197  19.987  0.00  0.00    +0.000 A 
ATOM     31  C   UNL     1      -7.833  13.992  21.348  0.00  0.00    +0.000 A 
ATOM     32  C   UNL     1      -6.942  13.190  22.058  0.00  0.00    +0.000 A 
ATOM     33 BR   UNL     1      -7.228  12.896  23.904  0.00  0.00    +0.000 Br
ATOM     34  C   UNL     1      -5.787  12.689  21.449  0.00  0.00    +0.000 A 
ENDBRANCH  27  28
ENDBRANCH  10  27
TORSDOF 5
ENDMDL
MODEL 5
REMARK VINA RESULT:      -6.5      8.246     11.398
REMARK  Name = 
REMARK  5 active torsions:
REMARK  status: ('A' for Active; 'I' for Inactive)
REMARK    1  A    between atoms: O_1  and  C_2
REMARK    2  A    between atoms: C_2  and  CA_3
REMARK    3  A    between atoms: N_12  and  C_13
REMARK    4  A    between atoms: C_13  and  C_14
REMARK    5  A    between atoms: C_22  and  C_23
REMARK                            x       y       z     vdW  Elec       q    Type
REMARK                         _______ _______ _______ _____ _____    ______ ____
ROOT
ATOM      1  CA  UNL     1      -3.997  11.658  17.668  0.00  0.00    +0.000 A 
ATOM      2  C   UNL     1      -5.025  11.969  18.518  0.00  0.00    +0.000 A 
ATOM      3  C   UNL     1      -4.718  12.295  19.849  0.00  0.00    +0.000 A 
ATOM      4  C   UNL     1      -5.597  12.685  20.893  0.00  0.00    +0.000 A 
ATOM      5  C   UNL     1      -7.004  12.883  20.938  0.00  0.00    +0.000 A 
ATOM      6  C   UNL     1      -7.602  13.375  22.096  0.00  0.00    +0.000 A 
ATOM      7  C   UNL     1      -6.817  13.667  23.201  0.00  0.00    +0.000 A 
ATOM      8  C   UNL     1      -5.426  13.458  23.183  0.00  0.00    +0.000 A 
ATOM      9  C   UNL     1      -4.823  12.953  22.012  0.00  0.00    +0.000 A 
ATOM     10  N   UNL     1      -3.483  12.698  21.667  0.00  0.00    +0.000 N 
ATOM     11  C   UNL     1      -3.380  12.303  20.312  0.00  0.00    +0.000 A 
ATOM     12  C   UNL     1      -2.360  11.980  19.371  0.00  0.00    +0.000 A 
ATOM     13  N   UNL     1      -2.728  11.674  18.085  0.00  0.00    +0.000 NA
ENDROOT
BRANCH  12  14
ATOM     14  C   UNL     1      -0.906  11.791  19.472  0.00  0.00    +0.000 A 
ATOM     15  C   UNL     1      -0.406  10.915  20.436  0.00  0.00    +0.000 A 
ATOM     16  N   UNL     1       0.844  11.334  20.844  0.00  0.00    +0.000 N 
ATOM     17  C   UNL     1       1.166  12.518  20.230  0.00  0.00    +0.000 A 
ATOM     18  C   UNL     1       2.259  13.375  20.461  0.00  0.00    +0.000 A 
ATOM     19  C   UNL     1       2.281  14.585  19.766  0.00  0.00    +0.000 A 
ATOM     20  C   UNL     1       1.237  14.935  18.910  0.00  0.00    +0.000 A 
ATOM     21  C   UNL     1       0.132  14.084  18.716  0.00  0.00    +0.000 A 
ATOM     22  C   UNL     1       0.103  12.833  19.372  0.00  0.00    +0.000 A 
ATOM     23  H   UNL     1       1.358  10.935  21.617  0.00  0.00    +0.000 HD
ENDBRANCH  12  14
BRANCH   1  24
ATOM     24  C   UNL     1      -4.229  11.150  16.272  0.00  0.00    +0.000 C 
BRANCH  24  25
ATOM     25  O   UNL     1      -3.200  11.529  15.362  0.00  0.00    +0.000 OA
ATOM     26  H   UNL     1      -3.179  12.501  15.379  0.00  0.00    +0.000 HD
ENDBRANCH  24  25
ENDBRANCH   1  24
BRANCH  10  27
ATOM     27  C   UNL     1      -2.408  13.271  22.487  0.00  0.00    +0.000 C 
BRANCH  27  28
ATOM     28  C   UNL     1      -1.594  14.440  21.953  0.00  0.00    +0.000 A 
ATOM     29  C   UNL     1      -0.379  14.771  22.589  0.00  0.00    +0.000 A 
ATOM     30  C   UNL     1       0.074  16.094  22.620  0.00  0.00    +0.000 A 
ATOM     31  C   UNL     1      -0.652  17.088  21.971  0.00  0.00    +0.000 A 
ATOM     32  C   UNL     1      -1.749  16.732  21.190  0.00  0.00    +0.000 A 
ATOM     33 BR   UNL     1      -2.725  18.081  20.294  0.00  0.00    +0.000 Br
ATOM     34  C   UNL     1      -2.199  15.408  21.146  0.00  0.00    +0.000 A 
ENDBRANCH  27  28
ENDBRANCH  10  27
TORSDOF 5
ENDMDL
MODEL 6
REMARK VINA RESULT:      -6.5      9.298     12.364
REMARK  Name = 
REMARK  5 active torsions:
REMARK  status: ('A' for Active; 'I' for Inactive)
REMARK    1  A    between atoms: O_1  and  C_2
REMARK    2  A    between atoms: C_2  and  CA_3
REMARK    3  A    between atoms: N_12  and  C_13
REMARK    4  A    between atoms: C_13  and  C_14
REMARK    5  A    between atoms: C_22  and  C_23
REMARK                            x       y       z     vdW  Elec       q    Type
REMARK                         _______ _______ _______ _____ _____    ______ ____
ROOT
ATOM      1  CA  UNL     1      -1.697  15.571  24.823  0.00  0.00    +0.000 A 
ATOM      2  C   UNL     1      -3.047  15.768  24.702  0.00  0.00    +0.000 A 
ATOM      3  C   UNL     1      -3.741  15.057  23.708  0.00  0.00    +0.000 A 
ATOM      4  C   UNL     1      -5.130  15.063  23.418  0.00  0.00    +0.000 A 
ATOM      5  C   UNL     1      -6.231  15.740  24.012  0.00  0.00    +0.000 A 
ATOM      6  C   UNL     1      -7.528  15.476  23.578  0.00  0.00    +0.000 A 
ATOM      7  C   UNL     1      -7.736  14.554  22.564  0.00  0.00    +0.000 A 
ATOM      8  C   UNL     1      -6.659  13.891  21.949  0.00  0.00    +0.000 A 
ATOM      9  C   UNL     1      -5.345  14.164  22.385  0.00  0.00    +0.000 A 
ATOM     10  N   UNL     1      -4.094  13.634  22.022  0.00  0.00    +0.000 N 
ATOM     11  C   UNL     1      -3.069  14.158  22.845  0.00  0.00    +0.000 A 
ATOM     12  C   UNL     1      -1.666  13.994  23.034  0.00  0.00    +0.000 A 
ATOM     13  N   UNL     1      -1.050  14.716  24.026  0.00  0.00    +0.000 NA
ENDROOT
BRANCH  12  14
ATOM     14  C   UNL     1      -0.622  13.253  22.313  0.00  0.00    +0.000 A 
ATOM     15  C   UNL     1      -0.236  13.694  21.047  0.00  0.00    +0.000 A 
ATOM     16  N   UNL     1       0.181  12.621  20.286  0.00  0.00    +0.000 N 
ATOM     17  C   UNL     1       0.012  11.454  20.987  0.00  0.00    +0.000 A 
ATOM     18  C   UNL     1       0.156  10.122  20.552  0.00  0.00    +0.000 A 
ATOM     19  C   UNL     1      -0.193   9.115  21.453  0.00  0.00    +0.000 A 
ATOM     20  C   UNL     1      -0.699   9.429  22.714  0.00  0.00    +0.000 A 
ATOM     21  C   UNL     1      -0.871  10.766  23.123  0.00  0.00    +0.000 A 
ATOM     22  C   UNL     1      -0.486  11.807  22.250  0.00  0.00    +0.000 A 
ATOM     23  H   UNL     1       0.395  12.668  19.299  0.00  0.00    +0.000 HD
ENDBRANCH  12  14
BRANCH   1  24
ATOM     24  C   UNL     1      -0.842  16.391  25.748  0.00  0.00    +0.000 C 
BRANCH  24  25
ATOM     25  O   UNL     1       0.028  15.599  26.553  0.00  0.00    +0.000 OA
ATOM     26  H   UNL     1       0.894  16.036  26.514  0.00  0.00    +0.000 HD
ENDBRANCH  24  25
ENDBRANCH   1  24
BRANCH  10  27
ATOM     27  C   UNL     1      -4.038  12.380  21.260  0.00  0.00    +0.000 C 
BRANCH  27  28
ATOM     28  C   UNL     1      -4.058  12.420  19.740  0.00  0.00    +0.000 A 
ATOM     29  C   UNL     1      -5.262  12.754  19.083  0.00  0.00    +0.000 A 
ATOM     30  C   UNL     1      -5.560  12.222  17.824  0.00  0.00    +0.000 A 
ATOM     31  C   UNL     1      -4.638  11.398  17.186  0.00  0.00    +0.000 A 
ATOM     32  C   UNL     1      -3.378  11.219  17.751  0.00  0.00    +0.000 A 
ATOM     33 BR   UNL     1      -2.118  10.112  16.875  0.00  0.00    +0.000 Br
ATOM     34  C   UNL     1      -3.070  11.759  19.004  0.00  0.00    +0.000 A 
ENDBRANCH  27  28
ENDBRANCH  10  27
TORSDOF 5
ENDMDL
MODEL 7
REMARK VINA RESULT:      -6.5      9.093     12.665
REMARK  Name = 
REMARK  5 active torsions:
REMARK  status: ('A' for Active; 'I' for Inactive)
REMARK    1  A    between atoms: O_1  and  C_2
REMARK    2  A    between atoms: C_2  and  CA_3
REMARK    3  A    between atoms: N_12  and  C_13
REMARK    4  A    between atoms: C_13  and  C_14
REMARK    5  A    between atoms: C_22  and  C_23
REMARK                            x       y       z     vdW  Elec       q    Type
REMARK                         _______ _______ _______ _____ _____    ______ ____
ROOT
ATOM      1  CA  UNL     1       0.978   9.380  18.884  0.00  0.00    +0.000 A 
ATOM      2  C   UNL     1       0.086   9.361  17.845  0.00  0.00    +0.000 A 
ATOM      3  C   UNL     1      -1.097  10.110  17.964  0.00  0.00    +0.000 A 
ATOM      4  C   UNL     1      -2.142  10.277  17.018  0.00  0.00    +0.000 A 
ATOM      5  C   UNL     1      -2.327   9.784  15.698  0.00  0.00    +0.000 A 
ATOM      6  C   UNL     1      -3.425  10.199  14.947  0.00  0.00    +0.000 A 
ATOM      7  C   UNL     1      -4.333  11.090  15.496  0.00  0.00    +0.000 A 
ATOM      8  C   UNL     1      -4.178  11.573  16.808  0.00  0.00    +0.000 A 
ATOM      9  C   UNL     1      -3.070  11.146  17.571  0.00  0.00    +0.000 A 
ATOM     10  N   UNL     1      -2.615  11.486  18.858  0.00  0.00    +0.000 N 
ATOM     11  C   UNL     1      -1.371  10.868  19.128  0.00  0.00    +0.000 A 
ATOM     12  C   UNL     1      -0.393  10.851  20.166  0.00  0.00    +0.000 A 
ATOM     13  N   UNL     1       0.742  10.101  19.983  0.00  0.00    +0.000 NA
ENDROOT
BRANCH  12  14
ATOM     14  C   UNL     1      -0.341  11.409  21.524  0.00  0.00    +0.000 A 
ATOM     15  C   UNL     1      -1.077  10.791  22.535  0.00  0.00    +0.000 A 
ATOM     16  N   UNL     1      -1.458  11.727  23.475  0.00  0.00    +0.000 N 
ATOM     17  C   UNL     1      -1.059  12.979  23.079  0.00  0.00    +0.000 A 
ATOM     18  C   UNL     1      -1.363  14.233  23.643  0.00  0.00    +0.000 A 
ATOM     19  C   UNL     1      -0.912  15.365  22.964  0.00  0.00    +0.000 A 
ATOM     20  C   UNL     1      -0.224  15.246  21.756  0.00  0.00    +0.000 A 
ATOM     21  C   UNL     1       0.042  13.987  21.185  0.00  0.00    +0.000 A 
ATOM     22  C   UNL     1      -0.363  12.821  21.871  0.00  0.00    +0.000 A 
ATOM     23  H   UNL     1      -2.098  11.547  24.236  0.00  0.00    +0.000 HD
ENDBRANCH  12  14
BRANCH   1  24
ATOM     24  C   UNL     1       2.195   8.498  18.919  0.00  0.00    +0.000 C 
BRANCH  24  25
ATOM     25  O   UNL     1       2.111   7.472  19.905  0.00  0.00    +0.000 OA
ATOM     26  H   UNL     1       2.809   6.833  19.680  0.00  0.00    +0.000 HD
ENDBRANCH  24  25
ENDBRANCH   1  24
BRANCH  10  27
ATOM     27  C   UNL     1      -3.151  12.683  19.518  0.00  0.00    +0.000 C 
BRANCH  27  28
ATOM     28  C   UNL     1      -4.275  12.544  20.533  0.00  0.00    +0.000 A 
ATOM     29  C   UNL     1      -5.502  11.983  20.118  0.00  0.00    +0.000 A 
ATOM     30  C   UNL     1      -6.705  12.381  20.711  0.00  0.00    +0.000 A 
ATOM     31  C   UNL     1      -6.691  13.298  21.756  0.00  0.00    +0.000 A 
ATOM     32  C   UNL     1      -5.470  13.710  22.286  0.00  0.00    +0.000 A 
ATOM     33 BR   UNL     1      -5.450  14.944  23.719  0.00  0.00    +0.000 Br
ATOM     34  C   UNL     1      -4.263  13.305  21.705  0.00  0.00    +0.000 A 
ENDBRANCH  27  28
ENDBRANCH  10  27
TORSDOF 5
ENDMDL
MODEL 8
REMARK VINA RESULT:      -6.5      8.111     11.433
REMARK  Name = 
REMARK  5 active torsions:
REMARK  status: ('A' for Active; 'I' for Inactive)
REMARK    1  A    between atoms: O_1  and  C_2
REMARK    2  A    between atoms: C_2  and  CA_3
REMARK    3  A    between atoms: N_12  and  C_13
REMARK    4  A    between atoms: C_13  and  C_14
REMARK    5  A    between atoms: C_22  and  C_23
REMARK                            x       y       z     vdW  Elec       q    Type
REMARK                         _______ _______ _______ _____ _____    ______ ____
ROOT
ATOM      1  CA  UNL     1      -3.065  11.226  16.781  0.00  0.00    +0.000 A 
ATOM      2  C   UNL     1      -4.259  11.510  17.390  0.00  0.00    +0.000 A 
ATOM      3  C   UNL     1      -4.246  11.913  18.735  0.00  0.00    +0.000 A 
ATOM      4  C   UNL     1      -5.337  12.294  19.559  0.00  0.00    +0.000 A 
ATOM      5  C   UNL     1      -6.733  12.405  19.311  0.00  0.00    +0.000 A 
ATOM      6  C   UNL     1      -7.577  12.910  20.297  0.00  0.00    +0.000 A 
ATOM      7  C   UNL     1      -7.049  13.299  21.518  0.00  0.00    +0.000 A 
ATOM      8  C   UNL     1      -5.674  13.176  21.789  0.00  0.00    +0.000 A 
ATOM      9  C   UNL     1      -4.821  12.658  20.793  0.00  0.00    +0.000 A 
ATOM     10  N   UNL     1      -3.427  12.473  20.738  0.00  0.00    +0.000 N 
ATOM     11  C   UNL     1      -3.032  12.025  19.455  0.00  0.00    +0.000 A 
ATOM     12  C   UNL     1      -1.826  11.725  18.756  0.00  0.00    +0.000 A 
ATOM     13  N   UNL     1      -1.910  11.340  17.442  0.00  0.00    +0.000 NA
ENDROOT
BRANCH  12  14
ATOM     14  C   UNL     1      -0.415  11.632  19.156  0.00  0.00    +0.000 A 
ATOM     15  C   UNL     1      -0.071  10.805  20.225  0.00  0.00    +0.000 A 
ATOM     16  N   UNL     1       1.041  11.309  20.867  0.00  0.00    +0.000 N 
ATOM     17  C   UNL     1       1.410  12.503  20.300  0.00  0.00    +0.000 A 
ATOM     18  C   UNL     1       2.379  13.432  20.725  0.00  0.00    +0.000 A 
ATOM     19  C   UNL     1       2.470  14.630  20.015  0.00  0.00    +0.000 A 
ATOM     20  C   UNL     1       1.603  14.899  18.956  0.00  0.00    +0.000 A 
ATOM     21  C   UNL     1       0.615  13.976  18.564  0.00  0.00    +0.000 A 
ATOM     22  C   UNL     1       0.528  12.735  19.234  0.00  0.00    +0.000 A 
ATOM     23  H   UNL     1       1.409  10.955  21.739  0.00  0.00    +0.000 HD
ENDBRANCH  12  14
BRANCH   1  24
ATOM     24  C   UNL     1      -2.982  10.643  15.398  0.00  0.00    +0.000 C 
BRANCH  24  25
ATOM     25  O   UNL     1      -4.258  10.314  14.854  0.00  0.00    +0.000 OA
ATOM     26  H   UNL     1      -4.353  10.861  14.056  0.00  0.00    +0.000 HD
ENDBRANCH  24  25
ENDBRANCH   1  24
BRANCH  10  27
ATOM     27  C   UNL     1      -2.572  13.147  21.723  0.00  0.00    +0.000 C 
BRANCH  27  28
ATOM     28  C   UNL     1      -1.781  14.380  21.314  0.00  0.00    +0.000 A 
ATOM     29  C   UNL     1      -0.698  14.792  22.120  0.00  0.00    +0.000 A 
ATOM     30  C   UNL     1      -0.355  16.145  22.218  0.00  0.00    +0.000 A 
ATOM     31  C   UNL     1      -1.052  17.090  21.473  0.00  0.00    +0.000 A 
ATOM     32  C   UNL     1      -1.995  16.664  20.541  0.00  0.00    +0.000 A 
ATOM     33 BR   UNL     1      -2.931  17.949  19.516  0.00  0.00    +0.000 Br
ATOM     34  C   UNL     1      -2.334  15.311  20.430  0.00  0.00    +0.000 A 
ENDBRANCH  27  28
ENDBRANCH  10  27
TORSDOF 5
ENDMDL
MODEL 9
REMARK VINA RESULT:      -6.5      9.490     12.617
REMARK  Name = 
REMARK  5 active torsions:
REMARK  status: ('A' for Active; 'I' for Inactive)
REMARK    1  A    between atoms: O_1  and  C_2
REMARK    2  A    between atoms: C_2  and  CA_3
REMARK    3  A    between atoms: N_12  and  C_13
REMARK    4  A    between atoms: C_13  and  C_14
REMARK    5  A    between atoms: C_22  and  C_23
REMARK                            x       y       z     vdW  Elec       q    Type
REMARK                         _______ _______ _______ _____ _____    ______ ____
ROOT
ATOM      1  CA  UNL     1      -3.306  10.597  16.840  0.00  0.00    +0.000 A 
ATOM      2  C   UNL     1      -4.491  11.185  17.195  0.00  0.00    +0.000 A 
ATOM      3  C   UNL     1      -4.531  11.957  18.368  0.00  0.00    +0.000 A 
ATOM      4  C   UNL     1      -5.618  12.687  18.915  0.00  0.00    +0.000 A 
ATOM      5  C   UNL     1      -6.956  12.887  18.476  0.00  0.00    +0.000 A 
ATOM      6  C   UNL     1      -7.795  13.753  19.173  0.00  0.00    +0.000 A 
ATOM      7  C   UNL     1      -7.319  14.414  20.294  0.00  0.00    +0.000 A 
ATOM      8  C   UNL     1      -6.005  14.213  20.756  0.00  0.00    +0.000 A 
ATOM      9  C   UNL     1      -5.158  13.330  20.054  0.00  0.00    +0.000 A 
ATOM     10  N   UNL     1      -3.808  12.972  20.224  0.00  0.00    +0.000 N 
ATOM     11  C   UNL     1      -3.378  12.128  19.173  0.00  0.00    +0.000 A 
ATOM     12  C   UNL     1      -2.177  11.496  18.737  0.00  0.00    +0.000 A 
ATOM     13  N   UNL     1      -2.206  10.759  17.581  0.00  0.00    +0.000 NA
ENDROOT
BRANCH  12  14
ATOM     14  C   UNL     1      -0.833  11.356  19.317  0.00  0.00    +0.000 A 
ATOM     15  C   UNL     1       0.209  10.912  18.503  0.00  0.00    +0.000 A 
ATOM     16  N   UNL     1       1.135  10.225  19.261  0.00  0.00    +0.000 N 
ATOM     17  C   UNL     1       0.700  10.130  20.559  0.00  0.00    +0.000 A 
ATOM     18  C   UNL     1       1.242   9.393  21.630  0.00  0.00    +0.000 A 
ATOM     19  C   UNL     1       0.525   9.387  22.828  0.00  0.00    +0.000 A 
ATOM     20  C   UNL     1      -0.694  10.056  22.934  0.00  0.00    +0.000 A 
ATOM     21  C   UNL     1      -1.242  10.759  21.843  0.00  0.00    +0.000 A 
ATOM     22  C   UNL     1      -0.519  10.821  20.631  0.00  0.00    +0.000 A 
ATOM     23  H   UNL     1       1.914   9.706  18.882  0.00  0.00    +0.000 HD
ENDBRANCH  12  14
BRANCH   1  24
ATOM     24  C   UNL     1      -3.196   9.632  15.692  0.00  0.00    +0.000 C 
BRANCH  24  25
ATOM     25  O   UNL     1      -4.058   9.958  14.605  0.00  0.00    +0.000 OA
ATOM     26  H   UNL     1      -3.534   9.808  13.800  0.00  0.00    +0.000 HD
ENDBRANCH  24  25
ENDBRANCH   1  24
BRANCH  10  27
ATOM     27  C   UNL     1      -2.948  13.796  21.081  0.00  0.00    +0.000 C 
BRANCH  27  28
ATOM     28  C   UNL     1      -2.851  13.490  22.568  0.00  0.00    +0.000 A 
ATOM     29  C   UNL     1      -3.812  12.636  23.152  0.00  0.00    +0.000 A 
ATOM     30  C   UNL     1      -4.194  12.799  24.488  0.00  0.00    +0.000 A 
ATOM     31  C   UNL     1      -3.585  13.778  25.266  0.00  0.00    +0.000 A 
ATOM     32  C   UNL     1      -2.510  14.494  24.745  0.00  0.00    +0.000 A 
ATOM     33 BR   UNL     1      -1.670  15.812  25.810  0.00  0.00    +0.000 Br
ATOM     34  C   UNL     1      -2.115  14.327  23.413  0.00  0.00    +0.000 A 
ENDBRANCH  27  28
ENDBRANCH  10  27
TORSDOF 5
ENDMDL
