MODEL 1
REMARK VINA RESULT:      -7.1      0.000      0.000
REMARK  Name = 
REMARK  12 active torsions:
REMARK  status: ('A' for Active; 'I' for Inactive)
REMARK    1  A    between atoms: C_1  and  C_2
REMARK    2  A    between atoms: C_2  and  C_3
REMARK    3  A    between atoms: C_2  and  C_4
REMARK    4  A    between atoms: C_4  and  N_5
REMARK    5  A    between atoms: C_4  and  C_6
REMARK    6  A    between atoms: C_6  and  O_8
REMARK    7  A    between atoms: O_8  and  C_9
REMARK    8  A    between atoms: C_10  and  C_11
REMARK    9  A    between atoms: C_11  and  O_12
REMARK   10  A    between atoms: C_14  and  N_15
REMARK   11  A    between atoms: C_23  and  C_24
REMARK   12  A    between atoms: C_23  and  O_25
REMARK                            x       y       z     vdW  Elec       q    Type
REMARK                         _______ _______ _______ _____ _____    ______ ____
ROOT
ATOM      1  C   UNL     1       3.734   3.876  18.591  0.00  0.00    +0.000 C 
ATOM      2  C   UNL     1       3.309   3.704  20.050  0.00  0.00    +0.000 C 
ATOM      3  O   UNL     1       2.769   4.984  20.475  0.00  0.00    +0.000 OA
ATOM      4  C   UNL     1       3.019   5.950  19.412  0.00  0.00    +0.000 C 
ATOM      5  C   UNL     1       2.897   5.082  18.119  0.00  0.00    +0.000 C 
ATOM      6  C   UNL     1       1.448   4.751  17.764  0.00  0.00    +0.000 C 
ENDROOT
BRANCH   4   7
ATOM      7  N   UNL     1       2.151   7.114  19.605  0.00  0.00    +0.000 N 
ATOM      8  C   UNL     1       1.589   7.339  20.851  0.00  0.00    +0.000 A 
ATOM      9  C   UNL     1       0.945   8.468  21.135  0.00  0.00    +0.000 A 
ATOM     10  C   UNL     1       0.795   9.414  20.018  0.00  0.00    +0.000 A 
ATOM     11  N   UNL     1      -0.024  10.498  20.156  0.00  0.00    +0.000 N 
ATOM     12  N   UNL     1       1.411   9.263  18.885  0.00  0.00    +0.000 NA
ATOM     13  C   UNL     1       2.269   8.193  18.716  0.00  0.00    +0.000 A 
ATOM     14  O   UNL     1       3.111   8.207  17.832  0.00  0.00    +0.000 OA
ATOM     15  H   UNL     1      -0.772  10.449  20.835  0.00  0.00    +0.000 HD
ATOM     16  H   UNL     1      -0.299  10.907  19.267  0.00  0.00    +0.000 HD
ENDBRANCH   4   7
BRANCH   5  17
ATOM     17  O   UNL     1       3.493   5.574  16.917  0.00  0.00    +0.000 OA
ATOM     18  H   UNL     1       3.868   4.814  16.435  0.00  0.00    +0.000 HD
ENDBRANCH   5  17
BRANCH   1  19
ATOM     19  O   UNL     1       5.118   4.343  18.493  0.00  0.00    +0.000 OA
BRANCH  19  20
ATOM     20  C   UNL     1       5.801   4.144  17.336  0.00  0.00    +0.000 C 
ATOM     21  O   UNL     1       5.372   3.488  16.396  0.00  0.00    +0.000 OA
BRANCH  20  22
ATOM     22  C   UNL     1       7.141   4.917  17.339  0.00  0.00    +0.000 C 
BRANCH  22  24
ATOM     23  C   UNL     1       7.923   5.892  19.557  0.00  0.00    +0.000 C 
ATOM     24  C   UNL     1       7.115   6.145  18.281  0.00  0.00    +0.000 C 
ATOM     25  C   UNL     1       7.585   7.449  17.625  0.00  0.00    +0.000 C 
ENDBRANCH  22  24
BRANCH  22  26
ATOM     26  N   UNL     1       8.283   4.017  17.654  0.00  0.00    +0.000 NA
ATOM     27  H   UNL     1       8.543   3.501  16.815  0.00  0.00    +0.000 HD
ATOM     28  H   UNL     1       7.976   3.313  18.327  0.00  0.00    +0.000 HD
ENDBRANCH  22  26
ENDBRANCH  20  22
ENDBRANCH  19  20
ENDBRANCH   1  19
BRANCH   2  29
ATOM     29  C   UNL     1       2.254   2.603  20.238  0.00  0.00    +0.000 C 
BRANCH  29  30
ATOM     30  O   UNL     1       1.086   3.134  20.864  0.00  0.00    +0.000 OA
ATOM     31  H   UNL     1       0.491   2.374  21.010  0.00  0.00    +0.000 HD
ENDBRANCH  29  30
ENDBRANCH   2  29
TORSDOF 9
ENDMDL
MODEL 2
REMARK VINA RESULT:      -6.9      3.318      5.642
REMARK  Name = 
REMARK  12 active torsions:
REMARK  status: ('A' for Active; 'I' for Inactive)
REMARK    1  A    between atoms: C_1  and  C_2
REMARK    2  A    between atoms: C_2  and  C_3
REMARK    3  A    between atoms: C_2  and  C_4
REMARK    4  A    between atoms: C_4  and  N_5
REMARK    5  A    between atoms: C_4  and  C_6
REMARK    6  A    between atoms: C_6  and  O_8
REMARK    7  A    between atoms: O_8  and  C_9
REMARK    8  A    between atoms: C_10  and  C_11
REMARK    9  A    between atoms: C_11  and  O_12
REMARK   10  A    between atoms: C_14  and  N_15
REMARK   11  A    between atoms: C_23  and  C_24
REMARK   12  A    between atoms: C_23  and  O_25
REMARK                            x       y       z     vdW  Elec       q    Type
REMARK                         _______ _______ _______ _____ _____    ______ ____
ROOT
ATOM      1  C   UNL     1       7.295   5.637  16.745  0.00  0.00    +0.000 C 
ATOM      2  C   UNL     1       6.077   6.529  16.497  0.00  0.00    +0.000 C 
ATOM      3  O   UNL     1       4.963   5.904  17.190  0.00  0.00    +0.000 OA
ATOM      4  C   UNL     1       5.411   4.604  17.676  0.00  0.00    +0.000 C 
ATOM      5  C   UNL     1       6.912   4.861  18.021  0.00  0.00    +0.000 C 
ATOM      6  C   UNL     1       7.094   5.644  19.321  0.00  0.00    +0.000 C 
ENDROOT
BRANCH   4   7
ATOM      7  N   UNL     1       4.485   4.132  18.708  0.00  0.00    +0.000 N 
ATOM      8  C   UNL     1       3.853   5.056  19.525  0.00  0.00    +0.000 A 
ATOM      9  C   UNL     1       2.873   4.703  20.352  0.00  0.00    +0.000 A 
ATOM     10  C   UNL     1       2.570   3.265  20.405  0.00  0.00    +0.000 A 
ATOM     11  N   UNL     1       1.729   2.786  21.369  0.00  0.00    +0.000 N 
ATOM     12  N   UNL     1       3.076   2.411  19.568  0.00  0.00    +0.000 NA
ATOM     13  C   UNL     1       3.911   2.860  18.562  0.00  0.00    +0.000 A 
ATOM     14  O   UNL     1       4.116   2.172  17.574  0.00  0.00    +0.000 OA
ATOM     15  H   UNL     1       1.625   3.321  22.222  0.00  0.00    +0.000 HD
ATOM     16  H   UNL     1       1.820   1.784  21.518  0.00  0.00    +0.000 HD
ENDBRANCH   4   7
BRANCH   5  17
ATOM     17  O   UNL     1       7.786   3.733  18.116  0.00  0.00    +0.000 OA
ATOM     18  H   UNL     1       8.087   3.665  19.040  0.00  0.00    +0.000 HD
ENDBRANCH   5  17
BRANCH   1  19
ATOM     19  O   UNL     1       7.410   4.599  15.718  0.00  0.00    +0.000 OA
BRANCH  19  20
ATOM     20  C   UNL     1       7.127   4.913  14.427  0.00  0.00    +0.000 C 
ATOM     21  O   UNL     1       7.823   5.645  13.736  0.00  0.00    +0.000 OA
BRANCH  20  22
ATOM     22  C   UNL     1       5.866   4.165  13.934  0.00  0.00    +0.000 C 
BRANCH  22  24
ATOM     23  C   UNL     1       6.985   2.888  12.037  0.00  0.00    +0.000 C 
ATOM     24  C   UNL     1       5.895   3.897  12.410  0.00  0.00    +0.000 C 
ATOM     25  C   UNL     1       4.551   3.440  11.828  0.00  0.00    +0.000 C 
ENDBRANCH  22  24
BRANCH  22  26
ATOM     26  N   UNL     1       5.649   2.909  14.701  0.00  0.00    +0.000 NA
ATOM     27  H   UNL     1       4.907   2.370  14.255  0.00  0.00    +0.000 HD
ATOM     28  H   UNL     1       5.299   3.142  15.631  0.00  0.00    +0.000 HD
ENDBRANCH  22  26
ENDBRANCH  20  22
ENDBRANCH  19  20
ENDBRANCH   1  19
BRANCH   2  29
ATOM     29  C   UNL     1       6.274   7.963  17.011  0.00  0.00    +0.000 C 
BRANCH  29  30
ATOM     30  O   UNL     1       7.663   8.254  17.155  0.00  0.00    +0.000 OA
ATOM     31  H   UNL     1       7.718   9.205  17.369  0.00  0.00    +0.000 HD
ENDBRANCH  29  30
ENDBRANCH   2  29
TORSDOF 9
ENDMDL
MODEL 3
REMARK VINA RESULT:      -6.8      2.134      4.411
REMARK  Name = 
REMARK  12 active torsions:
REMARK  status: ('A' for Active; 'I' for Inactive)
REMARK    1  A    between atoms: C_1  and  C_2
REMARK    2  A    between atoms: C_2  and  C_3
REMARK    3  A    between atoms: C_2  and  C_4
REMARK    4  A    between atoms: C_4  and  N_5
REMARK    5  A    between atoms: C_4  and  C_6
REMARK    6  A    between atoms: C_6  and  O_8
REMARK    7  A    between atoms: O_8  and  C_9
REMARK    8  A    between atoms: C_10  and  C_11
REMARK    9  A    between atoms: C_11  and  O_12
REMARK   10  A    between atoms: C_14  and  N_15
REMARK   11  A    between atoms: C_23  and  C_24
REMARK   12  A    between atoms: C_23  and  O_25
REMARK                            x       y       z     vdW  Elec       q    Type
REMARK                         _______ _______ _______ _____ _____    ______ ____
ROOT
ATOM      1  C   UNL     1       4.876   3.883  18.292  0.00  0.00    +0.000 C 
ATOM      2  C   UNL     1       3.998   3.991  17.044  0.00  0.00    +0.000 C 
ATOM      3  O   UNL     1       3.125   5.133  17.255  0.00  0.00    +0.000 OA
ATOM      4  C   UNL     1       3.311   5.593  18.626  0.00  0.00    +0.000 C 
ATOM      5  C   UNL     1       4.824   5.304  18.886  0.00  0.00    +0.000 C 
ATOM      6  C   UNL     1       5.744   6.315  18.202  0.00  0.00    +0.000 C 
ENDROOT
BRANCH   4   7
ATOM      7  N   UNL     1       2.785   6.953  18.753  0.00  0.00    +0.000 N 
ATOM      8  C   UNL     1       2.592   7.714  17.612  0.00  0.00    +0.000 A 
ATOM      9  C   UNL     1       1.952   8.880  17.647  0.00  0.00    +0.000 A 
ATOM     10  C   UNL     1       1.546   9.343  18.983  0.00  0.00    +0.000 A 
ATOM     11  N   UNL     1       1.072  10.614  19.142  0.00  0.00    +0.000 N 
ATOM     12  N   UNL     1       1.622   8.591  20.039  0.00  0.00    +0.000 NA
ATOM     13  C   UNL     1       2.072   7.290  19.914  0.00  0.00    +0.000 A 
ATOM     14  O   UNL     1       1.831   6.466  20.782  0.00  0.00    +0.000 OA
ATOM     15  H   UNL     1       1.342  11.314  18.464  0.00  0.00    +0.000 HD
ATOM     16  H   UNL     1       1.110  10.938  20.106  0.00  0.00    +0.000 HD
ENDBRANCH   4   7
BRANCH   5  17
ATOM     17  O   UNL     1       5.272   5.220  20.241  0.00  0.00    +0.000 OA
ATOM     18  H   UNL     1       5.148   6.095  20.652  0.00  0.00    +0.000 HD
ENDBRANCH   5  17
BRANCH   1  19
ATOM     19  O   UNL     1       4.246   3.046  19.315  0.00  0.00    +0.000 OA
BRANCH  19  20
ATOM     20  C   UNL     1       3.630   1.895  18.939  0.00  0.00    +0.000 C 
ATOM     21  O   UNL     1       4.204   0.965  18.387  0.00  0.00    +0.000 OA
BRANCH  20  22
ATOM     22  C   UNL     1       2.145   1.888  19.371  0.00  0.00    +0.000 C 
BRANCH  22  24
ATOM     23  C   UNL     1       0.501   3.700  20.078  0.00  0.00    +0.000 C 
ATOM     24  C   UNL     1       1.823   2.998  20.402  0.00  0.00    +0.000 C 
ATOM     25  C   UNL     1       1.807   2.516  21.858  0.00  0.00    +0.000 C 
ENDBRANCH  22  24
BRANCH  22  26
ATOM     26  N   UNL     1       1.239   1.965  18.194  0.00  0.00    +0.000 NA
ATOM     27  H   UNL     1       1.465   1.208  17.549  0.00  0.00    +0.000 HD
ATOM     28  H   UNL     1       1.429   2.827  17.683  0.00  0.00    +0.000 HD
ENDBRANCH  22  26
ENDBRANCH  20  22
ENDBRANCH  19  20
ENDBRANCH   1  19
BRANCH   2  29
ATOM     29  C   UNL     1       4.812   4.184  15.757  0.00  0.00    +0.000 C 
BRANCH  29  30
ATOM     30  O   UNL     1       6.001   3.396  15.796  0.00  0.00    +0.000 OA
ATOM     31  H   UNL     1       6.373   3.425  14.893  0.00  0.00    +0.000 HD
ENDBRANCH  29  30
ENDBRANCH   2  29
TORSDOF 9
ENDMDL
MODEL 4
REMARK VINA RESULT:      -6.8      3.802      6.771
REMARK  Name = 
REMARK  12 active torsions:
REMARK  status: ('A' for Active; 'I' for Inactive)
REMARK    1  A    between atoms: C_1  and  C_2
REMARK    2  A    between atoms: C_2  and  C_3
REMARK    3  A    between atoms: C_2  and  C_4
REMARK    4  A    between atoms: C_4  and  N_5
REMARK    5  A    between atoms: C_4  and  C_6
REMARK    6  A    between atoms: C_6  and  O_8
REMARK    7  A    between atoms: O_8  and  C_9
REMARK    8  A    between atoms: C_10  and  C_11
REMARK    9  A    between atoms: C_11  and  O_12
REMARK   10  A    between atoms: C_14  and  N_15
REMARK   11  A    between atoms: C_23  and  C_24
REMARK   12  A    between atoms: C_23  and  O_25
REMARK                            x       y       z     vdW  Elec       q    Type
REMARK                         _______ _______ _______ _____ _____    ______ ____
ROOT
ATOM      1  C   UNL     1       5.035   4.132  18.503  0.00  0.00    +0.000 C 
ATOM      2  C   UNL     1       6.534   4.361  18.705  0.00  0.00    +0.000 C 
ATOM      3  O   UNL     1       7.143   4.279  17.389  0.00  0.00    +0.000 OA
ATOM      4  C   UNL     1       6.121   3.835  16.449  0.00  0.00    +0.000 C 
ATOM      5  C   UNL     1       4.820   4.487  17.018  0.00  0.00    +0.000 C 
ATOM      6  C   UNL     1       4.735   5.985  16.727  0.00  0.00    +0.000 C 
ENDROOT
BRANCH   4   7
ATOM      7  N   UNL     1       6.561   4.132  15.084  0.00  0.00    +0.000 N 
ATOM      8  C   UNL     1       5.847   3.614  14.015  0.00  0.00    +0.000 A 
ATOM      9  C   UNL     1       6.088   3.994  12.763  0.00  0.00    +0.000 A 
ATOM     10  C   UNL     1       7.212   4.926  12.585  0.00  0.00    +0.000 A 
ATOM     11  N   UNL     1       7.663   5.208  11.327  0.00  0.00    +0.000 N 
ATOM     12  N   UNL     1       7.811   5.500  13.584  0.00  0.00    +0.000 NA
ATOM     13  C   UNL     1       7.367   5.260  14.870  0.00  0.00    +0.000 A 
ATOM     14  O   UNL     1       7.655   6.024  15.778  0.00  0.00    +0.000 OA
ATOM     15  H   UNL     1       7.492   4.532  10.595  0.00  0.00    +0.000 HD
ATOM     16  H   UNL     1       8.603   5.598  11.317  0.00  0.00    +0.000 HD
ENDBRANCH   4   7
BRANCH   5  17
ATOM     17  O   UNL     1       3.561   3.938  16.622  0.00  0.00    +0.000 OA
ATOM     18  H   UNL     1       3.066   3.710  17.430  0.00  0.00    +0.000 HD
ENDBRANCH   5  17
BRANCH   1  19
ATOM     19  O   UNL     1       4.699   2.709  18.580  0.00  0.00    +0.000 OA
BRANCH  19  20
ATOM     20  C   UNL     1       4.227   2.205  19.750  0.00  0.00    +0.000 C 
ATOM     21  O   UNL     1       4.926   2.000  20.734  0.00  0.00    +0.000 OA
BRANCH  20  22
ATOM     22  C   UNL     1       2.694   2.006  19.695  0.00  0.00    +0.000 C 
BRANCH  22  24
ATOM     23  C   UNL     1       0.726   3.621  19.636  0.00  0.00    +0.000 C 
ATOM     24  C   UNL     1       1.925   3.119  20.447  0.00  0.00    +0.000 C 
ATOM     25  C   UNL     1       1.463   2.722  21.855  0.00  0.00    +0.000 C 
ENDBRANCH  22  24
BRANCH  22  26
ATOM     26  N   UNL     1       2.217   1.872  18.293  0.00  0.00    +0.000 NA
ATOM     27  H   UNL     1       2.556   0.990  17.908  0.00  0.00    +0.000 HD
ATOM     28  H   UNL     1       2.645   2.603  17.724  0.00  0.00    +0.000 HD
ENDBRANCH  22  26
ENDBRANCH  20  22
ENDBRANCH  19  20
ENDBRANCH   1  19
BRANCH   2  29
ATOM     29  C   UNL     1       6.849   5.721  19.344  0.00  0.00    +0.000 C 
BRANCH  29  30
ATOM     30  O   UNL     1       7.815   5.572  20.384  0.00  0.00    +0.000 OA
ATOM     31  H   UNL     1       8.028   4.620  20.418  0.00  0.00    +0.000 HD
ENDBRANCH  29  30
ENDBRANCH   2  29
TORSDOF 9
ENDMDL
MODEL 5
REMARK VINA RESULT:      -6.7      3.401      6.617
REMARK  Name = 
REMARK  12 active torsions:
REMARK  status: ('A' for Active; 'I' for Inactive)
REMARK    1  A    between atoms: C_1  and  C_2
REMARK    2  A    between atoms: C_2  and  C_3
REMARK    3  A    between atoms: C_2  and  C_4
REMARK    4  A    between atoms: C_4  and  N_5
REMARK    5  A    between atoms: C_4  and  C_6
REMARK    6  A    between atoms: C_6  and  O_8
REMARK    7  A    between atoms: O_8  and  C_9
REMARK    8  A    between atoms: C_10  and  C_11
REMARK    9  A    between atoms: C_11  and  O_12
REMARK   10  A    between atoms: C_14  and  N_15
REMARK   11  A    between atoms: C_23  and  C_24
REMARK   12  A    between atoms: C_23  and  O_25
REMARK                            x       y       z     vdW  Elec       q    Type
REMARK                         _______ _______ _______ _____ _____    ______ ____
ROOT
ATOM      1  C   UNL     1       4.961   4.529  18.788  0.00  0.00    +0.000 C 
ATOM      2  C   UNL     1       6.482   4.488  18.944  0.00  0.00    +0.000 C 
ATOM      3  O   UNL     1       7.025   4.249  17.618  0.00  0.00    +0.000 OA
ATOM      4  C   UNL     1       5.910   3.966  16.722  0.00  0.00    +0.000 C 
ATOM      5  C   UNL     1       4.768   4.863  17.295  0.00  0.00    +0.000 C 
ATOM      6  C   UNL     1       4.945   6.340  16.946  0.00  0.00    +0.000 C 
ENDROOT
BRANCH   4   7
ATOM      7  N   UNL     1       6.354   4.128  15.336  0.00  0.00    +0.000 N 
ATOM      8  C   UNL     1       5.567   3.629  14.310  0.00  0.00    +0.000 A 
ATOM      9  C   UNL     1       5.824   3.903  13.034  0.00  0.00    +0.000 A 
ATOM     10  C   UNL     1       7.040   4.692  12.785  0.00  0.00    +0.000 A 
ATOM     11  N   UNL     1       7.495   4.846  11.506  0.00  0.00    +0.000 N 
ATOM     12  N   UNL     1       7.717   5.257  13.738  0.00  0.00    +0.000 NA
ATOM     13  C   UNL     1       7.274   5.146  15.042  0.00  0.00    +0.000 A 
ATOM     14  O   UNL     1       7.662   5.927  15.896  0.00  0.00    +0.000 OA
ATOM     15  H   UNL     1       7.237   4.149  10.819  0.00  0.00    +0.000 HD
ATOM     16  H   UNL     1       8.471   5.129  11.459  0.00  0.00    +0.000 HD
ENDBRANCH   4   7
BRANCH   5  17
ATOM     17  O   UNL     1       3.418   4.538  16.953  0.00  0.00    +0.000 OA
ATOM     18  H   UNL     1       3.055   5.277  16.432  0.00  0.00    +0.000 HD
ENDBRANCH   5  17
BRANCH   1  19
ATOM     19  O   UNL     1       4.376   3.194  18.932  0.00  0.00    +0.000 OA
BRANCH  19  20
ATOM     20  C   UNL     1       4.262   2.654  20.173  0.00  0.00    +0.000 C 
ATOM     21  O   UNL     1       5.001   1.779  20.604  0.00  0.00    +0.000 OA
BRANCH  20  22
ATOM     22  C   UNL     1       3.138   3.343  20.981  0.00  0.00    +0.000 C 
BRANCH  22  24
ATOM     23  C   UNL     1       0.789   3.049  20.044  0.00  0.00    +0.000 C 
ATOM     24  C   UNL     1       2.035   3.939  20.073  0.00  0.00    +0.000 C 
ATOM     25  C   UNL     1       1.634   5.375  20.433  0.00  0.00    +0.000 C 
ENDBRANCH  22  24
BRANCH  22  26
ATOM     26  N   UNL     1       2.562   2.423  21.998  0.00  0.00    +0.000 NA
ATOM     27  H   UNL     1       2.546   2.893  22.903  0.00  0.00    +0.000 HD
ATOM     28  H   UNL     1       3.185   1.623  22.114  0.00  0.00    +0.000 HD
ENDBRANCH  22  26
ENDBRANCH  20  22
ENDBRANCH  19  20
ENDBRANCH   1  19
BRANCH   2  29
ATOM     29  C   UNL     1       7.057   5.790  19.519  0.00  0.00    +0.000 C 
BRANCH  29  30
ATOM     30  O   UNL     1       8.003   5.505  20.549  0.00  0.00    +0.000 OA
ATOM     31  H   UNL     1       8.158   6.350  21.014  0.00  0.00    +0.000 HD
ENDBRANCH  29  30
ENDBRANCH   2  29
TORSDOF 9
ENDMDL
MODEL 6
REMARK VINA RESULT:      -6.7      1.431      1.587
REMARK  Name = 
REMARK  12 active torsions:
REMARK  status: ('A' for Active; 'I' for Inactive)
REMARK    1  A    between atoms: C_1  and  C_2
REMARK    2  A    between atoms: C_2  and  C_3
REMARK    3  A    between atoms: C_2  and  C_4
REMARK    4  A    between atoms: C_4  and  N_5
REMARK    5  A    between atoms: C_4  and  C_6
REMARK    6  A    between atoms: C_6  and  O_8
REMARK    7  A    between atoms: O_8  and  C_9
REMARK    8  A    between atoms: C_10  and  C_11
REMARK    9  A    between atoms: C_11  and  O_12
REMARK   10  A    between atoms: C_14  and  N_15
REMARK   11  A    between atoms: C_23  and  C_24
REMARK   12  A    between atoms: C_23  and  O_25
REMARK                            x       y       z     vdW  Elec       q    Type
REMARK                         _______ _______ _______ _____ _____    ______ ____
ROOT
ATOM      1  C   UNL     1       3.543   3.872  17.939  0.00  0.00    +0.000 C 
ATOM      2  C   UNL     1       4.443   4.272  19.109  0.00  0.00    +0.000 C 
ATOM      3  O   UNL     1       3.938   5.544  19.599  0.00  0.00    +0.000 OA
ATOM      4  C   UNL     1       2.910   6.004  18.673  0.00  0.00    +0.000 C 
ATOM      5  C   UNL     1       2.250   4.671  18.197  0.00  0.00    +0.000 C 
ATOM      6  C   UNL     1       1.325   4.062  19.250  0.00  0.00    +0.000 C 
ENDROOT
BRANCH   4   7
ATOM      7  N   UNL     1       2.103   7.038  19.325  0.00  0.00    +0.000 N 
ATOM      8  C   UNL     1       1.877   6.958  20.690  0.00  0.00    +0.000 A 
ATOM      9  C   UNL     1       1.309   7.955  21.364  0.00  0.00    +0.000 A 
ATOM     10  C   UNL     1       0.863   9.099  20.554  0.00  0.00    +0.000 A 
ATOM     11  N   UNL     1       0.090  10.070  21.124  0.00  0.00    +0.000 N 
ATOM     12  N   UNL     1       1.170   9.232  19.299  0.00  0.00    +0.000 NA
ATOM     13  C   UNL     1       1.972   8.284  18.693  0.00  0.00    +0.000 A 
ATOM     14  O   UNL     1       2.560   8.542  17.655  0.00  0.00    +0.000 OA
ATOM     15  H   UNL     1      -0.459   9.828  21.939  0.00  0.00    +0.000 HD
ATOM     16  H   UNL     1      -0.411  10.635  20.443  0.00  0.00    +0.000 HD
ENDBRANCH   4   7
BRANCH   5  17
ATOM     17  O   UNL     1       1.503   4.685  16.978  0.00  0.00    +0.000 OA
ATOM     18  H   UNL     1       0.746   4.080  17.084  0.00  0.00    +0.000 HD
ENDBRANCH   5  17
BRANCH   1  19
ATOM     19  O   UNL     1       4.047   4.410  16.674  0.00  0.00    +0.000 OA
BRANCH  19  20
ATOM     20  C   UNL     1       5.335   4.165  16.318  0.00  0.00    +0.000 C 
ATOM     21  O   UNL     1       5.778   3.047  16.090  0.00  0.00    +0.000 OA
BRANCH  20  22
ATOM     22  C   UNL     1       6.132   5.482  16.166  0.00  0.00    +0.000 C 
BRANCH  22  24
ATOM     23  C   UNL     1       7.753   4.914  18.046  0.00  0.00    +0.000 C 
ATOM     24  C   UNL     1       6.765   5.949  17.499  0.00  0.00    +0.000 C 
ATOM     25  C   UNL     1       7.447   7.321  17.424  0.00  0.00    +0.000 C 
ENDBRANCH  22  24
BRANCH  22  26
ATOM     26  N   UNL     1       7.154   5.373  15.091  0.00  0.00    +0.000 NA
ATOM     27  H   UNL     1       6.698   5.475  14.185  0.00  0.00    +0.000 HD
ATOM     28  H   UNL     1       7.547   4.432  15.098  0.00  0.00    +0.000 HD
ENDBRANCH  22  26
ENDBRANCH  20  22
ENDBRANCH  19  20
ENDBRANCH   1  19
BRANCH   2  29
ATOM     29  C   UNL     1       4.443   3.237  20.243  0.00  0.00    +0.000 C 
BRANCH  29  30
ATOM     30  O   UNL     1       5.044   2.019  19.807  0.00  0.00    +0.000 OA
ATOM     31  H   UNL     1       4.310   1.449  19.506  0.00  0.00    +0.000 HD
ENDBRANCH  29  30
ENDBRANCH   2  29
TORSDOF 9
ENDMDL
MODEL 7
REMARK VINA RESULT:      -6.6      1.222      1.408
REMARK  Name = 
REMARK  12 active torsions:
REMARK  status: ('A' for Active; 'I' for Inactive)
REMARK    1  A    between atoms: C_1  and  C_2
REMARK    2  A    between atoms: C_2  and  C_3
REMARK    3  A    between atoms: C_2  and  C_4
REMARK    4  A    between atoms: C_4  and  N_5
REMARK    5  A    between atoms: C_4  and  C_6
REMARK    6  A    between atoms: C_6  and  O_8
REMARK    7  A    between atoms: O_8  and  C_9
REMARK    8  A    between atoms: C_10  and  C_11
REMARK    9  A    between atoms: C_11  and  O_12
REMARK   10  A    between atoms: C_14  and  N_15
REMARK   11  A    between atoms: C_23  and  C_24
REMARK   12  A    between atoms: C_23  and  O_25
REMARK                            x       y       z     vdW  Elec       q    Type
REMARK                         _______ _______ _______ _____ _____    ______ ____
ROOT
ATOM      1  C   UNL     1       3.268   4.227  19.413  0.00  0.00    +0.000 C 
ATOM      2  C   UNL     1       2.555   4.526  20.733  0.00  0.00    +0.000 C 
ATOM      3  O   UNL     1       2.132   5.914  20.665  0.00  0.00    +0.000 OA
ATOM      4  C   UNL     1       2.712   6.502  19.464  0.00  0.00    +0.000 C 
ATOM      5  C   UNL     1       2.715   5.305  18.460  0.00  0.00    +0.000 C 
ATOM      6  C   UNL     1       1.328   5.005  17.895  0.00  0.00    +0.000 C 
ENDROOT
BRANCH   4   7
ATOM      7  N   UNL     1       1.998   7.738  19.139  0.00  0.00    +0.000 N 
ATOM      8  C   UNL     1       1.283   8.388  20.132  0.00  0.00    +0.000 A 
ATOM      9  C   UNL     1       0.768   9.600  19.945  0.00  0.00    +0.000 A 
ATOM     10  C   UNL     1       0.932  10.160  18.594  0.00  0.00    +0.000 A 
ATOM     11  N   UNL     1       0.263  11.299  18.249  0.00  0.00    +0.000 N 
ATOM     12  N   UNL     1       1.692   9.611  17.695  0.00  0.00    +0.000 NA
ATOM     13  C   UNL     1       2.406   8.472  18.015  0.00  0.00    +0.000 A 
ATOM     14  O   UNL     1       3.371   8.138  17.345  0.00  0.00    +0.000 OA
ATOM     15  H   UNL     1      -0.583  11.529  18.754  0.00  0.00    +0.000 HD
ATOM     16  H   UNL     1       0.192  11.434  17.244  0.00  0.00    +0.000 HD
ENDBRANCH   4   7
BRANCH   5  17
ATOM     17  O   UNL     1       3.592   5.372  17.332  0.00  0.00    +0.000 OA
ATOM     18  H   UNL     1       3.096   5.072  16.549  0.00  0.00    +0.000 HD
ENDBRANCH   5  17
BRANCH   1  19
ATOM     19  O   UNL     1       4.698   4.530  19.502  0.00  0.00    +0.000 OA
BRANCH  19  20
ATOM     20  C   UNL     1       5.526   4.101  18.514  0.00  0.00    +0.000 C 
ATOM     21  O   UNL     1       5.239   3.212  17.724  0.00  0.00    +0.000 OA
BRANCH  20  22
ATOM     22  C   UNL     1       6.828   4.936  18.475  0.00  0.00    +0.000 C 
BRANCH  22  24
ATOM     23  C   UNL     1       7.707   7.233  17.815  0.00  0.00    +0.000 C 
ATOM     24  C   UNL     1       6.762   6.087  17.441  0.00  0.00    +0.000 C 
ATOM     25  C   UNL     1       7.032   5.649  15.996  0.00  0.00    +0.000 C 
ENDBRANCH  22  24
BRANCH  22  26
ATOM     26  N   UNL     1       7.185   5.443  19.826  0.00  0.00    +0.000 NA
ATOM     27  H   UNL     1       8.194   5.372  19.953  0.00  0.00    +0.000 HD
ATOM     28  H   UNL     1       6.775   4.830  20.531  0.00  0.00    +0.000 HD
ENDBRANCH  22  26
ENDBRANCH  20  22
ENDBRANCH  19  20
ENDBRANCH   1  19
BRANCH   2  29
ATOM     29  C   UNL     1       1.338   3.619  20.972  0.00  0.00    +0.000 C 
BRANCH  29  30
ATOM     30  O   UNL     1       1.592   2.719  22.050  0.00  0.00    +0.000 OA
ATOM     31  H   UNL     1       2.497   2.917  22.358  0.00  0.00    +0.000 HD
ENDBRANCH  29  30
ENDBRANCH   2  29
TORSDOF 9
ENDMDL
MODEL 8
REMARK VINA RESULT:      -6.6      2.193      6.174
REMARK  Name = 
REMARK  12 active torsions:
REMARK  status: ('A' for Active; 'I' for Inactive)
REMARK    1  A    between atoms: C_1  and  C_2
REMARK    2  A    between atoms: C_2  and  C_3
REMARK    3  A    between atoms: C_2  and  C_4
REMARK    4  A    between atoms: C_4  and  N_5
REMARK    5  A    between atoms: C_4  and  C_6
REMARK    6  A    between atoms: C_6  and  O_8
REMARK    7  A    between atoms: O_8  and  C_9
REMARK    8  A    between atoms: C_10  and  C_11
REMARK    9  A    between atoms: C_11  and  O_12
REMARK   10  A    between atoms: C_14  and  N_15
REMARK   11  A    between atoms: C_23  and  C_24
REMARK   12  A    between atoms: C_23  and  O_25
REMARK                            x       y       z     vdW  Elec       q    Type
REMARK                         _______ _______ _______ _____ _____    ______ ____
ROOT
ATOM      1  C   UNL     1       2.833   4.886  19.368  0.00  0.00    +0.000 C 
ATOM      2  C   UNL     1       2.146   4.182  18.197  0.00  0.00    +0.000 C 
ATOM      3  O   UNL     1       3.026   4.337  17.052  0.00  0.00    +0.000 OA
ATOM      4  C   UNL     1       4.101   5.245  17.432  0.00  0.00    +0.000 C 
ATOM      5  C   UNL     1       4.315   4.914  18.944  0.00  0.00    +0.000 C 
ATOM      6  C   UNL     1       5.065   3.601  19.161  0.00  0.00    +0.000 C 
ENDROOT
BRANCH   4   7
ATOM      7  N   UNL     1       5.207   5.107  16.482  0.00  0.00    +0.000 N 
ATOM      8  C   UNL     1       5.024   4.351  15.336  0.00  0.00    +0.000 A 
ATOM      9  C   UNL     1       5.922   4.338  14.355  0.00  0.00    +0.000 A 
ATOM     10  C   UNL     1       7.152   5.104  14.607  0.00  0.00    +0.000 A 
ATOM     11  N   UNL     1       8.211   4.983  13.754  0.00  0.00    +0.000 N 
ATOM     12  N   UNL     1       7.285   5.902  15.623  0.00  0.00    +0.000 NA
ATOM     13  C   UNL     1       6.226   6.072  16.495  0.00  0.00    +0.000 A 
ATOM     14  O   UNL     1       6.180   7.045  17.231  0.00  0.00    +0.000 OA
ATOM     15  H   UNL     1       8.289   4.136  13.205  0.00  0.00    +0.000 HD
ATOM     16  H   UNL     1       9.091   5.292  14.160  0.00  0.00    +0.000 HD
ENDBRANCH   4   7
BRANCH   5  17
ATOM     17  O   UNL     1       4.977   5.884  19.760  0.00  0.00    +0.000 OA
ATOM     18  H   UNL     1       4.320   6.254  20.377  0.00  0.00    +0.000 HD
ENDBRANCH   5  17
BRANCH   1  19
ATOM     19  O   UNL     1       2.454   6.299  19.434  0.00  0.00    +0.000 OA
BRANCH  19  20
ATOM     20  C   UNL     1       1.687   6.729  20.470  0.00  0.00    +0.000 C 
ATOM     21  O   UNL     1       1.050   5.982  21.201  0.00  0.00    +0.000 OA
BRANCH  20  22
ATOM     22  C   UNL     1       1.791   8.262  20.644  0.00  0.00    +0.000 C 
BRANCH  22  24
ATOM     23  C   UNL     1       0.292  10.285  20.263  0.00  0.00    +0.000 C 
ATOM     24  C   UNL     1       0.911   9.034  19.631  0.00  0.00    +0.000 C 
ATOM     25  C   UNL     1       1.636   9.418  18.335  0.00  0.00    +0.000 C 
ENDBRANCH  22  24
BRANCH  22  26
ATOM     26  N   UNL     1       1.490   8.669  22.042  0.00  0.00    +0.000 NA
ATOM     27  H   UNL     1       1.217   9.651  22.053  0.00  0.00    +0.000 HD
ATOM     28  H   UNL     1       2.345   8.615  22.597  0.00  0.00    +0.000 HD
ENDBRANCH  22  26
ENDBRANCH  20  22
ENDBRANCH  19  20
ENDBRANCH   1  19
BRANCH   2  29
ATOM     29  C   UNL     1       1.891   2.691  18.464  0.00  0.00    +0.000 C 
BRANCH  29  30
ATOM     30  O   UNL     1       2.492   1.893  17.444  0.00  0.00    +0.000 OA
ATOM     31  H   UNL     1       1.879   1.921  16.685  0.00  0.00    +0.000 HD
ENDBRANCH  29  30
ENDBRANCH   2  29
TORSDOF 9
ENDMDL
MODEL 9
REMARK VINA RESULT:      -6.5      0.754      1.047
REMARK  Name = 
REMARK  12 active torsions:
REMARK  status: ('A' for Active; 'I' for Inactive)
REMARK    1  A    between atoms: C_1  and  C_2
REMARK    2  A    between atoms: C_2  and  C_3
REMARK    3  A    between atoms: C_2  and  C_4
REMARK    4  A    between atoms: C_4  and  N_5
REMARK    5  A    between atoms: C_4  and  C_6
REMARK    6  A    between atoms: C_6  and  O_8
REMARK    7  A    between atoms: O_8  and  C_9
REMARK    8  A    between atoms: C_10  and  C_11
REMARK    9  A    between atoms: C_11  and  O_12
REMARK   10  A    between atoms: C_14  and  N_15
REMARK   11  A    between atoms: C_23  and  C_24
REMARK   12  A    between atoms: C_23  and  O_25
REMARK                            x       y       z     vdW  Elec       q    Type
REMARK                         _______ _______ _______ _____ _____    ______ ____
ROOT
ATOM      1  C   UNL     1       3.644   3.865  18.869  0.00  0.00    +0.000 C 
ATOM      2  C   UNL     1       3.121   3.730  20.300  0.00  0.00    +0.000 C 
ATOM      3  O   UNL     1       2.572   5.026  20.660  0.00  0.00    +0.000 OA
ATOM      4  C   UNL     1       2.904   5.966  19.596  0.00  0.00    +0.000 C 
ATOM      5  C   UNL     1       2.856   5.070  18.317  0.00  0.00    +0.000 C 
ATOM      6  C   UNL     1       1.430   4.749  17.873  0.00  0.00    +0.000 C 
ENDROOT
BRANCH   4   7
ATOM      7  N   UNL     1       2.041   7.144  19.706  0.00  0.00    +0.000 N 
ATOM      8  C   UNL     1       1.428   7.422  20.917  0.00  0.00    +0.000 A 
ATOM      9  C   UNL     1       0.784   8.567  21.129  0.00  0.00    +0.000 A 
ATOM     10  C   UNL     1       0.694   9.470  19.971  0.00  0.00    +0.000 A 
ATOM     11  N   UNL     1      -0.119  10.566  20.031  0.00  0.00    +0.000 N 
ATOM     12  N   UNL     1       1.357   9.271  18.873  0.00  0.00    +0.000 NA
ATOM     13  C   UNL     1       2.210   8.186  18.783  0.00  0.00    +0.000 A 
ATOM     14  O   UNL     1       3.090   8.160  17.937  0.00  0.00    +0.000 OA
ATOM     15  H   UNL     1      -0.897  10.550  20.677  0.00  0.00    +0.000 HD
ATOM     16  H   UNL     1      -0.350  10.944  19.115  0.00  0.00    +0.000 HD
ENDBRANCH   4   7
BRANCH   5  17
ATOM     17  O   UNL     1       3.538   5.528  17.146  0.00  0.00    +0.000 OA
ATOM     18  H   UNL     1       3.856   6.433  17.320  0.00  0.00    +0.000 HD
ENDBRANCH   5  17
BRANCH   1  19
ATOM     19  O   UNL     1       5.038   4.314  18.853  0.00  0.00    +0.000 OA
BRANCH  19  20
ATOM     20  C   UNL     1       5.810   4.029  17.772  0.00  0.00    +0.000 C 
ATOM     21  O   UNL     1       5.431   3.356  16.823  0.00  0.00    +0.000 OA
BRANCH  20  22
ATOM     22  C   UNL     1       7.185   4.731  17.868  0.00  0.00    +0.000 C 
BRANCH  22  24
ATOM     23  C   UNL     1       6.899   5.511  15.461  0.00  0.00    +0.000 C 
ATOM     24  C   UNL     1       7.316   5.915  16.879  0.00  0.00    +0.000 C 
ATOM     25  C   UNL     1       6.548   7.174  17.301  0.00  0.00    +0.000 C 
ENDBRANCH  22  24
BRANCH  22  26
ATOM     26  N   UNL     1       7.478   5.157  19.262  0.00  0.00    +0.000 NA
ATOM     27  H   UNL     1       6.712   4.866  19.869  0.00  0.00    +0.000 HD
ATOM     28  H   UNL     1       7.491   6.177  19.304  0.00  0.00    +0.000 HD
ENDBRANCH  22  26
ENDBRANCH  20  22
ENDBRANCH  19  20
ENDBRANCH   1  19
BRANCH   2  29
ATOM     29  C   UNL     1       2.042   2.647  20.441  0.00  0.00    +0.000 C 
BRANCH  29  30
ATOM     30  O   UNL     1       0.831   3.212  20.943  0.00  0.00    +0.000 OA
ATOM     31  H   UNL     1       0.542   2.627  21.669  0.00  0.00    +0.000 HD
ENDBRANCH  29  30
ENDBRANCH   2  29
TORSDOF 9
ENDMDL
