MODEL 1
REMARK VINA RESULT:      -7.2      0.000      0.000
REMARK  Name = 
REMARK  9 active torsions:
REMARK  status: ('A' for Active; 'I' for Inactive)
REMARK    1  A    between atoms: O_1  and  C_2
REMARK    2  A    between atoms: C_2  and  C_3
REMARK    3  A    between atoms: C_5  and  C_6
REMARK    4  A    between atoms: C_8  and  C_9
REMARK    5  A    between atoms: C_9  and  C_10
REMARK    6  A    between atoms: C_13  and  C_14
REMARK    7  A    between atoms: C_26  and  O_27
REMARK    8  A    between atoms: C_28  and  O_29
REMARK    9  A    between atoms: C_30  and  O_31
REMARK                            x       y       z     vdW  Elec       q    Type
REMARK                         _______ _______ _______ _____ _____    ______ ____
ROOT
ATOM      1  C   UNL     1      -2.436  12.891  20.280  0.00  0.00    +0.000 A 
ATOM      2  C   UNL     1      -1.104  12.650  19.879  0.00  0.00    +0.000 A 
ATOM      3  C   UNL     1      -0.773  11.742  18.845  0.00  0.00    +0.000 A 
ATOM      4  C   UNL     1      -1.813  11.106  18.147  0.00  0.00    +0.000 A 
ATOM      5 CL   UNL     1      -1.468   9.995  16.859  0.00  0.00    +0.000 Cl
ATOM      6  C   UNL     1      -3.140  11.377  18.497  0.00  0.00    +0.000 A 
ATOM      7  C   UNL     1      -3.456  12.252  19.549  0.00  0.00    +0.000 A 
ATOM      8  C   UNL     1      -4.930  12.360  19.843  0.00  0.00    +0.000 C 
ATOM      9  C   UNL     1      -5.732  11.592  18.791  0.00  0.00    +0.000 C 
ATOM     10  S   UNL     1      -4.589  10.651  17.762  0.00  0.00    +0.000 S 
ENDROOT
BRANCH   1  13
ATOM     11  C   UNL     1      -3.667  13.570  23.743  0.00  0.00    +0.000 C 
ATOM     12  O   UNL     1      -3.448  12.875  22.501  0.00  0.00    +0.000 OA
ATOM     13  C   UNL     1      -2.718  13.682  21.558  0.00  0.00    +0.000 C 
ATOM     14  C   UNL     1      -3.487  14.989  21.227  0.00  0.00    +0.000 C 
ATOM     15  C   UNL     1      -3.895  15.731  22.507  0.00  0.00    +0.000 C 
ATOM     16  C   UNL     1      -4.583  14.792  23.506  0.00  0.00    +0.000 C 
BRANCH  14  17
ATOM     17  O   UNL     1      -2.690  15.838  20.389  0.00  0.00    +0.000 OA
ATOM     18  H   UNL     1      -1.868  16.059  20.860  0.00  0.00    +0.000 HD
ENDBRANCH  14  17
BRANCH  15  19
ATOM     19  O   UNL     1      -4.733  16.847  22.161  0.00  0.00    +0.000 OA
ATOM     20  H   UNL     1      -4.604  17.041  21.216  0.00  0.00    +0.000 HD
ENDBRANCH  15  19
BRANCH  16  21
ATOM     21  O   UNL     1      -4.880  15.539  24.684  0.00  0.00    +0.000 OA
ATOM     22  H   UNL     1      -4.163  16.188  24.835  0.00  0.00    +0.000 HD
ENDBRANCH  16  21
BRANCH  11  23
ATOM     23  C   UNL     1      -4.250  12.618  24.796  0.00  0.00    +0.000 C 
BRANCH  23  24
ATOM     24  O   UNL     1      -5.676  12.628  24.724  0.00  0.00    +0.000 OA
ATOM     25  H   UNL     1      -5.963  11.708  24.576  0.00  0.00    +0.000 HD
ENDBRANCH  23  24
ENDBRANCH  11  23
ENDBRANCH   1  13
BRANCH   3  26
ATOM     26  C   UNL     1       0.687  11.437  18.569  0.00  0.00    +0.000 C 
BRANCH  26  27
ATOM     27  C   UNL     1       1.130  10.031  18.912  0.00  0.00    +0.000 A 
ATOM     28  C   UNL     1       1.825   9.245  17.980  0.00  0.00    +0.000 A 
ATOM     29  C   UNL     1       2.291   7.971  18.315  0.00  0.00    +0.000 A 
ATOM     30  C   UNL     1       2.074   7.421  19.584  0.00  0.00    +0.000 A 
ATOM     31  C   UNL     1       1.355   8.206  20.505  0.00  0.00    +0.000 A 
ATOM     32  C   UNL     1       0.892   9.486  20.178  0.00  0.00    +0.000 A 
BRANCH  30  33
ATOM     33  C   UNL     1       2.534   6.030  19.960  0.00  0.00    +0.000 C 
ATOM     34  C   UNL     1       1.623   5.020  20.613  0.00  0.00    +0.000 C 
ATOM     35  C   UNL     1       1.990   4.857  19.162  0.00  0.00    +0.000 C 
ENDBRANCH  30  33
ENDBRANCH  26  27
ENDBRANCH   3  26
TORSDOF 9
ENDMDL
MODEL 2
REMARK VINA RESULT:      -7.2      5.472      8.569
REMARK  Name = 
REMARK  9 active torsions:
REMARK  status: ('A' for Active; 'I' for Inactive)
REMARK    1  A    between atoms: O_1  and  C_2
REMARK    2  A    between atoms: C_2  and  C_3
REMARK    3  A    between atoms: C_5  and  C_6
REMARK    4  A    between atoms: C_8  and  C_9
REMARK    5  A    between atoms: C_9  and  C_10
REMARK    6  A    between atoms: C_13  and  C_14
REMARK    7  A    between atoms: C_26  and  O_27
REMARK    8  A    between atoms: C_28  and  O_29
REMARK    9  A    between atoms: C_30  and  O_31
REMARK                            x       y       z     vdW  Elec       q    Type
REMARK                         _______ _______ _______ _____ _____    ______ ____
ROOT
ATOM      1  C   UNL     1       2.899   6.565  19.239  0.00  0.00    +0.000 A 
ATOM      2  C   UNL     1       4.105   6.486  18.510  0.00  0.00    +0.000 A 
ATOM      3  C   UNL     1       4.833   5.279  18.372  0.00  0.00    +0.000 A 
ATOM      4  C   UNL     1       4.301   4.104  18.926  0.00  0.00    +0.000 A 
ATOM      5 CL   UNL     1       5.141   2.593  18.775  0.00  0.00    +0.000 Cl
ATOM      6  C   UNL     1       3.079   4.157  19.605  0.00  0.00    +0.000 A 
ATOM      7  C   UNL     1       2.383   5.367  19.767  0.00  0.00    +0.000 A 
ATOM      8  C   UNL     1       1.130   5.253  20.596  0.00  0.00    +0.000 C 
ATOM      9  C   UNL     1       0.847   3.786  20.921  0.00  0.00    +0.000 C 
ATOM     10  S   UNL     1       2.260   2.793  20.402  0.00  0.00    +0.000 S 
ENDROOT
BRANCH   1  13
ATOM     11  C   UNL     1       0.923   9.130  21.107  0.00  0.00    +0.000 C 
ATOM     12  O   UNL     1       1.453   7.845  20.733  0.00  0.00    +0.000 OA
ATOM     13  C   UNL     1       2.292   7.931  19.566  0.00  0.00    +0.000 C 
ATOM     14  C   UNL     1       1.503   8.478  18.348  0.00  0.00    +0.000 C 
ATOM     15  C   UNL     1       0.776   9.784  18.699  0.00  0.00    +0.000 C 
ATOM     16  C   UNL     1      -0.023   9.650  20.000  0.00  0.00    +0.000 C 
BRANCH  14  17
ATOM     17  O   UNL     1       2.383   8.679  17.232  0.00  0.00    +0.000 OA
ATOM     18  H   UNL     1       3.220   9.051  17.558  0.00  0.00    +0.000 HD
ENDBRANCH  14  17
BRANCH  15  19
ATOM     19  O   UNL     1      -0.062  10.171  17.596  0.00  0.00    +0.000 OA
ATOM     20  H   UNL     1       0.408   9.961  16.770  0.00  0.00    +0.000 HD
ENDBRANCH  15  19
BRANCH  16  21
ATOM     21  O   UNL     1      -0.620  10.914  20.286  0.00  0.00    +0.000 OA
ATOM     22  H   UNL     1      -0.228  11.267  21.111  0.00  0.00    +0.000 HD
ENDBRANCH  16  21
BRANCH  11  23
ATOM     23  C   UNL     1       0.215   9.045  22.466  0.00  0.00    +0.000 C 
BRANCH  23  24
ATOM     24  O   UNL     1       0.204  10.328  23.090  0.00  0.00    +0.000 OA
ATOM     25  H   UNL     1       0.818  10.897  22.589  0.00  0.00    +0.000 HD
ENDBRANCH  23  24
ENDBRANCH  11  23
ENDBRANCH   1  13
BRANCH   3  26
ATOM     26  C   UNL     1       6.189   5.308  17.692  0.00  0.00    +0.000 C 
BRANCH  26  27
ATOM     27  C   UNL     1       6.204   4.821  16.259  0.00  0.00    +0.000 A 
ATOM     28  C   UNL     1       5.148   4.050  15.747  0.00  0.00    +0.000 A 
ATOM     29  C   UNL     1       5.129   3.651  14.408  0.00  0.00    +0.000 A 
ATOM     30  C   UNL     1       6.162   3.992  13.527  0.00  0.00    +0.000 A 
ATOM     31  C   UNL     1       7.228   4.745  14.054  0.00  0.00    +0.000 A 
ATOM     32  C   UNL     1       7.250   5.153  15.393  0.00  0.00    +0.000 A 
BRANCH  30  33
ATOM     33  C   UNL     1       6.184   3.542  12.083  0.00  0.00    +0.000 C 
ATOM     34  C   UNL     1       5.925   2.113  11.672  0.00  0.00    +0.000 C 
ATOM     35  C   UNL     1       4.866   3.156  11.433  0.00  0.00    +0.000 C 
ENDBRANCH  30  33
ENDBRANCH  26  27
ENDBRANCH   3  26
TORSDOF 9
ENDMDL
MODEL 3
REMARK VINA RESULT:      -7.0      5.077      7.947
REMARK  Name = 
REMARK  9 active torsions:
REMARK  status: ('A' for Active; 'I' for Inactive)
REMARK    1  A    between atoms: O_1  and  C_2
REMARK    2  A    between atoms: C_2  and  C_3
REMARK    3  A    between atoms: C_5  and  C_6
REMARK    4  A    between atoms: C_8  and  C_9
REMARK    5  A    between atoms: C_9  and  C_10
REMARK    6  A    between atoms: C_13  and  C_14
REMARK    7  A    between atoms: C_26  and  O_27
REMARK    8  A    between atoms: C_28  and  O_29
REMARK    9  A    between atoms: C_30  and  O_31
REMARK                            x       y       z     vdW  Elec       q    Type
REMARK                         _______ _______ _______ _____ _____    ______ ____
ROOT
ATOM      1  C   UNL     1       2.617   7.144  18.954  0.00  0.00    +0.000 A 
ATOM      2  C   UNL     1       3.703   7.227  18.056  0.00  0.00    +0.000 A 
ATOM      3  C   UNL     1       4.485   6.102  17.701  0.00  0.00    +0.000 A 
ATOM      4  C   UNL     1       4.126   4.843  18.211  0.00  0.00    +0.000 A 
ATOM      5 CL   UNL     1       5.038   3.426  17.798  0.00  0.00    +0.000 Cl
ATOM      6  C   UNL     1       3.019   4.737  19.059  0.00  0.00    +0.000 A 
ATOM      7  C   UNL     1       2.272   5.867  19.433  0.00  0.00    +0.000 A 
ATOM      8  C   UNL     1       1.168   5.579  20.418  0.00  0.00    +0.000 C 
ATOM      9  C   UNL     1       1.041   4.071  20.639  0.00  0.00    +0.000 C 
ATOM     10  S   UNL     1       2.427   3.247  19.832  0.00  0.00    +0.000 S 
ENDROOT
BRANCH   1  13
ATOM     11  C   UNL     1       0.603   9.326  21.223  0.00  0.00    +0.000 C 
ATOM     12  O   UNL     1       1.168   8.132  20.652  0.00  0.00    +0.000 OA
ATOM     13  C   UNL     1       1.971   8.422  19.492  0.00  0.00    +0.000 C 
ATOM     14  C   UNL     1       1.129   9.110  18.386  0.00  0.00    +0.000 C 
ATOM     15  C   UNL     1       0.366  10.321  18.942  0.00  0.00    +0.000 C 
ATOM     16  C   UNL     1      -0.391   9.966  20.227  0.00  0.00    +0.000 C 
BRANCH  14  17
ATOM     17  O   UNL     1       1.970   9.508  17.293  0.00  0.00    +0.000 OA
ATOM     18  H   UNL     1       2.402   8.717  16.928  0.00  0.00    +0.000 HD
ENDBRANCH  14  17
BRANCH  15  19
ATOM     19  O   UNL     1      -0.516  10.832  17.928  0.00  0.00    +0.000 OA
ATOM     20  H   UNL     1      -0.324  11.779  17.810  0.00  0.00    +0.000 HD
ENDBRANCH  15  19
BRANCH  16  21
ATOM     21  O   UNL     1      -1.025  11.149  20.710  0.00  0.00    +0.000 OA
ATOM     22  H   UNL     1      -0.453  11.556  21.392  0.00  0.00    +0.000 HD
ENDBRANCH  16  21
BRANCH  11  23
ATOM     23  C   UNL     1      -0.063   9.014  22.570  0.00  0.00    +0.000 C 
BRANCH  23  24
ATOM     24  O   UNL     1      -0.047  10.175  23.401  0.00  0.00    +0.000 OA
ATOM     25  H   UNL     1       0.877  10.481  23.450  0.00  0.00    +0.000 HD
ENDBRANCH  23  24
ENDBRANCH  11  23
ENDBRANCH   1  13
BRANCH   3  26
ATOM     26  C   UNL     1       5.718   6.301  16.840  0.00  0.00    +0.000 C 
BRANCH  26  27
ATOM     27  C   UNL     1       6.759   7.241  17.407  0.00  0.00    +0.000 A 
ATOM     28  C   UNL     1       6.799   8.591  17.022  0.00  0.00    +0.000 A 
ATOM     29  C   UNL     1       7.719   9.476  17.591  0.00  0.00    +0.000 A 
ATOM     30  C   UNL     1       8.643   9.054  18.554  0.00  0.00    +0.000 A 
ATOM     31  C   UNL     1       8.612   7.694  18.916  0.00  0.00    +0.000 A 
ATOM     32  C   UNL     1       7.688   6.804  18.355  0.00  0.00    +0.000 A 
BRANCH  30  33
ATOM     33  C   UNL     1       9.673   9.983  19.157  0.00  0.00    +0.000 C 
ATOM     34  C   UNL     1       9.602  11.483  19.010  0.00  0.00    +0.000 C 
ATOM     35  C   UNL     1       9.254  10.851  20.331  0.00  0.00    +0.000 C 
ENDBRANCH  30  33
ENDBRANCH  26  27
ENDBRANCH   3  26
TORSDOF 9
ENDMDL
MODEL 4
REMARK VINA RESULT:      -6.7      2.506      3.423
REMARK  Name = 
REMARK  9 active torsions:
REMARK  status: ('A' for Active; 'I' for Inactive)
REMARK    1  A    between atoms: O_1  and  C_2
REMARK    2  A    between atoms: C_2  and  C_3
REMARK    3  A    between atoms: C_5  and  C_6
REMARK    4  A    between atoms: C_8  and  C_9
REMARK    5  A    between atoms: C_9  and  C_10
REMARK    6  A    between atoms: C_13  and  C_14
REMARK    7  A    between atoms: C_26  and  O_27
REMARK    8  A    between atoms: C_28  and  O_29
REMARK    9  A    between atoms: C_30  and  O_31
REMARK                            x       y       z     vdW  Elec       q    Type
REMARK                         _______ _______ _______ _____ _____    ______ ____
ROOT
ATOM      1  C   UNL     1      -0.997  13.693  21.404  0.00  0.00    +0.000 A 
ATOM      2  C   UNL     1      -1.033  12.592  20.521  0.00  0.00    +0.000 A 
ATOM      3  C   UNL     1       0.035  12.284  19.645  0.00  0.00    +0.000 A 
ATOM      4  C   UNL     1       1.202  13.063  19.704  0.00  0.00    +0.000 A 
ATOM      5 CL   UNL     1       2.550  12.722  18.666  0.00  0.00    +0.000 Cl
ATOM      6  C   UNL     1       1.273  14.123  20.613  0.00  0.00    +0.000 A 
ATOM      7  C   UNL     1       0.193  14.443  21.452  0.00  0.00    +0.000 A 
ATOM      8  C   UNL     1       0.413  15.666  22.305  0.00  0.00    +0.000 C 
ATOM      9  C   UNL     1       1.851  16.162  22.150  0.00  0.00    +0.000 C 
ATOM     10  S   UNL     1       2.642  15.243  20.816  0.00  0.00    +0.000 S 
ENDROOT
BRANCH   1  13
ATOM     11  C   UNL     1      -3.852  13.502  23.808  0.00  0.00    +0.000 C 
ATOM     12  O   UNL     1      -2.698  13.095  23.050  0.00  0.00    +0.000 OA
ATOM     13  C   UNL     1      -2.267  14.125  22.140  0.00  0.00    +0.000 C 
ATOM     14  C   UNL     1      -3.386  14.479  21.125  0.00  0.00    +0.000 C 
ATOM     15  C   UNL     1      -4.707  14.787  21.843  0.00  0.00    +0.000 C 
ATOM     16  C   UNL     1      -5.059  13.698  22.863  0.00  0.00    +0.000 C 
BRANCH  14  17
ATOM     17  O   UNL     1      -2.987  15.592  20.312  0.00  0.00    +0.000 OA
ATOM     18  H   UNL     1      -2.384  16.156  20.827  0.00  0.00    +0.000 HD
ENDBRANCH  14  17
BRANCH  15  19
ATOM     19  O   UNL     1      -5.749  14.958  20.865  0.00  0.00    +0.000 OA
ATOM     20  H   UNL     1      -5.963  15.906  20.815  0.00  0.00    +0.000 HD
ENDBRANCH  15  19
BRANCH  16  21
ATOM     21  O   UNL     1      -6.264  14.082  23.524  0.00  0.00    +0.000 OA
ATOM     22  H   UNL     1      -6.083  14.873  24.073  0.00  0.00    +0.000 HD
ENDBRANCH  16  21
BRANCH  11  23
ATOM     23  C   UNL     1      -4.155  12.481  24.913  0.00  0.00    +0.000 C 
BRANCH  23  24
ATOM     24  O   UNL     1      -5.345  11.759  24.596  0.00  0.00    +0.000 OA
ATOM     25  H   UNL     1      -5.272  11.480  23.664  0.00  0.00    +0.000 HD
ENDBRANCH  23  24
ENDBRANCH  11  23
ENDBRANCH   1  13
BRANCH   3  26
ATOM     26  C   UNL     1      -0.139  11.169  18.631  0.00  0.00    +0.000 C 
BRANCH  26  27
ATOM     27  C   UNL     1       0.685   9.926  18.888  0.00  0.00    +0.000 A 
ATOM     28  C   UNL     1       0.751   9.356  20.168  0.00  0.00    +0.000 A 
ATOM     29  C   UNL     1       1.460   8.173  20.395  0.00  0.00    +0.000 A 
ATOM     30  C   UNL     1       2.141   7.516  19.363  0.00  0.00    +0.000 A 
ATOM     31  C   UNL     1       2.089   8.108  18.087  0.00  0.00    +0.000 A 
ATOM     32  C   UNL     1       1.375   9.290  17.852  0.00  0.00    +0.000 A 
BRANCH  30  33
ATOM     33  C   UNL     1       2.946   6.257  19.590  0.00  0.00    +0.000 C 
ATOM     34  C   UNL     1       2.454   5.119  20.451  0.00  0.00    +0.000 C 
ATOM     35  C   UNL     1       2.454   4.968  18.953  0.00  0.00    +0.000 C 
ENDBRANCH  30  33
ENDBRANCH  26  27
ENDBRANCH   3  26
TORSDOF 9
ENDMDL
MODEL 5
REMARK VINA RESULT:      -6.7      2.406      3.719
REMARK  Name = 
REMARK  9 active torsions:
REMARK  status: ('A' for Active; 'I' for Inactive)
REMARK    1  A    between atoms: O_1  and  C_2
REMARK    2  A    between atoms: C_2  and  C_3
REMARK    3  A    between atoms: C_5  and  C_6
REMARK    4  A    between atoms: C_8  and  C_9
REMARK    5  A    between atoms: C_9  and  C_10
REMARK    6  A    between atoms: C_13  and  C_14
REMARK    7  A    between atoms: C_26  and  O_27
REMARK    8  A    between atoms: C_28  and  O_29
REMARK    9  A    between atoms: C_30  and  O_31
REMARK                            x       y       z     vdW  Elec       q    Type
REMARK                         _______ _______ _______ _____ _____    ______ ____
ROOT
ATOM      1  C   UNL     1      -1.775  12.893  21.459  0.00  0.00    +0.000 A 
ATOM      2  C   UNL     1      -1.438  11.980  20.437  0.00  0.00    +0.000 A 
ATOM      3  C   UNL     1      -0.212  12.047  19.731  0.00  0.00    +0.000 A 
ATOM      4  C   UNL     1       0.731  13.017  20.109  0.00  0.00    +0.000 A 
ATOM      5 CL   UNL     1       2.257  13.135  19.291  0.00  0.00    +0.000 Cl
ATOM      6  C   UNL     1       0.433  13.892  21.157  0.00  0.00    +0.000 A 
ATOM      7  C   UNL     1      -0.802  13.841  21.826  0.00  0.00    +0.000 A 
ATOM      8  C   UNL     1      -0.985  14.912  22.870  0.00  0.00    +0.000 C 
ATOM      9  C   UNL     1       0.314  15.700  23.047  0.00  0.00    +0.000 C 
ATOM     10  S   UNL     1       1.474  15.205  21.759  0.00  0.00    +0.000 S 
ENDROOT
BRANCH   1  13
ATOM     11  C   UNL     1      -5.163  14.270  22.233  0.00  0.00    +0.000 C 
ATOM     12  O   UNL     1      -3.794  14.225  21.788  0.00  0.00    +0.000 OA
ATOM     13  C   UNL     1      -3.202  12.931  22.009  0.00  0.00    +0.000 C 
ATOM     14  C   UNL     1      -3.212  12.561  23.516  0.00  0.00    +0.000 C 
ATOM     15  C   UNL     1      -4.615  12.723  24.117  0.00  0.00    +0.000 C 
ATOM     16  C   UNL     1      -5.224  14.085  23.766  0.00  0.00    +0.000 C 
BRANCH  14  17
ATOM     17  O   UNL     1      -2.738  11.220  23.703  0.00  0.00    +0.000 OA
ATOM     18  H   UNL     1      -2.674  11.042  24.658  0.00  0.00    +0.000 HD
ENDBRANCH  14  17
BRANCH  15  19
ATOM     19  O   UNL     1      -4.547  12.520  25.540  0.00  0.00    +0.000 OA
ATOM     20  H   UNL     1      -3.619  12.350  25.777  0.00  0.00    +0.000 HD
ENDBRANCH  15  19
BRANCH  16  21
ATOM     21  O   UNL     1      -6.541  14.136  24.310  0.00  0.00    +0.000 OA
ATOM     22  H   UNL     1      -6.504  13.862  25.249  0.00  0.00    +0.000 HD
ENDBRANCH  16  21
BRANCH  11  23
ATOM     23  C   UNL     1      -5.828  15.580  21.791  0.00  0.00    +0.000 C 
BRANCH  23  24
ATOM     24  O   UNL     1      -5.761  16.539  22.845  0.00  0.00    +0.000 OA
ATOM     25  H   UNL     1      -5.162  17.250  22.550  0.00  0.00    +0.000 HD
ENDBRANCH  23  24
ENDBRANCH  11  23
ENDBRANCH   1  13
BRANCH   3  26
ATOM     26  C   UNL     1       0.015  11.117  18.555  0.00  0.00    +0.000 C 
BRANCH  26  27
ATOM     27  C   UNL     1       0.793   9.857  18.866  0.00  0.00    +0.000 A 
ATOM     28  C   UNL     1       0.789   9.306  20.157  0.00  0.00    +0.000 A 
ATOM     29  C   UNL     1       1.455   8.110  20.433  0.00  0.00    +0.000 A 
ATOM     30  C   UNL     1       2.161   7.418  19.441  0.00  0.00    +0.000 A 
ATOM     31  C   UNL     1       2.180   7.989  18.155  0.00  0.00    +0.000 A 
ATOM     32  C   UNL     1       1.509   9.185  17.871  0.00  0.00    +0.000 A 
BRANCH  30  33
ATOM     33  C   UNL     1       2.921   6.141  19.722  0.00  0.00    +0.000 C 
ATOM     34  C   UNL     1       2.369   5.039  20.593  0.00  0.00    +0.000 C 
ATOM     35  C   UNL     1       2.411   4.852  19.100  0.00  0.00    +0.000 C 
ENDBRANCH  30  33
ENDBRANCH  26  27
ENDBRANCH   3  26
TORSDOF 9
ENDMDL
MODEL 6
REMARK VINA RESULT:      -6.6      2.934      4.293
REMARK  Name = 
REMARK  9 active torsions:
REMARK  status: ('A' for Active; 'I' for Inactive)
REMARK    1  A    between atoms: O_1  and  C_2
REMARK    2  A    between atoms: C_2  and  C_3
REMARK    3  A    between atoms: C_5  and  C_6
REMARK    4  A    between atoms: C_8  and  C_9
REMARK    5  A    between atoms: C_9  and  C_10
REMARK    6  A    between atoms: C_13  and  C_14
REMARK    7  A    between atoms: C_26  and  O_27
REMARK    8  A    between atoms: C_28  and  O_29
REMARK    9  A    between atoms: C_30  and  O_31
REMARK                            x       y       z     vdW  Elec       q    Type
REMARK                         _______ _______ _______ _____ _____    ______ ____
ROOT
ATOM      1  C   UNL     1      -1.925  12.457  19.613  0.00  0.00    +0.000 A 
ATOM      2  C   UNL     1      -0.916  11.682  19.000  0.00  0.00    +0.000 A 
ATOM      3  C   UNL     1       0.456  11.837  19.311  0.00  0.00    +0.000 A 
ATOM      4  C   UNL     1       0.822  12.748  20.315  0.00  0.00    +0.000 A 
ATOM      5 CL   UNL     1       2.487  12.967  20.751  0.00  0.00    +0.000 Cl
ATOM      6  C   UNL     1      -0.172  13.482  20.970  0.00  0.00    +0.000 A 
ATOM      7  C   UNL     1      -1.528  13.348  20.627  0.00  0.00    +0.000 A 
ATOM      8  C   UNL     1      -2.450  14.277  21.374  0.00  0.00    +0.000 C 
ATOM      9  C   UNL     1      -1.672  15.033  22.452  0.00  0.00    +0.000 C 
ATOM     10  S   UNL     1       0.087  14.705  22.237  0.00  0.00    +0.000 S 
ENDROOT
BRANCH   1  13
ATOM     11  C   UNL     1      -5.638  12.033  19.612  0.00  0.00    +0.000 C 
ATOM     12  O   UNL     1      -4.277  12.004  20.081  0.00  0.00    +0.000 OA
ATOM     13  C   UNL     1      -3.352  12.427  19.062  0.00  0.00    +0.000 C 
ATOM     14  C   UNL     1      -3.432  11.505  17.816  0.00  0.00    +0.000 C 
ATOM     15  C   UNL     1      -4.880  11.357  17.329  0.00  0.00    +0.000 C 
ATOM     16  C   UNL     1      -5.826  10.998  18.480  0.00  0.00    +0.000 C 
BRANCH  14  17
ATOM     17  O   UNL     1      -2.600  12.015  16.764  0.00  0.00    +0.000 OA
ATOM     18  H   UNL     1      -1.700  11.664  16.880  0.00  0.00    +0.000 HD
ENDBRANCH  14  17
BRANCH  15  19
ATOM     19  O   UNL     1      -4.927  10.379  16.275  0.00  0.00    +0.000 OA
ATOM     20  H   UNL     1      -4.867  10.848  15.424  0.00  0.00    +0.000 HD
ENDBRANCH  15  19
BRANCH  16  21
ATOM     21  O   UNL     1      -7.153  10.933  17.960  0.00  0.00    +0.000 OA
ATOM     22  H   UNL     1      -7.183  10.250  17.259  0.00  0.00    +0.000 HD
ENDBRANCH  16  21
BRANCH  11  23
ATOM     23  C   UNL     1      -6.612  11.789  20.773  0.00  0.00    +0.000 C 
BRANCH  23  24
ATOM     24  O   UNL     1      -7.068  10.437  20.750  0.00  0.00    +0.000 OA
ATOM     25  H   UNL     1      -6.725  10.032  19.931  0.00  0.00    +0.000 HD
ENDBRANCH  23  24
ENDBRANCH  11  23
ENDBRANCH   1  13
BRANCH   3  26
ATOM     26  C   UNL     1       1.487  11.065  18.509  0.00  0.00    +0.000 C 
BRANCH  26  27
ATOM     27  C   UNL     1       1.672   9.618  18.914  0.00  0.00    +0.000 A 
ATOM     28  C   UNL     1       2.260   8.693  18.038  0.00  0.00    +0.000 A 
ATOM     29  C   UNL     1       2.489   7.372  18.431  0.00  0.00    +0.000 A 
ATOM     30  C   UNL     1       2.131   6.914  19.705  0.00  0.00    +0.000 A 
ATOM     31  C   UNL     1       1.519   7.842  20.568  0.00  0.00    +0.000 A 
ATOM     32  C   UNL     1       1.293   9.168  20.182  0.00  0.00    +0.000 A 
BRANCH  30  33
ATOM     33  C   UNL     1       2.333   5.480  20.142  0.00  0.00    +0.000 C 
ATOM     34  C   UNL     1       1.189   4.585  20.552  0.00  0.00    +0.000 C 
ATOM     35  C   UNL     1       1.852   4.375  19.216  0.00  0.00    +0.000 C 
ENDBRANCH  30  33
ENDBRANCH  26  27
ENDBRANCH   3  26
TORSDOF 9
ENDMDL
MODEL 7
REMARK VINA RESULT:      -6.6      8.472     11.405
REMARK  Name = 
REMARK  9 active torsions:
REMARK  status: ('A' for Active; 'I' for Inactive)
REMARK    1  A    between atoms: O_1  and  C_2
REMARK    2  A    between atoms: C_2  and  C_3
REMARK    3  A    between atoms: C_5  and  C_6
REMARK    4  A    between atoms: C_8  and  C_9
REMARK    5  A    between atoms: C_9  and  C_10
REMARK    6  A    between atoms: C_13  and  C_14
REMARK    7  A    between atoms: C_26  and  O_27
REMARK    8  A    between atoms: C_28  and  O_29
REMARK    9  A    between atoms: C_30  and  O_31
REMARK                            x       y       z     vdW  Elec       q    Type
REMARK                         _______ _______ _______ _____ _____    ______ ____
ROOT
ATOM      1  C   UNL     1       7.320  14.682  18.636  0.00  0.00    +0.000 A 
ATOM      2  C   UNL     1       6.104  14.894  17.950  0.00  0.00    +0.000 A 
ATOM      3  C   UNL     1       4.979  15.493  18.565  0.00  0.00    +0.000 A 
ATOM      4  C   UNL     1       5.098  15.954  19.887  0.00  0.00    +0.000 A 
ATOM      5 CL   UNL     1       3.757  16.711  20.687  0.00  0.00    +0.000 Cl
ATOM      6  C   UNL     1       6.314  15.799  20.560  0.00  0.00    +0.000 A 
ATOM      7  C   UNL     1       7.413  15.170  19.952  0.00  0.00    +0.000 A 
ATOM      8  C   UNL     1       8.612  15.014  20.852  0.00  0.00    +0.000 C 
ATOM      9  C   UNL     1       8.372  15.741  22.176  0.00  0.00    +0.000 C 
ATOM     10  S   UNL     1       6.654  16.282  22.239  0.00  0.00    +0.000 S 
ENDROOT
BRANCH   1  13
ATOM     11  C   UNL     1       9.598  11.752  18.194  0.00  0.00    +0.000 C 
ATOM     12  O   UNL     1       8.627  12.626  18.798  0.00  0.00    +0.000 OA
ATOM     13  C   UNL     1       8.409  13.810  18.007  0.00  0.00    +0.000 C 
ATOM     14  C   UNL     1       9.721  14.621  17.839  0.00  0.00    +0.000 C 
ATOM     15  C   UNL     1      10.863  13.728  17.334  0.00  0.00    +0.000 C 
ATOM     16  C   UNL     1      10.980  12.443  18.162  0.00  0.00    +0.000 C 
BRANCH  14  17
ATOM     17  O   UNL     1       9.515  15.723  16.944  0.00  0.00    +0.000 OA
ATOM     18  H   UNL     1       8.577  15.746  16.687  0.00  0.00    +0.000 HD
ENDBRANCH  14  17
BRANCH  15  19
ATOM     19  O   UNL     1      12.090  14.480  17.340  0.00  0.00    +0.000 OA
ATOM     20  H   UNL     1      12.584  14.245  18.144  0.00  0.00    +0.000 HD
ENDBRANCH  15  19
BRANCH  16  21
ATOM     21  O   UNL     1      12.021  11.646  17.599  0.00  0.00    +0.000 OA
ATOM     22  H   UNL     1      12.297  12.044  16.749  0.00  0.00    +0.000 HD
ENDBRANCH  16  21
BRANCH  11  23
ATOM     23  C   UNL     1       9.650  10.411  18.940  0.00  0.00    +0.000 C 
BRANCH  23  24
ATOM     24  O   UNL     1       8.641   9.536  18.438  0.00  0.00    +0.000 OA
ATOM     25  H   UNL     1       7.779   9.924  18.678  0.00  0.00    +0.000 HD
ENDBRANCH  23  24
ENDBRANCH  11  23
ENDBRANCH   1  13
BRANCH   3  26
ATOM     26  C   UNL     1       3.668  15.559  17.804  0.00  0.00    +0.000 C 
BRANCH  26  27
ATOM     27  C   UNL     1       2.625  14.546  18.222  0.00  0.00    +0.000 A 
ATOM     28  C   UNL     1       2.886  13.169  18.149  0.00  0.00    +0.000 A 
ATOM     29  C   UNL     1       1.949  12.233  18.594  0.00  0.00    +0.000 A 
ATOM     30  C   UNL     1       0.711  12.625  19.116  0.00  0.00    +0.000 A 
ATOM     31  C   UNL     1       0.448  14.007  19.163  0.00  0.00    +0.000 A 
ATOM     32  C   UNL     1       1.385  14.950  18.725  0.00  0.00    +0.000 A 
BRANCH  30  33
ATOM     33  C   UNL     1      -0.336  11.632  19.568  0.00  0.00    +0.000 C 
ATOM     34  C   UNL     1      -0.052  10.156  19.704  0.00  0.00    +0.000 C 
ATOM     35  C   UNL     1      -0.179  11.002  20.943  0.00  0.00    +0.000 C 
ENDBRANCH  30  33
ENDBRANCH  26  27
ENDBRANCH   3  26
TORSDOF 9
ENDMDL
MODEL 8
REMARK VINA RESULT:      -6.5      8.589     11.600
REMARK  Name = 
REMARK  9 active torsions:
REMARK  status: ('A' for Active; 'I' for Inactive)
REMARK    1  A    between atoms: O_1  and  C_2
REMARK    2  A    between atoms: C_2  and  C_3
REMARK    3  A    between atoms: C_5  and  C_6
REMARK    4  A    between atoms: C_8  and  C_9
REMARK    5  A    between atoms: C_9  and  C_10
REMARK    6  A    between atoms: C_13  and  C_14
REMARK    7  A    between atoms: C_26  and  O_27
REMARK    8  A    between atoms: C_28  and  O_29
REMARK    9  A    between atoms: C_30  and  O_31
REMARK                            x       y       z     vdW  Elec       q    Type
REMARK                         _______ _______ _______ _____ _____    ______ ____
ROOT
ATOM      1  C   UNL     1       7.448  14.799  18.663  0.00  0.00    +0.000 A 
ATOM      2  C   UNL     1       6.237  15.040  17.980  0.00  0.00    +0.000 A 
ATOM      3  C   UNL     1       5.137  15.691  18.589  0.00  0.00    +0.000 A 
ATOM      4  C   UNL     1       5.280  16.174  19.900  0.00  0.00    +0.000 A 
ATOM      5 CL   UNL     1       3.971  16.994  20.691  0.00  0.00    +0.000 Cl
ATOM      6  C   UNL     1       6.494  15.991  20.569  0.00  0.00    +0.000 A 
ATOM      7  C   UNL     1       7.567  15.311  19.968  0.00  0.00    +0.000 A 
ATOM      8  C   UNL     1       8.765  15.132  20.864  0.00  0.00    +0.000 C 
ATOM      9  C   UNL     1       8.559  15.894  22.175  0.00  0.00    +0.000 C 
ATOM     10  S   UNL     1       6.861  16.496  22.236  0.00  0.00    +0.000 S 
ENDROOT
BRANCH   1  13
ATOM     11  C   UNL     1       9.629  11.788  18.277  0.00  0.00    +0.000 C 
ATOM     12  O   UNL     1       8.693  12.709  18.868  0.00  0.00    +0.000 OA
ATOM     13  C   UNL     1       8.502  13.877  18.047  0.00  0.00    +0.000 C 
ATOM     14  C   UNL     1       9.837  14.641  17.842  0.00  0.00    +0.000 C 
ATOM     15  C   UNL     1      10.945  13.700  17.349  0.00  0.00    +0.000 C 
ATOM     16  C   UNL     1      11.032  12.435  18.211  0.00  0.00    +0.000 C 
BRANCH  14  17
ATOM     17  O   UNL     1       9.655  15.726  16.920  0.00  0.00    +0.000 OA
ATOM     18  H   UNL     1       9.019  15.451  16.237  0.00  0.00    +0.000 HD
ENDBRANCH  14  17
BRANCH  15  19
ATOM     19  O   UNL     1      12.194  14.413  17.321  0.00  0.00    +0.000 OA
ATOM     20  H   UNL     1      12.021  15.337  17.571  0.00  0.00    +0.000 HD
ENDBRANCH  15  19
BRANCH  16  21
ATOM     21  O   UNL     1      12.040  11.590  17.659  0.00  0.00    +0.000 OA
ATOM     22  H   UNL     1      11.948  10.696  18.045  0.00  0.00    +0.000 HD
ENDBRANCH  16  21
BRANCH  11  23
ATOM     23  C   UNL     1       9.648  10.468  19.059  0.00  0.00    +0.000 C 
BRANCH  23  24
ATOM     24  O   UNL     1       9.400  10.717  20.442  0.00  0.00    +0.000 OA
ATOM     25  H   UNL     1       8.548  10.295  20.662  0.00  0.00    +0.000 HD
ENDBRANCH  23  24
ENDBRANCH  11  23
ENDBRANCH   1  13
BRANCH   3  26
ATOM     26  C   UNL     1       3.825  15.787  17.833  0.00  0.00    +0.000 C 
BRANCH  26  27
ATOM     27  C   UNL     1       2.766  14.786  18.245  0.00  0.00    +0.000 A 
ATOM     28  C   UNL     1       1.501  15.211  18.680  0.00  0.00    +0.000 A 
ATOM     29  C   UNL     1       0.502  14.289  19.001  0.00  0.00    +0.000 A 
ATOM     30  C   UNL     1       0.722  12.910  18.914  0.00  0.00    +0.000 A 
ATOM     31  C   UNL     1       2.000  12.492  18.500  0.00  0.00    +0.000 A 
ATOM     32  C   UNL     1       3.004  13.411  18.171  0.00  0.00    +0.000 A 
BRANCH  30  33
ATOM     33  C   UNL     1      -0.331  11.891  19.292  0.00  0.00    +0.000 C 
ATOM     34  C   UNL     1      -1.785  12.252  19.472  0.00  0.00    +0.000 C 
ATOM     35  C   UNL     1      -1.356  11.498  18.241  0.00  0.00    +0.000 C 
ENDBRANCH  30  33
ENDBRANCH  26  27
ENDBRANCH   3  26
TORSDOF 9
ENDMDL
MODEL 9
REMARK VINA RESULT:      -6.4      1.396      2.407
REMARK  Name = 
REMARK  9 active torsions:
REMARK  status: ('A' for Active; 'I' for Inactive)
REMARK    1  A    between atoms: O_1  and  C_2
REMARK    2  A    between atoms: C_2  and  C_3
REMARK    3  A    between atoms: C_5  and  C_6
REMARK    4  A    between atoms: C_8  and  C_9
REMARK    5  A    between atoms: C_9  and  C_10
REMARK    6  A    between atoms: C_13  and  C_14
REMARK    7  A    between atoms: C_26  and  O_27
REMARK    8  A    between atoms: C_28  and  O_29
REMARK    9  A    between atoms: C_30  and  O_31
REMARK                            x       y       z     vdW  Elec       q    Type
REMARK                         _______ _______ _______ _____ _____    ______ ____
ROOT
ATOM      1  C   UNL     1      -2.645  12.971  20.363  0.00  0.00    +0.000 A 
ATOM      2  C   UNL     1      -1.315  12.803  19.922  0.00  0.00    +0.000 A 
ATOM      3  C   UNL     1      -0.967  11.915  18.875  0.00  0.00    +0.000 A 
ATOM      4  C   UNL     1      -1.992  11.225  18.208  0.00  0.00    +0.000 A 
ATOM      5 CL   UNL     1      -1.627  10.136  16.907  0.00  0.00    +0.000 Cl
ATOM      6  C   UNL     1      -3.320  11.424  18.599  0.00  0.00    +0.000 A 
ATOM      7  C   UNL     1      -3.650  12.280  19.662  0.00  0.00    +0.000 A 
ATOM      8  C   UNL     1      -5.118  12.308  20.001  0.00  0.00    +0.000 C 
ATOM      9  C   UNL     1      -5.910  11.499  18.972  0.00  0.00    +0.000 C 
ATOM     10  S   UNL     1      -4.750  10.622  17.906  0.00  0.00    +0.000 S 
ENDROOT
BRANCH   1  13
ATOM     11  C   UNL     1      -3.732  15.806  22.543  0.00  0.00    +0.000 C 
ATOM     12  O   UNL     1      -3.389  15.076  21.350  0.00  0.00    +0.000 OA
ATOM     13  C   UNL     1      -2.930  13.745  21.652  0.00  0.00    +0.000 C 
ATOM     14  C   UNL     1      -1.668  13.779  22.553  0.00  0.00    +0.000 C 
ATOM     15  C   UNL     1      -1.892  14.662  23.788  0.00  0.00    +0.000 C 
ATOM     16  C   UNL     1      -2.469  16.030  23.404  0.00  0.00    +0.000 C 
BRANCH  14  17
ATOM     17  O   UNL     1      -1.301  12.449  22.949  0.00  0.00    +0.000 OA
ATOM     18  H   UNL     1      -2.059  12.037  23.398  0.00  0.00    +0.000 HD
ENDBRANCH  14  17
BRANCH  15  19
ATOM     19  O   UNL     1      -0.655  14.789  24.512  0.00  0.00    +0.000 OA
ATOM     20  H   UNL     1       0.077  14.692  23.878  0.00  0.00    +0.000 HD
ENDBRANCH  15  19
BRANCH  16  21
ATOM     21  O   UNL     1      -2.700  16.766  24.604  0.00  0.00    +0.000 OA
ATOM     22  H   UNL     1      -3.666  16.871  24.727  0.00  0.00    +0.000 HD
ENDBRANCH  16  21
BRANCH  11  23
ATOM     23  C   UNL     1      -4.417  17.131  22.183  0.00  0.00    +0.000 C 
BRANCH  23  24
ATOM     24  O   UNL     1      -3.433  18.126  21.901  0.00  0.00    +0.000 OA
ATOM     25  H   UNL     1      -3.009  17.881  21.058  0.00  0.00    +0.000 HD
ENDBRANCH  23  24
ENDBRANCH  11  23
ENDBRANCH   1  13
BRANCH   3  26
ATOM     26  C   UNL     1       0.498  11.689  18.554  0.00  0.00    +0.000 C 
BRANCH  26  27
ATOM     27  C   UNL     1       1.040  10.326  18.928  0.00  0.00    +0.000 A 
ATOM     28  C   UNL     1       0.827   9.791  20.208  0.00  0.00    +0.000 A 
ATOM     29  C   UNL     1       1.272   8.508  20.536  0.00  0.00    +0.000 A 
ATOM     30  C   UNL     1       1.956   7.709  19.611  0.00  0.00    +0.000 A 
ATOM     31  C   UNL     1       2.186   8.263  18.338  0.00  0.00    +0.000 A 
ATOM     32  C   UNL     1       1.737   9.546  18.001  0.00  0.00    +0.000 A 
BRANCH  30  33
ATOM     33  C   UNL     1       2.480   6.333  19.953  0.00  0.00    +0.000 C 
ATOM     34  C   UNL     1       1.605   5.250  20.536  0.00  0.00    +0.000 C 
ATOM     35  C   UNL     1       2.031   5.162  19.094  0.00  0.00    +0.000 C 
ENDBRANCH  30  33
ENDBRANCH  26  27
ENDBRANCH   3  26
TORSDOF 9
ENDMDL
