MODEL 1
REMARK VINA RESULT:      -6.9      0.000      0.000
REMARK  Name = 
REMARK  9 active torsions:
REMARK  status: ('A' for Active; 'I' for Inactive)
REMARK    1  A    between atoms: C_1  and  C_2
REMARK    2  A    between atoms: C_2  and  C_3
REMARK    3  A    between atoms: C_2  and  N_13
REMARK    4  A    between atoms: C_7  and  S_8
REMARK    5  A    between atoms: S_8  and  N_9
REMARK    6  A    between atoms: N_13  and  C_14
REMARK    7  A    between atoms: N_13  and  C_15
REMARK    8  A    between atoms: C_15  and  C_16
REMARK    9  A    between atoms: C_16  and  C_17
REMARK                            x       y       z     vdW  Elec       q    Type
REMARK                         _______ _______ _______ _____ _____    ______ ____
ROOT
ATOM      1  C   UNL     1       2.333   8.212  17.879  0.00  0.00    +0.000 C 
ATOM      2  C   UNL     1       2.323   6.800  18.495  0.00  0.00    +0.000 C 
ENDROOT
BRANCH   2   3
ATOM      3  C   UNL     1       3.477   5.935  17.965  0.00  0.00    +0.000 A 
ATOM      4  C   UNL     1       3.226   4.883  17.069  0.00  0.00    +0.000 A 
ATOM      5  C   UNL     1       4.269   4.081  16.583  0.00  0.00    +0.000 A 
ATOM      6  C   UNL     1       5.575   4.288  17.025  0.00  0.00    +0.000 A 
ATOM      7  C   UNL     1       5.834   5.318  17.928  0.00  0.00    +0.000 A 
ATOM      8  C   UNL     1       4.805   6.153  18.371  0.00  0.00    +0.000 A 
BRANCH   7   9
ATOM      9  S   UNL     1       7.443   5.491  18.637  0.00  0.00    +0.000 S 
ATOM     10  O   UNL     1       8.056   6.709  18.164  0.00  0.00    +0.000 OA
ATOM     11  O   UNL     1       7.378   5.150  20.044  0.00  0.00    +0.000 OA
BRANCH   9  12
ATOM     12  N   UNL     1       8.290   4.243  17.900  0.00  0.00    +0.000 NA
ATOM     13  H   UNL     1       8.844   4.616  17.129  0.00  0.00    +0.000 HD
ATOM     14  H   UNL     1       8.837   3.745  18.600  0.00  0.00    +0.000 HD
ENDBRANCH   9  12
ENDBRANCH   7   9
ENDBRANCH   2   3
BRANCH   2  15
ATOM     15  N   UNL     1       2.216   6.788  19.981  0.00  0.00    +0.000 NA
ATOM     16  C   UNL     1       1.673   8.042  20.524  0.00  0.00    +0.000 C 
BRANCH  15  17
ATOM     17  C   UNL     1       1.404   5.657  20.504  0.00  0.00    +0.000 C 
BRANCH  17  18
ATOM     18  C   UNL     1       2.212   4.565  21.229  0.00  0.00    +0.000 C 
BRANCH  18  19
ATOM     19  C   UNL     1       2.607   3.425  20.318  0.00  0.00    +0.000 A 
ATOM     20  C   UNL     1       3.932   2.962  20.310  0.00  0.00    +0.000 A 
ATOM     21  C   UNL     1       4.314   1.907  19.481  0.00  0.00    +0.000 A 
ATOM     22  C   UNL     1       3.376   1.307  18.646  0.00  0.00    +0.000 A 
ATOM     23  C   UNL     1       2.057   1.758  18.643  0.00  0.00    +0.000 A 
ATOM     24  C   UNL     1       1.672   2.812  19.474  0.00  0.00    +0.000 A 
ENDBRANCH  18  19
ENDBRANCH  17  18
ENDBRANCH  15  17
ENDBRANCH   2  15
TORSDOF 7
ENDMDL
MODEL 2
REMARK VINA RESULT:      -6.6      1.860      2.400
REMARK  Name = 
REMARK  9 active torsions:
REMARK  status: ('A' for Active; 'I' for Inactive)
REMARK    1  A    between atoms: C_1  and  C_2
REMARK    2  A    between atoms: C_2  and  C_3
REMARK    3  A    between atoms: C_2  and  N_13
REMARK    4  A    between atoms: C_7  and  S_8
REMARK    5  A    between atoms: S_8  and  N_9
REMARK    6  A    between atoms: N_13  and  C_14
REMARK    7  A    between atoms: N_13  and  C_15
REMARK    8  A    between atoms: C_15  and  C_16
REMARK    9  A    between atoms: C_16  and  C_17
REMARK                            x       y       z     vdW  Elec       q    Type
REMARK                         _______ _______ _______ _____ _____    ______ ____
ROOT
ATOM      1  C   UNL     1       2.416   7.967  18.045  0.00  0.00    +0.000 C 
ATOM      2  C   UNL     1       2.557   6.551  18.635  0.00  0.00    +0.000 C 
ENDROOT
BRANCH   2   3
ATOM      3  C   UNL     1       3.948   5.956  18.371  0.00  0.00    +0.000 A 
ATOM      4  C   UNL     1       4.821   5.683  19.438  0.00  0.00    +0.000 A 
ATOM      5  C   UNL     1       6.097   5.147  19.211  0.00  0.00    +0.000 A 
ATOM      6  C   UNL     1       6.539   4.920  17.909  0.00  0.00    +0.000 A 
ATOM      7  C   UNL     1       5.690   5.205  16.841  0.00  0.00    +0.000 A 
ATOM      8  C   UNL     1       4.398   5.687  17.067  0.00  0.00    +0.000 A 
BRANCH   7   9
ATOM      9  S   UNL     1       6.284   5.094  15.181  0.00  0.00    +0.000 S 
ATOM     10  O   UNL     1       5.441   5.875  14.307  0.00  0.00    +0.000 OA
ATOM     11  O   UNL     1       7.727   5.224  15.187  0.00  0.00    +0.000 OA
BRANCH   9  12
ATOM     12  N   UNL     1       5.969   3.490  14.798  0.00  0.00    +0.000 NA
ATOM     13  H   UNL     1       6.716   2.900  15.165  0.00  0.00    +0.000 HD
ATOM     14  H   UNL     1       5.040   3.239  15.131  0.00  0.00    +0.000 HD
ENDBRANCH   9  12
ENDBRANCH   7   9
ENDBRANCH   2   3
BRANCH   2  15
ATOM     15  N   UNL     1       2.133   6.442  20.059  0.00  0.00    +0.000 NA
ATOM     16  C   UNL     1       1.719   7.733  20.631  0.00  0.00    +0.000 C 
BRANCH  15  17
ATOM     17  C   UNL     1       1.040   5.458  20.275  0.00  0.00    +0.000 C 
BRANCH  17  18
ATOM     18  C   UNL     1       1.490   4.121  20.893  0.00  0.00    +0.000 C 
BRANCH  18  19
ATOM     19  C   UNL     1       2.244   3.248  19.916  0.00  0.00    +0.000 A 
ATOM     20  C   UNL     1       1.729   3.034  18.627  0.00  0.00    +0.000 A 
ATOM     21  C   UNL     1       2.413   2.237  17.710  0.00  0.00    +0.000 A 
ATOM     22  C   UNL     1       3.618   1.640  18.072  0.00  0.00    +0.000 A 
ATOM     23  C   UNL     1       4.138   1.843  19.349  0.00  0.00    +0.000 A 
ATOM     24  C   UNL     1       3.457   2.643  20.268  0.00  0.00    +0.000 A 
ENDBRANCH  18  19
ENDBRANCH  17  18
ENDBRANCH  15  17
ENDBRANCH   2  15
TORSDOF 7
ENDMDL
MODEL 3
REMARK VINA RESULT:      -6.3      1.967      2.255
REMARK  Name = 
REMARK  9 active torsions:
REMARK  status: ('A' for Active; 'I' for Inactive)
REMARK    1  A    between atoms: C_1  and  C_2
REMARK    2  A    between atoms: C_2  and  C_3
REMARK    3  A    between atoms: C_2  and  N_13
REMARK    4  A    between atoms: C_7  and  S_8
REMARK    5  A    between atoms: S_8  and  N_9
REMARK    6  A    between atoms: N_13  and  C_14
REMARK    7  A    between atoms: N_13  and  C_15
REMARK    8  A    between atoms: C_15  and  C_16
REMARK    9  A    between atoms: C_16  and  C_17
REMARK                            x       y       z     vdW  Elec       q    Type
REMARK                         _______ _______ _______ _____ _____    ______ ____
ROOT
ATOM      1  C   UNL     1       2.195   7.614  18.118  0.00  0.00    +0.000 C 
ATOM      2  C   UNL     1       2.425   6.199  18.682  0.00  0.00    +0.000 C 
ENDROOT
BRANCH   2   3
ATOM      3  C   UNL     1       3.868   5.723  18.463  0.00  0.00    +0.000 A 
ATOM      4  C   UNL     1       4.730   5.532  19.556  0.00  0.00    +0.000 A 
ATOM      5  C   UNL     1       6.053   5.105  19.370  0.00  0.00    +0.000 A 
ATOM      6  C   UNL     1       6.550   4.908  18.083  0.00  0.00    +0.000 A 
ATOM      7  C   UNL     1       5.711   5.111  16.989  0.00  0.00    +0.000 A 
ATOM      8  C   UNL     1       4.377   5.484  17.174  0.00  0.00    +0.000 A 
BRANCH   7   9
ATOM      9  S   UNL     1       6.360   5.040  15.347  0.00  0.00    +0.000 S 
ATOM     10  O   UNL     1       7.663   5.660  15.310  0.00  0.00    +0.000 OA
ATOM     11  O   UNL     1       6.112   3.722  14.798  0.00  0.00    +0.000 OA
BRANCH   9  12
ATOM     12  N   UNL     1       5.339   6.083  14.518  0.00  0.00    +0.000 NA
ATOM     13  H   UNL     1       5.389   5.885  13.519  0.00  0.00    +0.000 HD
ATOM     14  H   UNL     1       4.400   6.019  14.907  0.00  0.00    +0.000 HD
ENDBRANCH   9  12
ENDBRANCH   7   9
ENDBRANCH   2   3
BRANCH   2  15
ATOM     15  N   UNL     1       1.955   6.021  20.084  0.00  0.00    +0.000 NA
ATOM     16  C   UNL     1       1.586   7.290  20.728  0.00  0.00    +0.000 C 
BRANCH  15  17
ATOM     17  C   UNL     1       0.811   5.079  20.207  0.00  0.00    +0.000 C 
BRANCH  17  18
ATOM     18  C   UNL     1       1.174   3.694  20.775  0.00  0.00    +0.000 C 
BRANCH  18  19
ATOM     19  C   UNL     1       2.139   2.934  19.893  0.00  0.00    +0.000 A 
ATOM     20  C   UNL     1       3.371   2.504  20.412  0.00  0.00    +0.000 A 
ATOM     21  C   UNL     1       4.272   1.796  19.616  0.00  0.00    +0.000 A 
ATOM     22  C   UNL     1       3.953   1.514  18.291  0.00  0.00    +0.000 A 
ATOM     23  C   UNL     1       2.733   1.935  17.764  0.00  0.00    +0.000 A 
ATOM     24  C   UNL     1       1.829   2.642  18.559  0.00  0.00    +0.000 A 
ENDBRANCH  18  19
ENDBRANCH  17  18
ENDBRANCH  15  17
ENDBRANCH   2  15
TORSDOF 7
ENDMDL
MODEL 4
REMARK VINA RESULT:      -6.3      2.011      2.492
REMARK  Name = 
REMARK  9 active torsions:
REMARK  status: ('A' for Active; 'I' for Inactive)
REMARK    1  A    between atoms: C_1  and  C_2
REMARK    2  A    between atoms: C_2  and  C_3
REMARK    3  A    between atoms: C_2  and  N_13
REMARK    4  A    between atoms: C_7  and  S_8
REMARK    5  A    between atoms: S_8  and  N_9
REMARK    6  A    between atoms: N_13  and  C_14
REMARK    7  A    between atoms: N_13  and  C_15
REMARK    8  A    between atoms: C_15  and  C_16
REMARK    9  A    between atoms: C_16  and  C_17
REMARK                            x       y       z     vdW  Elec       q    Type
REMARK                         _______ _______ _______ _____ _____    ______ ____
ROOT
ATOM      1  C   UNL     1       2.265   7.555  18.116  0.00  0.00    +0.000 C 
ATOM      2  C   UNL     1       2.498   6.150  18.705  0.00  0.00    +0.000 C 
ENDROOT
BRANCH   2   3
ATOM      3  C   UNL     1       3.935   5.663  18.472  0.00  0.00    +0.000 A 
ATOM      4  C   UNL     1       4.838   5.564  19.543  0.00  0.00    +0.000 A 
ATOM      5  C   UNL     1       6.156   5.127  19.343  0.00  0.00    +0.000 A 
ATOM      6  C   UNL     1       6.607   4.828  18.058  0.00  0.00    +0.000 A 
ATOM      7  C   UNL     1       5.725   4.939  16.984  0.00  0.00    +0.000 A 
ATOM      8  C   UNL     1       4.397   5.322  17.188  0.00  0.00    +0.000 A 
BRANCH   7   9
ATOM      9  S   UNL     1       6.314   4.737  15.330  0.00  0.00    +0.000 S 
ATOM     10  O   UNL     1       7.732   4.999  15.281  0.00  0.00    +0.000 OA
ATOM     11  O   UNL     1       5.725   3.542  14.762  0.00  0.00    +0.000 OA
BRANCH   9  12
ATOM     12  N   UNL     1       5.589   6.028  14.537  0.00  0.00    +0.000 NA
ATOM     13  H   UNL     1       5.570   5.844  13.534  0.00  0.00    +0.000 HD
ATOM     14  H   UNL     1       4.672   6.204  14.944  0.00  0.00    +0.000 HD
ENDBRANCH   9  12
ENDBRANCH   7   9
ENDBRANCH   2   3
BRANCH   2  15
ATOM     15  N   UNL     1       2.052   6.004  20.119  0.00  0.00    +0.000 NA
ATOM     16  C   UNL     1       1.792   7.296  20.772  0.00  0.00    +0.000 C 
BRANCH  15  17
ATOM     17  C   UNL     1       0.846   5.148  20.271  0.00  0.00    +0.000 C 
BRANCH  17  18
ATOM     18  C   UNL     1       1.133   3.710  20.746  0.00  0.00    +0.000 C 
BRANCH  18  19
ATOM     19  C   UNL     1       2.079   2.968  19.830  0.00  0.00    +0.000 A 
ATOM     20  C   UNL     1       1.703   2.697  18.505  0.00  0.00    +0.000 A 
ATOM     21  C   UNL     1       2.565   2.019  17.643  0.00  0.00    +0.000 A 
ATOM     22  C   UNL     1       3.812   1.600  18.098  0.00  0.00    +0.000 A 
ATOM     23  C   UNL     1       4.198   1.862  19.412  0.00  0.00    +0.000 A 
ATOM     24  C   UNL     1       3.337   2.543  20.275  0.00  0.00    +0.000 A 
ENDBRANCH  18  19
ENDBRANCH  17  18
ENDBRANCH  15  17
ENDBRANCH   2  15
TORSDOF 7
ENDMDL
MODEL 5
REMARK VINA RESULT:      -6.3      2.243      4.606
REMARK  Name = 
REMARK  9 active torsions:
REMARK  status: ('A' for Active; 'I' for Inactive)
REMARK    1  A    between atoms: C_1  and  C_2
REMARK    2  A    between atoms: C_2  and  C_3
REMARK    3  A    between atoms: C_2  and  N_13
REMARK    4  A    between atoms: C_7  and  S_8
REMARK    5  A    between atoms: S_8  and  N_9
REMARK    6  A    between atoms: N_13  and  C_14
REMARK    7  A    between atoms: N_13  and  C_15
REMARK    8  A    between atoms: C_15  and  C_16
REMARK    9  A    between atoms: C_16  and  C_17
REMARK                            x       y       z     vdW  Elec       q    Type
REMARK                         _______ _______ _______ _____ _____    ______ ____
ROOT
ATOM      1  C   UNL     1       3.394   1.739  18.910  0.00  0.00    +0.000 C 
ATOM      2  C   UNL     1       3.318   3.232  19.281  0.00  0.00    +0.000 C 
ENDROOT
BRANCH   2   3
ATOM      3  C   UNL     1       4.504   4.025  18.714  0.00  0.00    +0.000 A 
ATOM      4  C   UNL     1       5.445   4.615  19.574  0.00  0.00    +0.000 A 
ATOM      5  C   UNL     1       6.529   5.347  19.069  0.00  0.00    +0.000 A 
ATOM      6  C   UNL     1       6.663   5.543  17.696  0.00  0.00    +0.000 A 
ATOM      7  C   UNL     1       5.726   4.979  16.833  0.00  0.00    +0.000 A 
ATOM      8  C   UNL     1       4.676   4.202  17.330  0.00  0.00    +0.000 A 
BRANCH   7   9
ATOM      9  S   UNL     1       5.770   5.355  15.107  0.00  0.00    +0.000 S 
ATOM     10  O   UNL     1       5.323   4.213  14.347  0.00  0.00    +0.000 OA
ATOM     11  O   UNL     1       5.233   6.685  14.900  0.00  0.00    +0.000 OA
BRANCH   9  12
ATOM     12  N   UNL     1       7.419   5.475  14.814  0.00  0.00    +0.000 NA
ATOM     13  H   UNL     1       7.706   4.733  14.176  0.00  0.00    +0.000 HD
ATOM     14  H   UNL     1       7.637   6.413  14.483  0.00  0.00    +0.000 HD
ENDBRANCH   9  12
ENDBRANCH   7   9
ENDBRANCH   2   3
BRANCH   2  15
ATOM     15  N   UNL     1       1.999   3.863  18.992  0.00  0.00    +0.000 NA
ATOM     16  C   UNL     1       0.995   2.896  18.521  0.00  0.00    +0.000 C 
BRANCH  15  17
ATOM     17  C   UNL     1       1.433   4.604  20.150  0.00  0.00    +0.000 C 
BRANCH  17  18
ATOM     18  C   UNL     1       2.297   5.778  20.648  0.00  0.00    +0.000 C 
BRANCH  18  19
ATOM     19  C   UNL     1       2.106   7.035  19.831  0.00  0.00    +0.000 A 
ATOM     20  C   UNL     1       2.643   7.117  18.536  0.00  0.00    +0.000 A 
ATOM     21  C   UNL     1       2.471   8.267  17.765  0.00  0.00    +0.000 A 
ATOM     22  C   UNL     1       1.764   9.349  18.280  0.00  0.00    +0.000 A 
ATOM     23  C   UNL     1       1.227   9.281  19.565  0.00  0.00    +0.000 A 
ATOM     24  C   UNL     1       1.395   8.130  20.338  0.00  0.00    +0.000 A 
ENDBRANCH  18  19
ENDBRANCH  17  18
ENDBRANCH  15  17
ENDBRANCH   2  15
TORSDOF 7
ENDMDL
MODEL 6
REMARK VINA RESULT:      -6.3      1.399      4.172
REMARK  Name = 
REMARK  9 active torsions:
REMARK  status: ('A' for Active; 'I' for Inactive)
REMARK    1  A    between atoms: C_1  and  C_2
REMARK    2  A    between atoms: C_2  and  C_3
REMARK    3  A    between atoms: C_2  and  N_13
REMARK    4  A    between atoms: C_7  and  S_8
REMARK    5  A    between atoms: S_8  and  N_9
REMARK    6  A    between atoms: N_13  and  C_14
REMARK    7  A    between atoms: N_13  and  C_15
REMARK    8  A    between atoms: C_15  and  C_16
REMARK    9  A    between atoms: C_16  and  C_17
REMARK                            x       y       z     vdW  Elec       q    Type
REMARK                         _______ _______ _______ _____ _____    ______ ____
ROOT
ATOM      1  C   UNL     1       3.047   1.899  19.876  0.00  0.00    +0.000 C 
ATOM      2  C   UNL     1       2.963   3.419  19.638  0.00  0.00    +0.000 C 
ENDROOT
BRANCH   2   3
ATOM      3  C   UNL     1       3.921   3.880  18.530  0.00  0.00    +0.000 A 
ATOM      4  C   UNL     1       3.567   3.738  17.177  0.00  0.00    +0.000 A 
ATOM      5  C   UNL     1       4.436   4.148  16.155  0.00  0.00    +0.000 A 
ATOM      6  C   UNL     1       5.693   4.661  16.468  0.00  0.00    +0.000 A 
ATOM      7  C   UNL     1       6.063   4.790  17.806  0.00  0.00    +0.000 A 
ATOM      8  C   UNL     1       5.178   4.434  18.827  0.00  0.00    +0.000 A 
BRANCH   7   9
ATOM      9  S   UNL     1       7.709   5.271  18.228  0.00  0.00    +0.000 S 
ATOM     10  O   UNL     1       8.613   4.167  18.005  0.00  0.00    +0.000 OA
ATOM     11  O   UNL     1       7.962   6.598  17.706  0.00  0.00    +0.000 OA
BRANCH   9  12
ATOM     12  N   UNL     1       7.610   5.443  19.895  0.00  0.00    +0.000 NA
ATOM     13  H   UNL     1       7.480   4.528  20.325  0.00  0.00    +0.000 HD
ATOM     14  H   UNL     1       8.428   5.947  20.233  0.00  0.00    +0.000 HD
ENDBRANCH   9  12
ENDBRANCH   7   9
ENDBRANCH   2   3
BRANCH   2  15
ATOM     15  N   UNL     1       1.574   3.930  19.463  0.00  0.00    +0.000 NA
ATOM     16  C   UNL     1       0.570   2.856  19.445  0.00  0.00    +0.000 C 
BRANCH  15  17
ATOM     17  C   UNL     1       1.179   4.928  20.491  0.00  0.00    +0.000 C 
BRANCH  17  18
ATOM     18  C   UNL     1       2.219   6.036  20.747  0.00  0.00    +0.000 C 
BRANCH  18  19
ATOM     19  C   UNL     1       2.045   7.226  19.831  0.00  0.00    +0.000 A 
ATOM     20  C   UNL     1       1.323   8.348  20.270  0.00  0.00    +0.000 A 
ATOM     21  C   UNL     1       1.157   9.458  19.443  0.00  0.00    +0.000 A 
ATOM     22  C   UNL     1       1.707   9.458  18.164  0.00  0.00    +0.000 A 
ATOM     23  C   UNL     1       2.425   8.351  17.715  0.00  0.00    +0.000 A 
ATOM     24  C   UNL     1       2.595   7.239  18.543  0.00  0.00    +0.000 A 
ENDBRANCH  18  19
ENDBRANCH  17  18
ENDBRANCH  15  17
ENDBRANCH   2  15
TORSDOF 7
ENDMDL
MODEL 7
REMARK VINA RESULT:      -6.0      2.365      4.946
REMARK  Name = 
REMARK  9 active torsions:
REMARK  status: ('A' for Active; 'I' for Inactive)
REMARK    1  A    between atoms: C_1  and  C_2
REMARK    2  A    between atoms: C_2  and  C_3
REMARK    3  A    between atoms: C_2  and  N_13
REMARK    4  A    between atoms: C_7  and  S_8
REMARK    5  A    between atoms: S_8  and  N_9
REMARK    6  A    between atoms: N_13  and  C_14
REMARK    7  A    between atoms: N_13  and  C_15
REMARK    8  A    between atoms: C_15  and  C_16
REMARK    9  A    between atoms: C_16  and  C_17
REMARK                            x       y       z     vdW  Elec       q    Type
REMARK                         _______ _______ _______ _____ _____    ______ ____
ROOT
ATOM      1  C   UNL     1       4.218   2.429  20.033  0.00  0.00    +0.000 C 
ATOM      2  C   UNL     1       3.917   3.811  19.421  0.00  0.00    +0.000 C 
ENDROOT
BRANCH   2   3
ATOM      3  C   UNL     1       5.157   4.427  18.757  0.00  0.00    +0.000 A 
ATOM      4  C   UNL     1       6.074   5.174  19.515  0.00  0.00    +0.000 A 
ATOM      5  C   UNL     1       7.207   5.749  18.920  0.00  0.00    +0.000 A 
ATOM      6  C   UNL     1       7.416   5.625  17.547  0.00  0.00    +0.000 A 
ATOM      7  C   UNL     1       6.503   4.901  16.782  0.00  0.00    +0.000 A 
ATOM      8  C   UNL     1       5.403   4.281  17.381  0.00  0.00    +0.000 A 
BRANCH   7   9
ATOM      9  S   UNL     1       6.647   4.875  15.021  0.00  0.00    +0.000 S 
ATOM     10  O   UNL     1       7.895   5.481  14.624  0.00  0.00    +0.000 OA
ATOM     11  O   UNL     1       6.223   3.579  14.532  0.00  0.00    +0.000 OA
BRANCH   9  12
ATOM     12  N   UNL     1       5.450   5.956  14.554  0.00  0.00    +0.000 NA
ATOM     13  H   UNL     1       5.609   6.242  13.587  0.00  0.00    +0.000 HD
ATOM     14  H   UNL     1       4.535   5.541  14.719  0.00  0.00    +0.000 HD
ENDBRANCH   9  12
ENDBRANCH   7   9
ENDBRANCH   2   3
BRANCH   2  15
ATOM     15  N   UNL     1       2.710   3.836  18.547  0.00  0.00    +0.000 NA
ATOM     16  C   UNL     1       1.716   2.817  18.916  0.00  0.00    +0.000 C 
BRANCH  15  17
ATOM     17  C   UNL     1       2.036   5.161  18.511  0.00  0.00    +0.000 C 
BRANCH  17  18
ATOM     18  C   UNL     1       2.511   6.155  19.588  0.00  0.00    +0.000 C 
BRANCH  18  19
ATOM     19  C   UNL     1       2.052   7.571  19.323  0.00  0.00    +0.000 A 
ATOM     20  C   UNL     1       1.398   8.295  20.332  0.00  0.00    +0.000 A 
ATOM     21  C   UNL     1       0.973   9.604  20.109  0.00  0.00    +0.000 A 
ATOM     22  C   UNL     1       1.192  10.204  18.872  0.00  0.00    +0.000 A 
ATOM     23  C   UNL     1       1.839   9.495  17.860  0.00  0.00    +0.000 A 
ATOM     24  C   UNL     1       2.268   8.184  18.083  0.00  0.00    +0.000 A 
ENDBRANCH  18  19
ENDBRANCH  17  18
ENDBRANCH  15  17
ENDBRANCH   2  15
TORSDOF 7
ENDMDL
MODEL 8
REMARK VINA RESULT:      -5.9      1.214      4.019
REMARK  Name = 
REMARK  9 active torsions:
REMARK  status: ('A' for Active; 'I' for Inactive)
REMARK    1  A    between atoms: C_1  and  C_2
REMARK    2  A    between atoms: C_2  and  C_3
REMARK    3  A    between atoms: C_2  and  N_13
REMARK    4  A    between atoms: C_7  and  S_8
REMARK    5  A    between atoms: S_8  and  N_9
REMARK    6  A    between atoms: N_13  and  C_14
REMARK    7  A    between atoms: N_13  and  C_15
REMARK    8  A    between atoms: C_15  and  C_16
REMARK    9  A    between atoms: C_16  and  C_17
REMARK                            x       y       z     vdW  Elec       q    Type
REMARK                         _______ _______ _______ _____ _____    ______ ____
ROOT
ATOM      1  C   UNL     1       1.976   2.035  18.396  0.00  0.00    +0.000 C 
ATOM      2  C   UNL     1       2.698   3.208  19.086  0.00  0.00    +0.000 C 
ENDROOT
BRANCH   2   3
ATOM      3  C   UNL     1       3.763   3.840  18.177  0.00  0.00    +0.000 A 
ATOM      4  C   UNL     1       3.596   3.849  16.783  0.00  0.00    +0.000 A 
ATOM      5  C   UNL     1       4.564   4.416  15.941  0.00  0.00    +0.000 A 
ATOM      6  C   UNL     1       5.739   4.939  16.478  0.00  0.00    +0.000 A 
ATOM      7  C   UNL     1       5.924   4.919  17.859  0.00  0.00    +0.000 A 
ATOM      8  C   UNL     1       4.937   4.405  18.704  0.00  0.00    +0.000 A 
BRANCH   7   9
ATOM      9  S   UNL     1       7.472   5.413  18.553  0.00  0.00    +0.000 S 
ATOM     10  O   UNL     1       7.932   6.621  17.910  0.00  0.00    +0.000 OA
ATOM     11  O   UNL     1       7.409   5.277  19.994  0.00  0.00    +0.000 OA
BRANCH   9  12
ATOM     12  N   UNL     1       8.502   4.199  18.021  0.00  0.00    +0.000 NA
ATOM     13  H   UNL     1       8.762   3.604  18.808  0.00  0.00    +0.000 HD
ATOM     14  H   UNL     1       8.065   3.698  17.249  0.00  0.00    +0.000 HD
ENDBRANCH   9  12
ENDBRANCH   7   9
ENDBRANCH   2   3
BRANCH   2  15
ATOM     15  N   UNL     1       1.779   4.211  19.697  0.00  0.00    +0.000 NA
ATOM     16  C   UNL     1       0.708   3.592  20.492  0.00  0.00    +0.000 C 
BRANCH  15  17
ATOM     17  C   UNL     1       2.479   5.211  20.544  0.00  0.00    +0.000 C 
BRANCH  17  18
ATOM     18  C   UNL     1       1.649   6.464  20.881  0.00  0.00    +0.000 C 
BRANCH  18  19
ATOM     19  C   UNL     1       1.772   7.548  19.833  0.00  0.00    +0.000 A 
ATOM     20  C   UNL     1       2.530   7.318  18.674  0.00  0.00    +0.000 A 
ATOM     21  C   UNL     1       2.650   8.303  17.694  0.00  0.00    +0.000 A 
ATOM     22  C   UNL     1       2.018   9.531  17.863  0.00  0.00    +0.000 A 
ATOM     23  C   UNL     1       1.263   9.772  19.010  0.00  0.00    +0.000 A 
ATOM     24  C   UNL     1       1.139   8.787  19.992  0.00  0.00    +0.000 A 
ENDBRANCH  18  19
ENDBRANCH  17  18
ENDBRANCH  15  17
ENDBRANCH   2  15
TORSDOF 7
ENDMDL
MODEL 9
REMARK VINA RESULT:      -5.9      4.682      7.363
REMARK  Name = 
REMARK  9 active torsions:
REMARK  status: ('A' for Active; 'I' for Inactive)
REMARK    1  A    between atoms: C_1  and  C_2
REMARK    2  A    between atoms: C_2  and  C_3
REMARK    3  A    between atoms: C_2  and  N_13
REMARK    4  A    between atoms: C_7  and  S_8
REMARK    5  A    between atoms: S_8  and  N_9
REMARK    6  A    between atoms: N_13  and  C_14
REMARK    7  A    between atoms: N_13  and  C_15
REMARK    8  A    between atoms: C_15  and  C_16
REMARK    9  A    between atoms: C_16  and  C_17
REMARK                            x       y       z     vdW  Elec       q    Type
REMARK                         _______ _______ _______ _____ _____    ______ ____
ROOT
ATOM      1  C   UNL     1       7.107   5.218  16.425  0.00  0.00    +0.000 C 
ATOM      2  C   UNL     1       6.387   6.323  17.221  0.00  0.00    +0.000 C 
ENDROOT
BRANCH   2   3
ATOM      3  C   UNL     1       5.015   5.860  17.731  0.00  0.00    +0.000 A 
ATOM      4  C   UNL     1       3.919   6.738  17.726  0.00  0.00    +0.000 A 
ATOM      5  C   UNL     1       2.661   6.330  18.196  0.00  0.00    +0.000 A 
ATOM      6  C   UNL     1       2.493   5.051  18.724  0.00  0.00    +0.000 A 
ATOM      7  C   UNL     1       3.578   4.177  18.751  0.00  0.00    +0.000 A 
ATOM      8  C   UNL     1       4.817   4.562  18.234  0.00  0.00    +0.000 A 
BRANCH   7   9
ATOM      9  S   UNL     1       3.439   2.618  19.571  0.00  0.00    +0.000 S 
ATOM     10  O   UNL     1       4.728   2.221  20.085  0.00  0.00    +0.000 OA
ATOM     11  O   UNL     1       2.244   2.620  20.391  0.00  0.00    +0.000 OA
BRANCH   9  12
ATOM     12  N   UNL     1       3.120   1.574  18.296  0.00  0.00    +0.000 NA
ATOM     13  H   UNL     1       2.133   1.633  18.047  0.00  0.00    +0.000 HD
ATOM     14  H   UNL     1       3.754   1.777  17.525  0.00  0.00    +0.000 HD
ENDBRANCH   9  12
ENDBRANCH   7   9
ENDBRANCH   2   3
BRANCH   2  15
ATOM     15  N   UNL     1       7.226   6.951  18.281  0.00  0.00    +0.000 NA
ATOM     16  C   UNL     1       7.924   5.962  19.116  0.00  0.00    +0.000 C 
BRANCH  15  17
ATOM     17  C   UNL     1       8.228   7.911  17.748  0.00  0.00    +0.000 C 
BRANCH  17  18
ATOM     18  C   UNL     1       7.841   9.394  17.894  0.00  0.00    +0.000 C 
BRANCH  18  19
ATOM     19  C   UNL     1       8.952  10.235  18.481  0.00  0.00    +0.000 A 
ATOM     20  C   UNL     1       9.763  11.011  17.638  0.00  0.00    +0.000 A 
ATOM     21  C   UNL     1      10.788  11.798  18.162  0.00  0.00    +0.000 A 
ATOM     22  C   UNL     1      11.018  11.816  19.535  0.00  0.00    +0.000 A 
ATOM     23  C   UNL     1      10.219  11.049  20.383  0.00  0.00    +0.000 A 
ATOM     24  C   UNL     1       9.190  10.262  19.861  0.00  0.00    +0.000 A 
ENDBRANCH  18  19
ENDBRANCH  17  18
ENDBRANCH  15  17
ENDBRANCH   2  15
TORSDOF 7
ENDMDL
