MODEL 1
REMARK VINA RESULT:      -7.5      0.000      0.000
REMARK  Name = 
REMARK  9 active torsions:
REMARK  status: ('A' for Active; 'I' for Inactive)
REMARK    1  A    between atoms: C_1  and  C_2
REMARK    2  A    between atoms: C_2  and  C_3
REMARK    3  A    between atoms: C_5  and  N_6
REMARK    4  A    between atoms: N_6  and  C_7
REMARK    5  A    between atoms: N_11  and  C_12
REMARK    6  A    between atoms: C_12  and  C_13
REMARK    7  A    between atoms: C_14  and  C_15
REMARK    8  A    between atoms: C_15  and  O_16
REMARK    9  A    between atoms: C_22  and  C_23
REMARK                            x       y       z     vdW  Elec       q    Type
REMARK                         _______ _______ _______ _____ _____    ______ ____
ROOT
ATOM      1  C   UNL     1       2.184   7.115  19.847  0.00  0.00    +0.000 A 
ATOM      2  C   UNL     1       1.468   7.668  20.833  0.00  0.00    +0.000 A 
ATOM      3  C   UNL     1       0.936   9.032  20.693  0.00  0.00    +0.000 A 
ATOM      4  O   UNL     1       0.289   9.507  21.623  0.00  0.00    +0.000 OA
ATOM      5  N   UNL     1       1.150   9.653  19.476  0.00  0.00    +0.000 N 
ATOM      6  C   UNL     1       1.902   9.090  18.463  0.00  0.00    +0.000 A 
ATOM      7  O   UNL     1       2.107   9.624  17.373  0.00  0.00    +0.000 OA
ATOM      8  N   UNL     1       2.399   7.843  18.714  0.00  0.00    +0.000 N 
ATOM      9  H   UNL     1       2.911   7.403  17.961  0.00  0.00    +0.000 HD
ENDROOT
BRANCH   1  10
ATOM     10  N   UNL     1       2.711   5.839  19.951  0.00  0.00    +0.000 N 
ATOM     11  H   UNL     1       3.232   5.731  20.822  0.00  0.00    +0.000 HD
BRANCH  10  14
ATOM     12  C   UNL     1       5.720   5.211  17.811  0.00  0.00    +0.000 A 
ATOM     13  C   UNL     1       4.883   5.665  18.850  0.00  0.00    +0.000 A 
ATOM     14  C   UNL     1       3.523   5.325  18.899  0.00  0.00    +0.000 A 
ATOM     15  C   UNL     1       3.027   4.439  17.941  0.00  0.00    +0.000 A 
ATOM     16  C   UNL     1       3.847   3.948  16.930  0.00  0.00    +0.000 A 
ATOM     17  C   UNL     1       5.195   4.324  16.851  0.00  0.00    +0.000 A 
ATOM     18  C   UNL     1       6.024   3.752  15.737  0.00  0.00    +0.000 C 
BRANCH  12  20
ATOM     19  C   UNL     1       7.815   5.779  19.121  0.00  0.00    +0.000 C 
ATOM     20  C   UNL     1       7.138   5.730  17.761  0.00  0.00    +0.000 C 
ENDBRANCH  12  20
ENDBRANCH  10  14
ENDBRANCH   1  10
BRANCH   5  21
ATOM     21  C   UNL     1       0.242  10.729  19.119  0.00  0.00    +0.000 C 
BRANCH  21  22
ATOM     22  C   UNL     1      -0.767  10.089  18.247  0.00  0.00    +0.000 C 
ATOM     23  C   UNL     1      -1.676   9.991  17.472  0.00  0.00    +0.000 C 
BRANCH  23  24
ATOM     24  C   UNL     1      -2.772  10.221  16.531  0.00  0.00    +0.000 C 
BRANCH  24  25
ATOM     25  O   UNL     1      -2.491  11.361  15.729  0.00  0.00    +0.000 OA
ATOM     26  H   UNL     1      -2.282  12.088  16.340  0.00  0.00    +0.000 HD
ENDBRANCH  24  25
ENDBRANCH  23  24
ENDBRANCH  21  22
ENDBRANCH   5  21
TORSDOF 7
ENDMDL
MODEL 2
REMARK VINA RESULT:      -7.5      1.396      2.104
REMARK  Name = 
REMARK  9 active torsions:
REMARK  status: ('A' for Active; 'I' for Inactive)
REMARK    1  A    between atoms: C_1  and  C_2
REMARK    2  A    between atoms: C_2  and  C_3
REMARK    3  A    between atoms: C_5  and  N_6
REMARK    4  A    between atoms: N_6  and  C_7
REMARK    5  A    between atoms: N_11  and  C_12
REMARK    6  A    between atoms: C_12  and  C_13
REMARK    7  A    between atoms: C_14  and  C_15
REMARK    8  A    between atoms: C_15  and  O_16
REMARK    9  A    between atoms: C_22  and  C_23
REMARK                            x       y       z     vdW  Elec       q    Type
REMARK                         _______ _______ _______ _____ _____    ______ ____
ROOT
ATOM      1  C   UNL     1       1.487   7.810  20.572  0.00  0.00    +0.000 A 
ATOM      2  C   UNL     1       0.638   8.605  21.233  0.00  0.00    +0.000 A 
ATOM      3  C   UNL     1       0.206   9.884  20.649  0.00  0.00    +0.000 A 
ATOM      4  O   UNL     1      -0.569  10.589  21.291  0.00  0.00    +0.000 OA
ATOM      5  N   UNL     1       0.661  10.161  19.373  0.00  0.00    +0.000 N 
ATOM      6  C   UNL     1       1.550   9.349  18.695  0.00  0.00    +0.000 A 
ATOM      7  O   UNL     1       1.969   9.576  17.561  0.00  0.00    +0.000 OA
ATOM      8  N   UNL     1       1.933   8.212  19.348  0.00  0.00    +0.000 N 
ATOM      9  H   UNL     1       2.547   7.588  18.841  0.00  0.00    +0.000 HD
ENDROOT
BRANCH   1  10
ATOM     10  N   UNL     1       1.924   6.606  21.098  0.00  0.00    +0.000 N 
ATOM     11  H   UNL     1       2.804   6.726  21.600  0.00  0.00    +0.000 HD
BRANCH  10  14
ATOM     12  C   UNL     1       3.449   4.219  18.648  0.00  0.00    +0.000 A 
ATOM     13  C   UNL     1       3.268   5.300  19.533  0.00  0.00    +0.000 A 
ATOM     14  C   UNL     1       2.070   5.476  20.242  0.00  0.00    +0.000 A 
ATOM     15  C   UNL     1       1.082   4.496  20.127  0.00  0.00    +0.000 A 
ATOM     16  C   UNL     1       1.258   3.400  19.288  0.00  0.00    +0.000 A 
ATOM     17  C   UNL     1       2.434   3.246  18.543  0.00  0.00    +0.000 A 
ATOM     18  C   UNL     1       2.560   2.037  17.662  0.00  0.00    +0.000 C 
BRANCH  12  20
ATOM     19  C   UNL     1       4.737   5.189  16.693  0.00  0.00    +0.000 C 
ATOM     20  C   UNL     1       4.716   4.176  17.825  0.00  0.00    +0.000 C 
ENDBRANCH  12  20
ENDBRANCH  10  14
ENDBRANCH   1  10
BRANCH   5  21
ATOM     21  C   UNL     1      -0.116  11.106  18.590  0.00  0.00    +0.000 C 
BRANCH  21  22
ATOM     22  C   UNL     1      -1.105  10.270  17.876  0.00  0.00    +0.000 C 
ATOM     23  C   UNL     1      -1.976   9.978  17.104  0.00  0.00    +0.000 C 
BRANCH  23  24
ATOM     24  C   UNL     1      -3.007   9.957  16.068  0.00  0.00    +0.000 C 
BRANCH  24  25
ATOM     25  O   UNL     1      -3.021  11.197  15.373  0.00  0.00    +0.000 OA
ATOM     26  H   UNL     1      -2.577  11.045  14.521  0.00  0.00    +0.000 HD
ENDBRANCH  24  25
ENDBRANCH  23  24
ENDBRANCH  21  22
ENDBRANCH   5  21
TORSDOF 7
ENDMDL
MODEL 3
REMARK VINA RESULT:      -7.4      1.220      2.033
REMARK  Name = 
REMARK  9 active torsions:
REMARK  status: ('A' for Active; 'I' for Inactive)
REMARK    1  A    between atoms: C_1  and  C_2
REMARK    2  A    between atoms: C_2  and  C_3
REMARK    3  A    between atoms: C_5  and  N_6
REMARK    4  A    between atoms: N_6  and  C_7
REMARK    5  A    between atoms: N_11  and  C_12
REMARK    6  A    between atoms: C_12  and  C_13
REMARK    7  A    between atoms: C_14  and  C_15
REMARK    8  A    between atoms: C_15  and  O_16
REMARK    9  A    between atoms: C_22  and  C_23
REMARK                            x       y       z     vdW  Elec       q    Type
REMARK                         _______ _______ _______ _____ _____    ______ ____
ROOT
ATOM      1  C   UNL     1       2.457   6.850  19.801  0.00  0.00    +0.000 A 
ATOM      2  C   UNL     1       2.425   7.558  18.665  0.00  0.00    +0.000 A 
ATOM      3  C   UNL     1       1.672   8.818  18.594  0.00  0.00    +0.000 A 
ATOM      4  O   UNL     1       1.661   9.435  17.531  0.00  0.00    +0.000 OA
ATOM      5  N   UNL     1       1.085   9.251  19.769  0.00  0.00    +0.000 N 
ATOM      6  C   UNL     1       1.104   8.515  20.937  0.00  0.00    +0.000 A 
ATOM      7  O   UNL     1       0.588   8.878  21.994  0.00  0.00    +0.000 OA
ATOM      8  N   UNL     1       1.783   7.331  20.884  0.00  0.00    +0.000 N 
ATOM      9  H   UNL     1       1.843   6.807  21.747  0.00  0.00    +0.000 HD
ENDROOT
BRANCH   1  10
ATOM     10  N   UNL     1       3.146   5.653  19.899  0.00  0.00    +0.000 N 
ATOM     11  H   UNL     1       3.758   5.652  20.716  0.00  0.00    +0.000 HD
BRANCH  10  14
ATOM     12  C   UNL     1       6.048   5.154  17.585  0.00  0.00    +0.000 A 
ATOM     13  C   UNL     1       5.258   5.559  18.680  0.00  0.00    +0.000 A 
ATOM     14  C   UNL     1       3.911   5.188  18.790  0.00  0.00    +0.000 A 
ATOM     15  C   UNL     1       3.382   4.320  17.833  0.00  0.00    +0.000 A 
ATOM     16  C   UNL     1       4.156   3.877  16.766  0.00  0.00    +0.000 A 
ATOM     17  C   UNL     1       5.490   4.284  16.627  0.00  0.00    +0.000 A 
ATOM     18  C   UNL     1       6.270   3.764  15.454  0.00  0.00    +0.000 C 
BRANCH  12  20
ATOM     19  C   UNL     1       7.509   7.223  17.507  0.00  0.00    +0.000 C 
ATOM     20  C   UNL     1       7.451   5.705  17.475  0.00  0.00    +0.000 C 
ENDBRANCH  12  20
ENDBRANCH  10  14
ENDBRANCH   1  10
BRANCH   5  21
ATOM     21  C   UNL     1       0.795  10.670  19.874  0.00  0.00    +0.000 C 
BRANCH  21  22
ATOM     22  C   UNL     1      -0.654  10.774  19.594  0.00  0.00    +0.000 C 
ATOM     23  C   UNL     1      -1.665  11.070  19.021  0.00  0.00    +0.000 C 
BRANCH  23  24
ATOM     24  C   UNL     1      -2.677  11.565  18.089  0.00  0.00    +0.000 C 
BRANCH  24  25
ATOM     25  O   UNL     1      -3.541  12.479  18.751  0.00  0.00    +0.000 OA
ATOM     26  H   UNL     1      -3.239  12.530  19.674  0.00  0.00    +0.000 HD
ENDBRANCH  24  25
ENDBRANCH  23  24
ENDBRANCH  21  22
ENDBRANCH   5  21
TORSDOF 7
ENDMDL
MODEL 4
REMARK VINA RESULT:      -7.3      3.290      7.604
REMARK  Name = 
REMARK  9 active torsions:
REMARK  status: ('A' for Active; 'I' for Inactive)
REMARK    1  A    between atoms: C_1  and  C_2
REMARK    2  A    between atoms: C_2  and  C_3
REMARK    3  A    between atoms: C_5  and  N_6
REMARK    4  A    between atoms: N_6  and  C_7
REMARK    5  A    between atoms: N_11  and  C_12
REMARK    6  A    between atoms: C_12  and  C_13
REMARK    7  A    between atoms: C_14  and  C_15
REMARK    8  A    between atoms: C_15  and  O_16
REMARK    9  A    between atoms: C_22  and  C_23
REMARK                            x       y       z     vdW  Elec       q    Type
REMARK                         _______ _______ _______ _____ _____    ______ ____
ROOT
ATOM      1  C   UNL     1       3.645   5.863  18.688  0.00  0.00    +0.000 A 
ATOM      2  C   UNL     1       3.452   4.572  18.395  0.00  0.00    +0.000 A 
ATOM      3  C   UNL     1       4.181   3.943  17.283  0.00  0.00    +0.000 A 
ATOM      4  O   UNL     1       3.970   2.757  17.041  0.00  0.00    +0.000 OA
ATOM      5  N   UNL     1       5.112   4.733  16.635  0.00  0.00    +0.000 N 
ATOM      6  C   UNL     1       5.302   6.070  16.926  0.00  0.00    +0.000 A 
ATOM      7  O   UNL     1       6.123   6.792  16.362  0.00  0.00    +0.000 OA
ATOM      8  N   UNL     1       4.535   6.573  17.938  0.00  0.00    +0.000 N 
ATOM      9  H   UNL     1       4.700   7.538  18.191  0.00  0.00    +0.000 HD
ENDROOT
BRANCH   1  10
ATOM     10  N   UNL     1       2.966   6.489  19.720  0.00  0.00    +0.000 N 
ATOM     11  H   UNL     1       2.379   5.825  20.225  0.00  0.00    +0.000 HD
BRANCH  10  14
ATOM     12  C   UNL     1       0.737   9.446  20.280  0.00  0.00    +0.000 A 
ATOM     13  C   UNL     1       1.561   8.325  20.504  0.00  0.00    +0.000 A 
ATOM     14  C   UNL     1       2.171   7.639  19.443  0.00  0.00    +0.000 A 
ATOM     15  C   UNL     1       2.023   8.149  18.152  0.00  0.00    +0.000 A 
ATOM     16  C   UNL     1       1.246   9.278  17.915  0.00  0.00    +0.000 A 
ATOM     17  C   UNL     1       0.597   9.938  18.967  0.00  0.00    +0.000 A 
ATOM     18  C   UNL     1      -0.222  11.154  18.641  0.00  0.00    +0.000 C 
BRANCH  12  20
ATOM     19  C   UNL     1      -0.405   9.019  22.502  0.00  0.00    +0.000 C 
ATOM     20  C   UNL     1       0.014  10.046  21.463  0.00  0.00    +0.000 C 
ENDBRANCH  12  20
ENDBRANCH  10  14
ENDBRANCH   1  10
BRANCH   5  21
ATOM     21  C   UNL     1       6.173   4.045  15.920  0.00  0.00    +0.000 C 
BRANCH  21  22
ATOM     22  C   UNL     1       5.794   4.160  14.494  0.00  0.00    +0.000 C 
ATOM     23  C   UNL     1       5.664   3.853  13.343  0.00  0.00    +0.000 C 
BRANCH  23  24
ATOM     24  C   UNL     1       5.647   3.179  12.045  0.00  0.00    +0.000 C 
BRANCH  24  25
ATOM     25  O   UNL     1       6.768   2.312  11.935  0.00  0.00    +0.000 OA
ATOM     26  H   UNL     1       7.252   2.372  12.776  0.00  0.00    +0.000 HD
ENDBRANCH  24  25
ENDBRANCH  23  24
ENDBRANCH  21  22
ENDBRANCH   5  21
TORSDOF 7
ENDMDL
MODEL 5
REMARK VINA RESULT:      -7.2      3.188      7.409
REMARK  Name = 
REMARK  9 active torsions:
REMARK  status: ('A' for Active; 'I' for Inactive)
REMARK    1  A    between atoms: C_1  and  C_2
REMARK    2  A    between atoms: C_2  and  C_3
REMARK    3  A    between atoms: C_5  and  N_6
REMARK    4  A    between atoms: N_6  and  C_7
REMARK    5  A    between atoms: N_11  and  C_12
REMARK    6  A    between atoms: C_12  and  C_13
REMARK    7  A    between atoms: C_14  and  C_15
REMARK    8  A    between atoms: C_15  and  O_16
REMARK    9  A    between atoms: C_22  and  C_23
REMARK                            x       y       z     vdW  Elec       q    Type
REMARK                         _______ _______ _______ _____ _____    ______ ____
ROOT
ATOM      1  C   UNL     1       2.934   6.626  18.093  0.00  0.00    +0.000 A 
ATOM      2  C   UNL     1       2.077   5.644  17.791  0.00  0.00    +0.000 A 
ATOM      3  C   UNL     1       2.533   4.247  17.738  0.00  0.00    +0.000 A 
ATOM      4  O   UNL     1       1.717   3.375  17.450  0.00  0.00    +0.000 OA
ATOM      5  N   UNL     1       3.849   4.017  18.092  0.00  0.00    +0.000 N 
ATOM      6  C   UNL     1       4.739   5.031  18.390  0.00  0.00    +0.000 A 
ATOM      7  O   UNL     1       5.915   4.851  18.706  0.00  0.00    +0.000 OA
ATOM      8  N   UNL     1       4.230   6.298  18.356  0.00  0.00    +0.000 N 
ATOM      9  H   UNL     1       4.862   7.044  18.618  0.00  0.00    +0.000 HD
ENDROOT
BRANCH   1  10
ATOM     10  N   UNL     1       2.541   7.953  18.139  0.00  0.00    +0.000 N 
ATOM     11  H   UNL     1       3.342   8.574  18.022  0.00  0.00    +0.000 HD
BRANCH  10  14
ATOM     12  C   UNL     1       0.208  10.063  20.171  0.00  0.00    +0.000 A 
ATOM     13  C   UNL     1       0.944   9.534  19.092  0.00  0.00    +0.000 A 
ATOM     14  C   UNL     1       1.790   8.428  19.253  0.00  0.00    +0.000 A 
ATOM     15  C   UNL     1       1.820   7.792  20.496  0.00  0.00    +0.000 A 
ATOM     16  C   UNL     1       1.070   8.275  21.563  0.00  0.00    +0.000 A 
ATOM     17  C   UNL     1       0.260   9.408  21.418  0.00  0.00    +0.000 A 
ATOM     18  C   UNL     1      -0.527   9.873  22.610  0.00  0.00    +0.000 C 
BRANCH  12  20
ATOM     19  C   UNL     1      -1.658  11.197  18.884  0.00  0.00    +0.000 C 
ATOM     20  C   UNL     1      -0.577  11.334  19.943  0.00  0.00    +0.000 C 
ENDBRANCH  12  20
ENDBRANCH  10  14
ENDBRANCH   1  10
BRANCH   5  21
ATOM     21  C   UNL     1       4.184   2.677  18.543  0.00  0.00    +0.000 C 
BRANCH  21  22
ATOM     22  C   UNL     1       3.671   2.613  19.929  0.00  0.00    +0.000 C 
ATOM     23  C   UNL     1       2.889   2.661  20.836  0.00  0.00    +0.000 C 
BRANCH  23  24
ATOM     24  C   UNL     1       1.707   2.785  21.688  0.00  0.00    +0.000 C 
BRANCH  24  25
ATOM     25  O   UNL     1       0.559   3.046  20.889  0.00  0.00    +0.000 OA
ATOM     26  H   UNL     1       0.854   3.604  20.150  0.00  0.00    +0.000 HD
ENDBRANCH  24  25
ENDBRANCH  23  24
ENDBRANCH  21  22
ENDBRANCH   5  21
TORSDOF 7
ENDMDL
MODEL 6
REMARK VINA RESULT:      -7.2      3.299      7.449
REMARK  Name = 
REMARK  9 active torsions:
REMARK  status: ('A' for Active; 'I' for Inactive)
REMARK    1  A    between atoms: C_1  and  C_2
REMARK    2  A    between atoms: C_2  and  C_3
REMARK    3  A    between atoms: C_5  and  N_6
REMARK    4  A    between atoms: N_6  and  C_7
REMARK    5  A    between atoms: N_11  and  C_12
REMARK    6  A    between atoms: C_12  and  C_13
REMARK    7  A    between atoms: C_14  and  C_15
REMARK    8  A    between atoms: C_15  and  O_16
REMARK    9  A    between atoms: C_22  and  C_23
REMARK                            x       y       z     vdW  Elec       q    Type
REMARK                         _______ _______ _______ _____ _____    ______ ____
ROOT
ATOM      1  C   UNL     1       2.601   5.844  19.824  0.00  0.00    +0.000 A 
ATOM      2  C   UNL     1       1.874   5.197  18.907  0.00  0.00    +0.000 A 
ATOM      3  C   UNL     1       2.522   4.301  17.938  0.00  0.00    +0.000 A 
ATOM      4  O   UNL     1       1.820   3.729  17.107  0.00  0.00    +0.000 OA
ATOM      5  N   UNL     1       3.884   4.116  18.088  0.00  0.00    +0.000 N 
ATOM      6  C   UNL     1       4.640   4.795  19.024  0.00  0.00    +0.000 A 
ATOM      7  O   UNL     1       5.852   4.649  19.175  0.00  0.00    +0.000 OA
ATOM      8  N   UNL     1       3.950   5.647  19.840  0.00  0.00    +0.000 N 
ATOM      9  H   UNL     1       4.487   6.114  20.559  0.00  0.00    +0.000 HD
ENDROOT
BRANCH   1  10
ATOM     10  N   UNL     1       2.025   6.705  20.742  0.00  0.00    +0.000 N 
ATOM     11  H   UNL     1       1.260   6.247  21.240  0.00  0.00    +0.000 HD
BRANCH  10  14
ATOM     12  C   UNL     1       0.312  10.035  20.822  0.00  0.00    +0.000 A 
ATOM     13  C   UNL     1       0.830   8.782  21.208  0.00  0.00    +0.000 A 
ATOM     14  C   UNL     1       1.553   7.980  20.313  0.00  0.00    +0.000 A 
ATOM     15  C   UNL     1       1.837   8.490  19.045  0.00  0.00    +0.000 A 
ATOM     16  C   UNL     1       1.368   9.742  18.659  0.00  0.00    +0.000 A 
ATOM     17  C   UNL     1       0.606  10.526  19.534  0.00  0.00    +0.000 A 
ATOM     18  C   UNL     1       0.136  11.870  19.053  0.00  0.00    +0.000 C 
BRANCH  12  20
ATOM     19  C   UNL     1      -0.696  10.078  23.147  0.00  0.00    +0.000 C 
ATOM     20  C   UNL     1      -0.566  10.776  21.803  0.00  0.00    +0.000 C 
ENDBRANCH  12  20
ENDBRANCH  10  14
ENDBRANCH   1  10
BRANCH   5  21
ATOM     21  C   UNL     1       4.449   2.903  17.523  0.00  0.00    +0.000 C 
BRANCH  21  22
ATOM     22  C   UNL     1       5.113   3.347  16.279  0.00  0.00    +0.000 C 
ATOM     23  C   UNL     1       5.675   4.074  15.508  0.00  0.00    +0.000 C 
BRANCH  23  24
ATOM     24  C   UNL     1       6.338   5.187  14.831  0.00  0.00    +0.000 C 
BRANCH  24  25
ATOM     25  O   UNL     1       7.491   5.582  15.563  0.00  0.00    +0.000 OA
ATOM     26  H   UNL     1       7.668   6.509  15.327  0.00  0.00    +0.000 HD
ENDBRANCH  24  25
ENDBRANCH  23  24
ENDBRANCH  21  22
ENDBRANCH   5  21
TORSDOF 7
ENDMDL
MODEL 7
REMARK VINA RESULT:      -7.2      3.376      7.314
REMARK  Name = 
REMARK  9 active torsions:
REMARK  status: ('A' for Active; 'I' for Inactive)
REMARK    1  A    between atoms: C_1  and  C_2
REMARK    2  A    between atoms: C_2  and  C_3
REMARK    3  A    between atoms: C_5  and  N_6
REMARK    4  A    between atoms: N_6  and  C_7
REMARK    5  A    between atoms: N_11  and  C_12
REMARK    6  A    between atoms: C_12  and  C_13
REMARK    7  A    between atoms: C_14  and  C_15
REMARK    8  A    between atoms: C_15  and  O_16
REMARK    9  A    between atoms: C_22  and  C_23
REMARK                            x       y       z     vdW  Elec       q    Type
REMARK                         _______ _______ _______ _____ _____    ______ ____
ROOT
ATOM      1  C   UNL     1       2.630   5.504  20.015  0.00  0.00    +0.000 A 
ATOM      2  C   UNL     1       3.923   5.161  20.016  0.00  0.00    +0.000 A 
ATOM      3  C   UNL     1       4.418   4.117  19.107  0.00  0.00    +0.000 A 
ATOM      4  O   UNL     1       5.611   3.825  19.143  0.00  0.00    +0.000 OA
ATOM      5  N   UNL     1       3.498   3.588  18.220  0.00  0.00    +0.000 N 
ATOM      6  C   UNL     1       2.159   3.929  18.228  0.00  0.00    +0.000 A 
ATOM      7  O   UNL     1       1.323   3.471  17.450  0.00  0.00    +0.000 OA
ATOM      8  N   UNL     1       1.790   4.868  19.149  0.00  0.00    +0.000 N 
ATOM      9  H   UNL     1       0.822   5.159  19.131  0.00  0.00    +0.000 HD
ENDROOT
BRANCH   1  10
ATOM     10  N   UNL     1       2.128   6.473  20.867  0.00  0.00    +0.000 N 
ATOM     11  H   UNL     1       1.357   6.104  21.425  0.00  0.00    +0.000 HD
BRANCH  10  14
ATOM     12  C   UNL     1       0.599   9.888  20.692  0.00  0.00    +0.000 A 
ATOM     13  C   UNL     1       1.064   8.648  21.176  0.00  0.00    +0.000 A 
ATOM     14  C   UNL     1       1.709   7.728  20.337  0.00  0.00    +0.000 A 
ATOM     15  C   UNL     1       1.972   8.104  19.019  0.00  0.00    +0.000 A 
ATOM     16  C   UNL     1       1.557   9.340  18.532  0.00  0.00    +0.000 A 
ATOM     17  C   UNL     1       0.870  10.243  19.355  0.00  0.00    +0.000 A 
ATOM     18  C   UNL     1       0.456  11.561  18.767  0.00  0.00    +0.000 C 
BRANCH  12  20
ATOM     19  C   UNL     1      -0.637  10.053  22.898  0.00  0.00    +0.000 C 
ATOM     20  C   UNL     1      -0.201  10.764  21.628  0.00  0.00    +0.000 C 
ENDBRANCH  12  20
ENDBRANCH  10  14
ENDBRANCH   1  10
BRANCH   5  21
ATOM     21  C   UNL     1       4.026   2.971  17.016  0.00  0.00    +0.000 C 
BRANCH  21  22
ATOM     22  C   UNL     1       4.655   4.085  16.274  0.00  0.00    +0.000 C 
ATOM     23  C   UNL     1       5.449   4.667  15.589  0.00  0.00    +0.000 C 
BRANCH  23  24
ATOM     24  C   UNL     1       6.569   5.063  14.737  0.00  0.00    +0.000 C 
BRANCH  24  25
ATOM     25  O   UNL     1       7.554   5.734  15.512  0.00  0.00    +0.000 OA
ATOM     26  H   UNL     1       8.409   5.327  15.291  0.00  0.00    +0.000 HD
ENDBRANCH  24  25
ENDBRANCH  23  24
ENDBRANCH  21  22
ENDBRANCH   5  21
TORSDOF 7
ENDMDL
MODEL 8
REMARK VINA RESULT:      -7.1      0.768      1.807
REMARK  Name = 
REMARK  9 active torsions:
REMARK  status: ('A' for Active; 'I' for Inactive)
REMARK    1  A    between atoms: C_1  and  C_2
REMARK    2  A    between atoms: C_2  and  C_3
REMARK    3  A    between atoms: C_5  and  N_6
REMARK    4  A    between atoms: N_6  and  C_7
REMARK    5  A    between atoms: N_11  and  C_12
REMARK    6  A    between atoms: C_12  and  C_13
REMARK    7  A    between atoms: C_14  and  C_15
REMARK    8  A    between atoms: C_15  and  O_16
REMARK    9  A    between atoms: C_22  and  C_23
REMARK                            x       y       z     vdW  Elec       q    Type
REMARK                         _______ _______ _______ _____ _____    ______ ____
ROOT
ATOM      1  C   UNL     1       2.068   6.847  19.337  0.00  0.00    +0.000 A 
ATOM      2  C   UNL     1       1.524   7.248  20.493  0.00  0.00    +0.000 A 
ATOM      3  C   UNL     1       1.132   8.651  20.684  0.00  0.00    +0.000 A 
ATOM      4  O   UNL     1       0.642   8.981  21.762  0.00  0.00    +0.000 OA
ATOM      5  N   UNL     1       1.283   9.486  19.592  0.00  0.00    +0.000 N 
ATOM      6  C   UNL     1       1.858   9.078  18.404  0.00  0.00    +0.000 A 
ATOM      7  O   UNL     1       2.004   9.803  17.420  0.00  0.00    +0.000 OA
ATOM      8  N   UNL     1       2.240   7.768  18.347  0.00  0.00    +0.000 N 
ATOM      9  H   UNL     1       2.619   7.448  17.466  0.00  0.00    +0.000 HD
ENDROOT
BRANCH   1  10
ATOM     10  N   UNL     1       2.460   5.536  19.128  0.00  0.00    +0.000 N 
ATOM     11  H   UNL     1       2.266   4.962  19.950  0.00  0.00    +0.000 HD
BRANCH  10  14
ATOM     12  C   UNL     1       5.330   4.439  16.986  0.00  0.00    +0.000 A 
ATOM     13  C   UNL     1       4.031   4.763  17.427  0.00  0.00    +0.000 A 
ATOM     14  C   UNL     1       3.797   5.258  18.718  0.00  0.00    +0.000 A 
ATOM     15  C   UNL     1       4.896   5.517  19.539  0.00  0.00    +0.000 A 
ATOM     16  C   UNL     1       6.190   5.242  19.107  0.00  0.00    +0.000 A 
ATOM     17  C   UNL     1       6.424   4.703  17.835  0.00  0.00    +0.000 A 
ATOM     18  C   UNL     1       7.846   4.435  17.431  0.00  0.00    +0.000 C 
BRANCH  12  20
ATOM     19  C   UNL     1       5.761   4.780  14.512  0.00  0.00    +0.000 C 
ATOM     20  C   UNL     1       5.482   3.790  15.630  0.00  0.00    +0.000 C 
ENDBRANCH  12  20
ENDBRANCH  10  14
ENDBRANCH   1  10
BRANCH   5  21
ATOM     21  C   UNL     1       0.465  10.686  19.565  0.00  0.00    +0.000 C 
BRANCH  21  22
ATOM     22  C   UNL     1      -0.781  10.269  18.885  0.00  0.00    +0.000 C 
ATOM     23  C   UNL     1      -1.636  10.221  18.045  0.00  0.00    +0.000 C 
BRANCH  23  24
ATOM     24  C   UNL     1      -2.472  10.389  16.857  0.00  0.00    +0.000 C 
BRANCH  24  25
ATOM     25  O   UNL     1      -2.191  11.639  16.241  0.00  0.00    +0.000 OA
ATOM     26  H   UNL     1      -1.229  11.672  16.101  0.00  0.00    +0.000 HD
ENDBRANCH  24  25
ENDBRANCH  23  24
ENDBRANCH  21  22
ENDBRANCH   5  21
TORSDOF 7
ENDMDL
MODEL 9
REMARK VINA RESULT:      -7.1      3.336      7.265
REMARK  Name = 
REMARK  9 active torsions:
REMARK  status: ('A' for Active; 'I' for Inactive)
REMARK    1  A    between atoms: C_1  and  C_2
REMARK    2  A    between atoms: C_2  and  C_3
REMARK    3  A    between atoms: C_5  and  N_6
REMARK    4  A    between atoms: N_6  and  C_7
REMARK    5  A    between atoms: N_11  and  C_12
REMARK    6  A    between atoms: C_12  and  C_13
REMARK    7  A    between atoms: C_14  and  C_15
REMARK    8  A    between atoms: C_15  and  O_16
REMARK    9  A    between atoms: C_22  and  C_23
REMARK                            x       y       z     vdW  Elec       q    Type
REMARK                         _______ _______ _______ _____ _____    ______ ____
ROOT
ATOM      1  C   UNL     1       3.624   6.044  18.488  0.00  0.00    +0.000 A 
ATOM      2  C   UNL     1       4.554   5.664  19.373  0.00  0.00    +0.000 A 
ATOM      3  C   UNL     1       5.963   5.545  18.969  0.00  0.00    +0.000 A 
ATOM      4  O   UNL     1       6.785   5.187  19.809  0.00  0.00    +0.000 OA
ATOM      5  N   UNL     1       6.264   5.919  17.672  0.00  0.00    +0.000 N 
ATOM      6  C   UNL     1       5.304   6.296  16.753  0.00  0.00    +0.000 A 
ATOM      7  O   UNL     1       5.547   6.632  15.594  0.00  0.00    +0.000 OA
ATOM      8  N   UNL     1       4.017   6.321  17.212  0.00  0.00    +0.000 N 
ATOM      9  H   UNL     1       3.313   6.640  16.561  0.00  0.00    +0.000 HD
ENDROOT
BRANCH   1  10
ATOM     10  N   UNL     1       2.288   6.154  18.832  0.00  0.00    +0.000 N 
ATOM     11  H   UNL     1       1.689   6.001  18.019  0.00  0.00    +0.000 HD
BRANCH  10  14
ATOM     12  C   UNL     1       1.139   9.682  19.339  0.00  0.00    +0.000 A 
ATOM     13  C   UNL     1       1.565   8.483  18.733  0.00  0.00    +0.000 A 
ATOM     14  C   UNL     1       1.824   7.330  19.489  0.00  0.00    +0.000 A 
ATOM     15  C   UNL     1       1.559   7.362  20.859  0.00  0.00    +0.000 A 
ATOM     16  C   UNL     1       1.100   8.524  21.470  0.00  0.00    +0.000 A 
ATOM     17  C   UNL     1       0.884   9.692  20.726  0.00  0.00    +0.000 A 
ATOM     18  C   UNL     1       0.383  10.909  21.449  0.00  0.00    +0.000 C 
BRANCH  12  20
ATOM     19  C   UNL     1       2.340  11.570  18.151  0.00  0.00    +0.000 C 
ATOM     20  C   UNL     1       1.008  10.912  18.472  0.00  0.00    +0.000 C 
ENDBRANCH  12  20
ENDBRANCH  10  14
ENDBRANCH   1  10
BRANCH   5  21
ATOM     21  C   UNL     1       7.638   6.302  17.401  0.00  0.00    +0.000 C 
BRANCH  21  22
ATOM     22  C   UNL     1       7.650   7.774  17.550  0.00  0.00    +0.000 C 
ATOM     23  C   UNL     1       8.041   8.865  17.856  0.00  0.00    +0.000 C 
BRANCH  23  24
ATOM     24  C   UNL     1       8.798  10.018  18.341  0.00  0.00    +0.000 C 
BRANCH  24  25
ATOM     25  O   UNL     1       9.346   9.735  19.622  0.00  0.00    +0.000 OA
ATOM     26  H   UNL     1      10.277  10.014  19.596  0.00  0.00    +0.000 HD
ENDBRANCH  24  25
ENDBRANCH  23  24
ENDBRANCH  21  22
ENDBRANCH   5  21
TORSDOF 7
ENDMDL
