MODEL 1
REMARK VINA RESULT:      -7.7      0.000      0.000
REMARK  Name = 
REMARK  7 active torsions:
REMARK  status: ('A' for Active; 'I' for Inactive)
REMARK    1  A    between atoms: C_1  and  C_2
REMARK    2  A    between atoms: C_4  and  C_5
REMARK    3  A    between atoms: N_7  and  C_8
REMARK    4  A    between atoms: C_11  and  C_12
REMARK    5  A    between atoms: C_13  and  S_14
REMARK    6  A    between atoms: S_14  and  N_17
REMARK    7  A    between atoms: C_24  and  C_25
REMARK                            x       y       z     vdW  Elec       q    Type
REMARK                         _______ _______ _______ _____ _____    ______ ____
ROOT
ATOM      1  C   UNL     1       2.086   6.841  19.837  0.00  0.00    +0.000 A 
ATOM      2  C   UNL     1       1.238   6.073  20.639  0.00  0.00    +0.000 A 
ATOM      3  C   UNL     1       1.353   4.680  20.708  0.00  0.00    +0.000 A 
ATOM      4  C   UNL     1       2.333   3.987  19.983  0.00  0.00    +0.000 A 
ATOM      5  C   UNL     1       2.330   2.485  20.058  0.00  0.00    +0.000 C 
ATOM      6  C   UNL     1       3.232   4.762  19.218  0.00  0.00    +0.000 A 
ATOM      7  C   UNL     1       3.073   6.167  19.105  0.00  0.00    +0.000 A 
ENDROOT
BRANCH   1  10
ATOM      8  C   UNL     1       1.622   8.961  18.570  0.00  0.00    +0.000 C 
ATOM      9  O   UNL     1       1.292   8.396  17.535  0.00  0.00    +0.000 OA
ATOM     10  N   UNL     1       1.975   8.267  19.737  0.00  0.00    +0.000 N 
ATOM     11  H   UNL     1       2.071   8.796  20.588  0.00  0.00    +0.000 HD
BRANCH   8  15
ATOM     12  C   UNL     1       2.343  14.075  18.202  0.00  0.00    +0.000 C 
ATOM     13  C   UNL     1       1.963  12.663  18.436  0.00  0.00    +0.000 A 
ATOM     14  C   UNL     1       2.465  11.433  18.057  0.00  0.00    +0.000 A 
ATOM     15  C   UNL     1       1.609  10.431  18.627  0.00  0.00    +0.000 A 
ATOM     16  C   UNL     1       0.636  11.158  19.312  0.00  0.00    +0.000 A 
ATOM     17  C   UNL     1      -0.562  10.827  20.123  0.00  0.00    +0.000 C 
ATOM     18  O   UNL     1       0.857  12.495  19.197  0.00  0.00    +0.000 OA
ENDBRANCH   8  15
ENDBRANCH   1  10
BRANCH   6  19
ATOM     19  S   UNL     1       4.626   3.999  18.379  0.00  0.00    +0.000 S 
ATOM     20  O   UNL     1       5.592   3.607  19.378  0.00  0.00    +0.000 OA
ATOM     21  O   UNL     1       4.094   3.027  17.440  0.00  0.00    +0.000 OA
BRANCH  19  22
ATOM     22  N   UNL     1       5.237   5.269  17.467  0.00  0.00    +0.000 NA
ATOM     23  C   UNL     1       5.246   5.197  15.990  0.00  0.00    +0.000 C 
ATOM     24  C   UNL     1       6.675   5.163  15.438  0.00  0.00    +0.000 C 
ATOM     25  O   UNL     1       7.489   6.218  15.962  0.00  0.00    +0.000 OA
ATOM     26  C   UNL     1       7.552   6.198  17.393  0.00  0.00    +0.000 C 
ATOM     27  C   UNL     1       6.171   6.254  18.051  0.00  0.00    +0.000 C 
ENDBRANCH  19  22
ENDBRANCH   6  19
TORSDOF 4
ENDMDL
MODEL 2
REMARK VINA RESULT:      -7.6      2.484      4.516
REMARK  Name = 
REMARK  7 active torsions:
REMARK  status: ('A' for Active; 'I' for Inactive)
REMARK    1  A    between atoms: C_1  and  C_2
REMARK    2  A    between atoms: C_4  and  C_5
REMARK    3  A    between atoms: N_7  and  C_8
REMARK    4  A    between atoms: C_11  and  C_12
REMARK    5  A    between atoms: C_13  and  S_14
REMARK    6  A    between atoms: S_14  and  N_17
REMARK    7  A    between atoms: C_24  and  C_25
REMARK                            x       y       z     vdW  Elec       q    Type
REMARK                         _______ _______ _______ _____ _____    ______ ____
ROOT
ATOM      1  C   UNL     1       1.356   8.782  19.401  0.00  0.00    +0.000 A 
ATOM      2  C   UNL     1       1.738   9.258  18.144  0.00  0.00    +0.000 A 
ATOM      3  C   UNL     1       2.702   8.602  17.371  0.00  0.00    +0.000 A 
ATOM      4  C   UNL     1       3.325   7.427  17.817  0.00  0.00    +0.000 A 
ATOM      5  C   UNL     1       4.406   6.835  16.954  0.00  0.00    +0.000 C 
ATOM      6  C   UNL     1       2.900   6.906  19.059  0.00  0.00    +0.000 A 
ATOM      7  C   UNL     1       1.966   7.608  19.864  0.00  0.00    +0.000 A 
ENDROOT
BRANCH   1  10
ATOM      8  C   UNL     1       0.483  10.776  20.656  0.00  0.00    +0.000 C 
ATOM      9  O   UNL     1       1.385  11.526  20.306  0.00  0.00    +0.000 OA
ATOM     10  N   UNL     1       0.383   9.447  20.218  0.00  0.00    +0.000 N 
ATOM     11  H   UNL     1      -0.471   8.950  20.414  0.00  0.00    +0.000 HD
BRANCH   8  15
ATOM     12  C   UNL     1      -3.429  13.190  23.041  0.00  0.00    +0.000 C 
ATOM     13  C   UNL     1      -2.300  12.373  22.540  0.00  0.00    +0.000 A 
ATOM     14  C   UNL     1      -1.526  12.358  21.396  0.00  0.00    +0.000 A 
ATOM     15  C   UNL     1      -0.581  11.287  21.536  0.00  0.00    +0.000 A 
ATOM     16  C   UNL     1      -0.876  10.726  22.778  0.00  0.00    +0.000 A 
ATOM     17  C   UNL     1      -0.344   9.603  23.590  0.00  0.00    +0.000 C 
ATOM     18  O   UNL     1      -1.904  11.386  23.377  0.00  0.00    +0.000 OA
ENDBRANCH   8  15
ENDBRANCH   1  10
BRANCH   6  19
ATOM     19  S   UNL     1       3.508   5.324  19.653  0.00  0.00    +0.000 S 
ATOM     20  O   UNL     1       4.950   5.382  19.691  0.00  0.00    +0.000 OA
ATOM     21  O   UNL     1       2.748   4.981  20.843  0.00  0.00    +0.000 OA
BRANCH  19  22
ATOM     22  N   UNL     1       3.015   4.270  18.444  0.00  0.00    +0.000 NA
ATOM     23  C   UNL     1       1.579   3.986  18.234  0.00  0.00    +0.000 C 
ATOM     24  C   UNL     1       1.244   2.523  18.543  0.00  0.00    +0.000 C 
ATOM     25  O   UNL     1       2.111   1.609  17.863  0.00  0.00    +0.000 OA
ATOM     26  C   UNL     1       3.491   1.835  18.171  0.00  0.00    +0.000 C 
ATOM     27  C   UNL     1       3.940   3.269  17.874  0.00  0.00    +0.000 C 
ENDBRANCH  19  22
ENDBRANCH   6  19
TORSDOF 4
ENDMDL
MODEL 3
REMARK VINA RESULT:      -7.5      2.644      4.697
REMARK  Name = 
REMARK  7 active torsions:
REMARK  status: ('A' for Active; 'I' for Inactive)
REMARK    1  A    between atoms: C_1  and  C_2
REMARK    2  A    between atoms: C_4  and  C_5
REMARK    3  A    between atoms: N_7  and  C_8
REMARK    4  A    between atoms: C_11  and  C_12
REMARK    5  A    between atoms: C_13  and  S_14
REMARK    6  A    between atoms: S_14  and  N_17
REMARK    7  A    between atoms: C_24  and  C_25
REMARK                            x       y       z     vdW  Elec       q    Type
REMARK                         _______ _______ _______ _____ _____    ______ ____
ROOT
ATOM      1  C   UNL     1       1.083   9.008  19.396  0.00  0.00    +0.000 A 
ATOM      2  C   UNL     1       1.621   9.478  18.195  0.00  0.00    +0.000 A 
ATOM      3  C   UNL     1       2.637   8.789  17.525  0.00  0.00    +0.000 A 
ATOM      4  C   UNL     1       3.159   7.586  18.021  0.00  0.00    +0.000 A 
ATOM      5  C   UNL     1       4.303   6.957  17.274  0.00  0.00    +0.000 C 
ATOM      6  C   UNL     1       2.578   7.073  19.201  0.00  0.00    +0.000 A 
ATOM      7  C   UNL     1       1.590   7.806  19.908  0.00  0.00    +0.000 A 
ENDROOT
BRANCH   1  10
ATOM      8  C   UNL     1       0.277  10.777  20.990  0.00  0.00    +0.000 C 
ATOM      9  O   UNL     1       1.382  11.271  21.168  0.00  0.00    +0.000 OA
ATOM     10  N   UNL     1       0.054   9.707  20.110  0.00  0.00    +0.000 N 
ATOM     11  H   UNL     1      -0.900   9.468  19.891  0.00  0.00    +0.000 HD
BRANCH   8  15
ATOM     12  C   UNL     1      -3.503  12.293  24.187  0.00  0.00    +0.000 C 
ATOM     13  C   UNL     1      -2.524  11.983  23.120  0.00  0.00    +0.000 A 
ATOM     14  C   UNL     1      -1.390  11.201  23.021  0.00  0.00    +0.000 A 
ATOM     15  C   UNL     1      -0.890  11.345  21.683  0.00  0.00    +0.000 A 
ATOM     16  C   UNL     1      -1.781  12.229  21.075  0.00  0.00    +0.000 A 
ATOM     17  C   UNL     1      -1.914  12.846  19.732  0.00  0.00    +0.000 C 
ATOM     18  O   UNL     1      -2.761  12.603  21.941  0.00  0.00    +0.000 OA
ENDBRANCH   8  15
ENDBRANCH   1  10
BRANCH   6  19
ATOM     19  S   UNL     1       3.052   5.462  19.839  0.00  0.00    +0.000 S 
ATOM     20  O   UNL     1       4.489   5.438  19.977  0.00  0.00    +0.000 OA
ATOM     21  O   UNL     1       2.193   5.169  20.974  0.00  0.00    +0.000 OA
BRANCH  19  22
ATOM     22  N   UNL     1       2.584   4.431  18.600  0.00  0.00    +0.000 NA
ATOM     23  C   UNL     1       1.212   3.882  18.557  0.00  0.00    +0.000 C 
ATOM     24  C   UNL     1       1.208   2.361  18.746  0.00  0.00    +0.000 C 
ATOM     25  O   UNL     1       2.116   1.698  17.859  0.00  0.00    +0.000 OA
ATOM     26  C   UNL     1       3.460   2.172  18.000  0.00  0.00    +0.000 C 
ATOM     27  C   UNL     1       3.582   3.686  17.804  0.00  0.00    +0.000 C 
ENDBRANCH  19  22
ENDBRANCH   6  19
TORSDOF 4
ENDMDL
MODEL 4
REMARK VINA RESULT:      -7.5      2.823      7.955
REMARK  Name = 
REMARK  7 active torsions:
REMARK  status: ('A' for Active; 'I' for Inactive)
REMARK    1  A    between atoms: C_1  and  C_2
REMARK    2  A    between atoms: C_4  and  C_5
REMARK    3  A    between atoms: N_7  and  C_8
REMARK    4  A    between atoms: C_11  and  C_12
REMARK    5  A    between atoms: C_13  and  S_14
REMARK    6  A    between atoms: S_14  and  N_17
REMARK    7  A    between atoms: C_24  and  C_25
REMARK                            x       y       z     vdW  Elec       q    Type
REMARK                         _______ _______ _______ _____ _____    ______ ____
ROOT
ATOM      1  C   UNL     1       2.453   7.265  19.024  0.00  0.00    +0.000 A 
ATOM      2  C   UNL     1       1.934   6.475  20.054  0.00  0.00    +0.000 A 
ATOM      3  C   UNL     1       1.151   7.021  21.076  0.00  0.00    +0.000 A 
ATOM      4  C   UNL     1       0.840   8.388  21.113  0.00  0.00    +0.000 A 
ATOM      5  C   UNL     1       0.058   8.898  22.293  0.00  0.00    +0.000 C 
ATOM      6  C   UNL     1       1.309   9.181  20.043  0.00  0.00    +0.000 A 
ATOM      7  C   UNL     1       2.152   8.634  19.042  0.00  0.00    +0.000 A 
ENDROOT
BRANCH   1  10
ATOM      8  C   UNL     1       4.441   5.982  18.178  0.00  0.00    +0.000 C 
ATOM      9  O   UNL     1       4.828   5.641  19.288  0.00  0.00    +0.000 OA
ATOM     10  N   UNL     1       3.273   6.731  17.976  0.00  0.00    +0.000 N 
ATOM     11  H   UNL     1       2.933   6.828  17.033  0.00  0.00    +0.000 HD
BRANCH   8  15
ATOM     12  C   UNL     1       6.313   3.955  13.797  0.00  0.00    +0.000 C 
ATOM     13  C   UNL     1       5.970   4.643  15.062  0.00  0.00    +0.000 A 
ATOM     14  C   UNL     1       4.890   4.642  15.922  0.00  0.00    +0.000 A 
ATOM     15  C   UNL     1       5.194   5.556  16.988  0.00  0.00    +0.000 A 
ATOM     16  C   UNL     1       6.459   6.049  16.670  0.00  0.00    +0.000 A 
ATOM     17  C   UNL     1       7.406   7.015  17.279  0.00  0.00    +0.000 C 
ATOM     18  O   UNL     1       6.920   5.493  15.516  0.00  0.00    +0.000 OA
ENDBRANCH   8  15
ENDBRANCH   1  10
BRANCH   6  19
ATOM     19  S   UNL     1       0.836  10.909  19.899  0.00  0.00    +0.000 S 
ATOM     20  O   UNL     1       1.216  11.583  21.118  0.00  0.00    +0.000 OA
ATOM     21  O   UNL     1       1.306  11.386  18.610  0.00  0.00    +0.000 OA
BRANCH  19  22
ATOM     22  N   UNL     1      -0.837  10.818  19.800  0.00  0.00    +0.000 NA
ATOM     23  C   UNL     1      -1.490  10.266  18.593  0.00  0.00    +0.000 C 
ATOM     24  C   UNL     1      -2.301  11.336  17.855  0.00  0.00    +0.000 C 
ATOM     25  O   UNL     1      -3.202  12.034  18.722  0.00  0.00    +0.000 OA
ATOM     26  C   UNL     1      -2.529  12.652  19.824  0.00  0.00    +0.000 C 
ATOM     27  C   UNL     1      -1.703  11.662  20.649  0.00  0.00    +0.000 C 
ENDBRANCH  19  22
ENDBRANCH   6  19
TORSDOF 4
ENDMDL
MODEL 5
REMARK VINA RESULT:      -7.5      1.133      1.197
REMARK  Name = 
REMARK  7 active torsions:
REMARK  status: ('A' for Active; 'I' for Inactive)
REMARK    1  A    between atoms: C_1  and  C_2
REMARK    2  A    between atoms: C_4  and  C_5
REMARK    3  A    between atoms: N_7  and  C_8
REMARK    4  A    between atoms: C_11  and  C_12
REMARK    5  A    between atoms: C_13  and  S_14
REMARK    6  A    between atoms: S_14  and  N_17
REMARK    7  A    between atoms: C_24  and  C_25
REMARK                            x       y       z     vdW  Elec       q    Type
REMARK                         _______ _______ _______ _____ _____    ______ ____
ROOT
ATOM      1  C   UNL     1       2.096   6.935  19.693  0.00  0.00    +0.000 A 
ATOM      2  C   UNL     1       1.449   6.278  20.743  0.00  0.00    +0.000 A 
ATOM      3  C   UNL     1       1.717   4.940  21.049  0.00  0.00    +0.000 A 
ATOM      4  C   UNL     1       2.656   4.194  20.322  0.00  0.00    +0.000 A 
ATOM      5  C   UNL     1       2.819   2.740  20.673  0.00  0.00    +0.000 C 
ATOM      6  C   UNL     1       3.358   4.868  19.300  0.00  0.00    +0.000 A 
ATOM      7  C   UNL     1       3.040   6.207  18.955  0.00  0.00    +0.000 A 
ENDROOT
BRANCH   1  10
ATOM      8  C   UNL     1       1.070   9.187  20.132  0.00  0.00    +0.000 C 
ATOM      9  O   UNL     1       0.636   8.891  21.238  0.00  0.00    +0.000 OA
ATOM     10  N   UNL     1       1.826   8.301  19.349  0.00  0.00    +0.000 N 
ATOM     11  H   UNL     1       2.286   8.669  18.533  0.00  0.00    +0.000 HD
BRANCH   8  15
ATOM     12  C   UNL     1       1.016  14.196  18.824  0.00  0.00    +0.000 C 
ATOM     13  C   UNL     1       0.859  12.743  19.060  0.00  0.00    +0.000 A 
ATOM     14  C   UNL     1       1.488  11.800  19.850  0.00  0.00    +0.000 A 
ATOM     15  C   UNL     1       0.843  10.541  19.604  0.00  0.00    +0.000 A 
ATOM     16  C   UNL     1      -0.139  10.835  18.658  0.00  0.00    +0.000 A 
ATOM     17  C   UNL     1      -1.177  10.064  17.930  0.00  0.00    +0.000 C 
ATOM     18  O   UNL     1      -0.126  12.158  18.341  0.00  0.00    +0.000 OA
ENDBRANCH   8  15
ENDBRANCH   1  10
BRANCH   6  19
ATOM     19  S   UNL     1       4.696   4.062  18.412  0.00  0.00    +0.000 S 
ATOM     20  O   UNL     1       5.711   3.692  19.370  0.00  0.00    +0.000 OA
ATOM     21  O   UNL     1       4.104   3.066  17.536  0.00  0.00    +0.000 OA
BRANCH  19  22
ATOM     22  N   UNL     1       5.269   5.294  17.427  0.00  0.00    +0.000 NA
ATOM     23  C   UNL     1       5.334   5.115  15.961  0.00  0.00    +0.000 C 
ATOM     24  C   UNL     1       6.781   5.122  15.457  0.00  0.00    +0.000 C 
ATOM     25  O   UNL     1       7.518   6.257  15.926  0.00  0.00    +0.000 OA
ATOM     26  C   UNL     1       7.532   6.344  17.355  0.00  0.00    +0.000 C 
ATOM     27  C   UNL     1       6.127   6.370  17.965  0.00  0.00    +0.000 C 
ENDBRANCH  19  22
ENDBRANCH   6  19
TORSDOF 4
ENDMDL
MODEL 6
REMARK VINA RESULT:      -7.2      2.264      4.124
REMARK  Name = 
REMARK  7 active torsions:
REMARK  status: ('A' for Active; 'I' for Inactive)
REMARK    1  A    between atoms: C_1  and  C_2
REMARK    2  A    between atoms: C_4  and  C_5
REMARK    3  A    between atoms: N_7  and  C_8
REMARK    4  A    between atoms: C_11  and  C_12
REMARK    5  A    between atoms: C_13  and  S_14
REMARK    6  A    between atoms: S_14  and  N_17
REMARK    7  A    between atoms: C_24  and  C_25
REMARK                            x       y       z     vdW  Elec       q    Type
REMARK                         _______ _______ _______ _____ _____    ______ ____
ROOT
ATOM      1  C   UNL     1       2.697   7.062  18.836  0.00  0.00    +0.000 A 
ATOM      2  C   UNL     1       3.914   7.299  18.191  0.00  0.00    +0.000 A 
ATOM      3  C   UNL     1       4.557   6.304  17.445  0.00  0.00    +0.000 A 
ATOM      4  C   UNL     1       4.005   5.023  17.300  0.00  0.00    +0.000 A 
ATOM      5  C   UNL     1       4.805   3.996  16.546  0.00  0.00    +0.000 C 
ATOM      6  C   UNL     1       2.746   4.796  17.898  0.00  0.00    +0.000 A 
ATOM      7  C   UNL     1       2.129   5.788  18.702  0.00  0.00    +0.000 A 
ENDROOT
BRANCH   1  10
ATOM      8  C   UNL     1       1.282   9.123  19.092  0.00  0.00    +0.000 C 
ATOM      9  O   UNL     1       1.060   9.248  17.895  0.00  0.00    +0.000 OA
ATOM     10  N   UNL     1       2.030   8.060  19.620  0.00  0.00    +0.000 N 
ATOM     11  H   UNL     1       2.027   7.933  20.619  0.00  0.00    +0.000 HD
BRANCH   8  15
ATOM     12  C   UNL     1      -1.128  11.757  22.842  0.00  0.00    +0.000 C 
ATOM     13  C   UNL     1      -0.365  11.201  21.701  0.00  0.00    +0.000 A 
ATOM     14  C   UNL     1      -0.161   9.941  21.174  0.00  0.00    +0.000 A 
ATOM     15  C   UNL     1       0.707  10.090  20.040  0.00  0.00    +0.000 A 
ATOM     16  C   UNL     1       0.966  11.459  19.981  0.00  0.00    +0.000 A 
ATOM     17  C   UNL     1       1.765  12.353  19.106  0.00  0.00    +0.000 C 
ATOM     18  O   UNL     1       0.315  12.119  20.978  0.00  0.00    +0.000 OA
ENDBRANCH   8  15
ENDBRANCH   1  10
BRANCH   6  19
ATOM     19  S   UNL     1       1.869   3.249  17.643  0.00  0.00    +0.000 S 
ATOM     20  O   UNL     1       0.452   3.517  17.719  0.00  0.00    +0.000 OA
ATOM     21  O   UNL     1       2.440   2.608  16.471  0.00  0.00    +0.000 OA
BRANCH  19  22
ATOM     22  N   UNL     1       2.346   2.340  18.971  0.00  0.00    +0.000 NA
ATOM     23  C   UNL     1       1.626   2.456  20.258  0.00  0.00    +0.000 C 
ATOM     24  C   UNL     1       2.520   3.054  21.350  0.00  0.00    +0.000 C 
ATOM     25  O   UNL     1       3.777   2.377  21.458  0.00  0.00    +0.000 OA
ATOM     26  C   UNL     1       4.504   2.376  20.225  0.00  0.00    +0.000 C 
ATOM     27  C   UNL     1       3.707   1.773  19.064  0.00  0.00    +0.000 C 
ENDBRANCH  19  22
ENDBRANCH   6  19
TORSDOF 4
ENDMDL
MODEL 7
REMARK VINA RESULT:      -7.2      2.974      8.131
REMARK  Name = 
REMARK  7 active torsions:
REMARK  status: ('A' for Active; 'I' for Inactive)
REMARK    1  A    between atoms: C_1  and  C_2
REMARK    2  A    between atoms: C_4  and  C_5
REMARK    3  A    between atoms: N_7  and  C_8
REMARK    4  A    between atoms: C_11  and  C_12
REMARK    5  A    between atoms: C_13  and  S_14
REMARK    6  A    between atoms: S_14  and  N_17
REMARK    7  A    between atoms: C_24  and  C_25
REMARK                            x       y       z     vdW  Elec       q    Type
REMARK                         _______ _______ _______ _____ _____    ______ ____
ROOT
ATOM      1  C   UNL     1       1.289   8.527  20.680  0.00  0.00    +0.000 A 
ATOM      2  C   UNL     1       0.298   8.073  21.556  0.00  0.00    +0.000 A 
ATOM      3  C   UNL     1      -0.518   8.961  22.266  0.00  0.00    +0.000 A 
ATOM      4  C   UNL     1      -0.390  10.350  22.124  0.00  0.00    +0.000 A 
ATOM      5  C   UNL     1      -1.259  11.226  22.985  0.00  0.00    +0.000 C 
ATOM      6  C   UNL     1       0.566  10.814  21.195  0.00  0.00    +0.000 A 
ATOM      7  C   UNL     1       1.431   9.912  20.524  0.00  0.00    +0.000 A 
ENDROOT
BRANCH   1  10
ATOM      8  C   UNL     1       2.285   7.616  18.561  0.00  0.00    +0.000 C 
ATOM      9  O   UNL     1       1.731   8.424  17.827  0.00  0.00    +0.000 OA
ATOM     10  N   UNL     1       2.149   7.637  19.957  0.00  0.00    +0.000 N 
ATOM     11  H   UNL     1       2.763   7.050  20.498  0.00  0.00    +0.000 HD
BRANCH   8  15
ATOM     12  C   UNL     1       6.019   4.767  16.382  0.00  0.00    +0.000 C 
ATOM     13  C   UNL     1       4.838   5.392  17.019  0.00  0.00    +0.000 A 
ATOM     14  C   UNL     1       4.484   6.673  17.394  0.00  0.00    +0.000 A 
ATOM     15  C   UNL     1       3.173   6.599  17.976  0.00  0.00    +0.000 A 
ATOM     16  C   UNL     1       2.842   5.246  17.910  0.00  0.00    +0.000 A 
ATOM     17  C   UNL     1       1.679   4.416  18.311  0.00  0.00    +0.000 C 
ATOM     18  O   UNL     1       3.843   4.529  17.330  0.00  0.00    +0.000 OA
ENDBRANCH   8  15
ENDBRANCH   1  10
BRANCH   6  19
ATOM     19  S   UNL     1       0.706  12.564  20.810  0.00  0.00    +0.000 S 
ATOM     20  O   UNL     1       0.478  13.311  22.025  0.00  0.00    +0.000 OA
ATOM     21  O   UNL     1       1.926  12.749  20.043  0.00  0.00    +0.000 OA
BRANCH  19  22
ATOM     22  N   UNL     1      -0.573  12.803  19.750  0.00  0.00    +0.000 NA
ATOM     23  C   UNL     1      -1.782  13.535  20.184  0.00  0.00    +0.000 C 
ATOM     24  C   UNL     1      -3.014  12.624  20.206  0.00  0.00    +0.000 C 
ATOM     25  O   UNL     1      -3.189  11.913  18.975  0.00  0.00    +0.000 OA
ATOM     26  C   UNL     1      -2.044  11.124  18.634  0.00  0.00    +0.000 C 
ATOM     27  C   UNL     1      -0.755  11.946  18.560  0.00  0.00    +0.000 C 
ENDBRANCH  19  22
ENDBRANCH   6  19
TORSDOF 4
ENDMDL
MODEL 8
REMARK VINA RESULT:      -7.2      1.013      1.141
REMARK  Name = 
REMARK  7 active torsions:
REMARK  status: ('A' for Active; 'I' for Inactive)
REMARK    1  A    between atoms: C_1  and  C_2
REMARK    2  A    between atoms: C_4  and  C_5
REMARK    3  A    between atoms: N_7  and  C_8
REMARK    4  A    between atoms: C_11  and  C_12
REMARK    5  A    between atoms: C_13  and  S_14
REMARK    6  A    between atoms: S_14  and  N_17
REMARK    7  A    between atoms: C_24  and  C_25
REMARK                            x       y       z     vdW  Elec       q    Type
REMARK                         _______ _______ _______ _____ _____    ______ ____
ROOT
ATOM      1  C   UNL     1       2.122   6.993  19.972  0.00  0.00    +0.000 A 
ATOM      2  C   UNL     1       1.293   6.070  20.616  0.00  0.00    +0.000 A 
ATOM      3  C   UNL     1       1.644   4.721  20.729  0.00  0.00    +0.000 A 
ATOM      4  C   UNL     1       2.851   4.230  20.210  0.00  0.00    +0.000 A 
ATOM      5  C   UNL     1       3.106   2.751  20.309  0.00  0.00    +0.000 C 
ATOM      6  C   UNL     1       3.721   5.167  19.612  0.00  0.00    +0.000 A 
ATOM      7  C   UNL     1       3.333   6.522  19.448  0.00  0.00    +0.000 A 
ENDROOT
BRANCH   1  10
ATOM      8  C   UNL     1       1.529   9.016  18.604  0.00  0.00    +0.000 C 
ATOM      9  O   UNL     1       1.507   8.419  17.535  0.00  0.00    +0.000 OA
ATOM     10  N   UNL     1       1.775   8.377  19.828  0.00  0.00    +0.000 N 
ATOM     11  H   UNL     1       1.612   8.900  20.673  0.00  0.00    +0.000 HD
BRANCH   8  15
ATOM     12  C   UNL     1       1.458  14.193  18.645  0.00  0.00    +0.000 C 
ATOM     13  C   UNL     1       1.257  12.726  18.646  0.00  0.00    +0.000 A 
ATOM     14  C   UNL     1       2.083  11.620  18.611  0.00  0.00    +0.000 A 
ATOM     15  C   UNL     1       1.238  10.458  18.633  0.00  0.00    +0.000 A 
ATOM     16  C   UNL     1      -0.057  10.974  18.672  0.00  0.00    +0.000 A 
ATOM     17  C   UNL     1      -1.427  10.404  18.704  0.00  0.00    +0.000 C 
ATOM     18  O   UNL     1      -0.037  12.334  18.685  0.00  0.00    +0.000 OA
ENDBRANCH   8  15
ENDBRANCH   1  10
BRANCH   6  19
ATOM     19  S   UNL     1       5.360   4.684  19.060  0.00  0.00    +0.000 S 
ATOM     20  O   UNL     1       6.327   5.518  19.735  0.00  0.00    +0.000 OA
ATOM     21  O   UNL     1       5.443   3.236  19.144  0.00  0.00    +0.000 OA
BRANCH  19  22
ATOM     22  N   UNL     1       5.320   5.072  17.427  0.00  0.00    +0.000 NA
ATOM     23  C   UNL     1       4.729   4.136  16.447  0.00  0.00    +0.000 C 
ATOM     24  C   UNL     1       5.785   3.598  15.476  0.00  0.00    +0.000 C 
ATOM     25  O   UNL     1       6.556   4.643  14.873  0.00  0.00    +0.000 OA
ATOM     26  C   UNL     1       7.208   5.469  15.844  0.00  0.00    +0.000 C 
ATOM     27  C   UNL     1       6.235   6.082  16.855  0.00  0.00    +0.000 C 
ENDBRANCH  19  22
ENDBRANCH   6  19
TORSDOF 4
ENDMDL
MODEL 9
REMARK VINA RESULT:      -7.1      1.671      1.939
REMARK  Name = 
REMARK  7 active torsions:
REMARK  status: ('A' for Active; 'I' for Inactive)
REMARK    1  A    between atoms: C_1  and  C_2
REMARK    2  A    between atoms: C_4  and  C_5
REMARK    3  A    between atoms: N_7  and  C_8
REMARK    4  A    between atoms: C_11  and  C_12
REMARK    5  A    between atoms: C_13  and  S_14
REMARK    6  A    between atoms: S_14  and  N_17
REMARK    7  A    between atoms: C_24  and  C_25
REMARK                            x       y       z     vdW  Elec       q    Type
REMARK                         _______ _______ _______ _____ _____    ______ ____
ROOT
ATOM      1  C   UNL     1       1.847   6.426  20.451  0.00  0.00    +0.000 A 
ATOM      2  C   UNL     1       0.927   5.376  20.520  0.00  0.00    +0.000 A 
ATOM      3  C   UNL     1       1.249   4.086  20.085  0.00  0.00    +0.000 A 
ATOM      4  C   UNL     1       2.517   3.780  19.568  0.00  0.00    +0.000 A 
ATOM      5  C   UNL     1       2.747   2.386  19.053  0.00  0.00    +0.000 C 
ATOM      6  C   UNL     1       3.471   4.821  19.553  0.00  0.00    +0.000 A 
ATOM      7  C   UNL     1       3.120   6.140  19.939  0.00  0.00    +0.000 A 
ENDROOT
BRANCH   1  10
ATOM      8  C   UNL     1       1.176   8.807  20.012  0.00  0.00    +0.000 C 
ATOM      9  O   UNL     1       1.018   8.653  18.808  0.00  0.00    +0.000 OA
ATOM     10  N   UNL     1       1.533   7.759  20.873  0.00  0.00    +0.000 N 
ATOM     11  H   UNL     1       1.480   7.926  21.865  0.00  0.00    +0.000 HD
BRANCH   8  15
ATOM     12  C   UNL     1       0.770  13.800  21.323  0.00  0.00    +0.000 C 
ATOM     13  C   UNL     1       0.783  12.331  21.139  0.00  0.00    +0.000 A 
ATOM     14  C   UNL     1       1.264  11.463  20.179  0.00  0.00    +0.000 A 
ATOM     15  C   UNL     1       0.939  10.131  20.609  0.00  0.00    +0.000 A 
ATOM     16  C   UNL     1       0.267  10.313  21.817  0.00  0.00    +0.000 A 
ATOM     17  C   UNL     1      -0.364   9.425  22.825  0.00  0.00    +0.000 C 
ATOM     18  O   UNL     1       0.182  11.634  22.131  0.00  0.00    +0.000 OA
ENDBRANCH   8  15
ENDBRANCH   1  10
BRANCH   6  19
ATOM     19  S   UNL     1       5.172   4.507  19.066  0.00  0.00    +0.000 S 
ATOM     20  O   UNL     1       5.990   5.584  19.571  0.00  0.00    +0.000 OA
ATOM     21  O   UNL     1       5.476   3.126  19.399  0.00  0.00    +0.000 OA
BRANCH  19  22
ATOM     22  N   UNL     1       5.090   4.594  17.392  0.00  0.00    +0.000 NA
ATOM     23  C   UNL     1       6.086   3.893  16.553  0.00  0.00    +0.000 C 
ATOM     24  C   UNL     1       6.953   4.882  15.766  0.00  0.00    +0.000 C 
ATOM     25  O   UNL     1       6.171   5.839  15.043  0.00  0.00    +0.000 OA
ATOM     26  C   UNL     1       5.293   6.582  15.896  0.00  0.00    +0.000 C 
ATOM     27  C   UNL     1       4.359   5.686  16.715  0.00  0.00    +0.000 C 
ENDBRANCH  19  22
ENDBRANCH   6  19
TORSDOF 4
ENDMDL
