MODEL 1
REMARK VINA RESULT:      -8.6      0.000      0.000
REMARK  Name = 
REMARK  11 active torsions:
REMARK  status: ('A' for Active; 'I' for Inactive)
REMARK    1  A    between atoms: C_1  and  C_2
REMARK    2  A    between atoms: C_9  and  C_10
REMARK    3  A    between atoms: C_9  and  C_11
REMARK    4  A    between atoms: C_11  and  C_12
REMARK    5  A    between atoms: C_12  and  C_13
REMARK    6  A    between atoms: N_15  and  C_16
REMARK    7  A    between atoms: C_17  and  O_18
REMARK    8  A    between atoms: C_21  and  C_22
REMARK    9  A    between atoms: C_22  and  O_24
REMARK   10  A    between atoms: C_25  and  O_26
REMARK   11  A    between atoms: C_30  and  O_31
REMARK                            x       y       z     vdW  Elec       q    Type
REMARK                         _______ _______ _______ _____ _____    ______ ____
ROOT
ATOM      1  C   UNL     1       4.486   7.383  18.038  0.00  0.00    +0.000 C 
ENDROOT
BRANCH   1  10
ATOM      2  C   UNL     1       2.071   1.532  19.225  0.00  0.00    +0.000 C 
ATOM      3  C   UNL     1       2.899   2.761  18.902  0.00  0.00    +0.000 C 
ATOM      4  C   UNL     1       4.091   2.382  18.011  0.00  0.00    +0.000 C 
ATOM      5  C   UNL     1       4.304   3.698  17.268  0.00  0.00    +0.000 C 
ATOM      6  C   UNL     1       5.222   3.576  16.098  0.00  0.00    +0.000 C 
ATOM      7  C   UNL     1       5.698   4.657  15.498  0.00  0.00    +0.000 C 
ATOM      8  C   UNL     1       5.307   5.980  16.072  0.00  0.00    +0.000 C 
ATOM      9  O   UNL     1       5.089   6.902  15.298  0.00  0.00    +0.000 OA
ATOM     10  C   UNL     1       5.308   6.125  17.613  0.00  0.00    +0.000 C 
ATOM     11  C   UNL     1       6.800   6.311  17.955  0.00  0.00    +0.000 C 
ATOM     12  C   UNL     1       4.815   4.764  18.307  0.00  0.00    +0.000 C 
ATOM     13  C   UNL     1       3.772   4.821  19.486  0.00  0.00    +0.000 C 
ATOM     14  C   UNL     1       2.374   5.126  19.009  0.00  0.00    +0.000 C 
ATOM     15  C   UNL     1       2.107   3.885  18.167  0.00  0.00    +0.000 C 
ATOM     16  C   UNL     1       2.845   3.986  16.836  0.00  0.00    +0.000 C 
ATOM     17  O   UNL     1       3.532   3.460  20.004  0.00  0.00    +0.000 OA
BRANCH  15  18
ATOM     18  O   UNL     1       0.722   3.690  18.005  0.00  0.00    +0.000 OA
ATOM     19  H   UNL     1       0.599   2.944  17.392  0.00  0.00    +0.000 HD
ENDBRANCH  15  18
ENDBRANCH   1  10
BRANCH   1  20
ATOM     20  C   UNL     1       3.161   7.757  17.346  0.00  0.00    +0.000 C 
BRANCH  20  21
ATOM     21  C   UNL     1       2.309   8.878  17.928  0.00  0.00    +0.000 C 
ATOM     22  O   UNL     1       2.439  10.026  17.503  0.00  0.00    +0.000 OA
ATOM     23  N   UNL     1       1.465   8.495  18.951  0.00  0.00    +0.000 N 
ATOM     24  H   UNL     1       1.760   7.719  19.530  0.00  0.00    +0.000 HD
BRANCH  23  25
ATOM     25  C   UNL     1       0.652   9.447  19.619  0.00  0.00    +0.000 A 
ATOM     26  C   UNL     1       0.811   9.601  21.003  0.00  0.00    +0.000 A 
ATOM     27  C   UNL     1       0.133  10.594  21.706  0.00  0.00    +0.000 A 
ATOM     28  C   UNL     1      -0.763  11.422  21.028  0.00  0.00    +0.000 A 
ATOM     29  C   UNL     1      -0.995  11.231  19.654  0.00  0.00    +0.000 A 
ATOM     30  C   UNL     1      -0.278  10.253  18.950  0.00  0.00    +0.000 A 
BRANCH  26  31
ATOM     31  O   UNL     1       1.715   8.816  21.664  0.00  0.00    +0.000 OA
ATOM     32  H   UNL     1       1.399   8.768  22.585  0.00  0.00    +0.000 HD
ENDBRANCH  26  31
BRANCH  29  33
ATOM     33  C   UNL     1      -1.979  12.053  18.925  0.00  0.00    +0.000 C 
ATOM     34  O   UNL     1      -3.154  12.117  19.259  0.00  0.00    +0.000 OA
BRANCH  33  35
ATOM     35  O   UNL     1      -1.445  12.777  17.914  0.00  0.00    +0.000 OA
ATOM     36  H   UNL     1      -0.491  12.960  18.003  0.00  0.00    +0.000 HD
ENDBRANCH  33  35
ENDBRANCH  29  33
BRANCH  30  37
ATOM     37  O   UNL     1      -0.538  10.002  17.625  0.00  0.00    +0.000 OA
ATOM     38  H   UNL     1      -0.968   9.123  17.557  0.00  0.00    +0.000 HD
ENDBRANCH  30  37
ENDBRANCH  23  25
ENDBRANCH  20  21
ENDBRANCH   1  20
TORSDOF 9
ENDMDL
MODEL 2
REMARK VINA RESULT:      -8.6      2.176      9.138
REMARK  Name = 
REMARK  11 active torsions:
REMARK  status: ('A' for Active; 'I' for Inactive)
REMARK    1  A    between atoms: C_1  and  C_2
REMARK    2  A    between atoms: C_9  and  C_10
REMARK    3  A    between atoms: C_9  and  C_11
REMARK    4  A    between atoms: C_11  and  C_12
REMARK    5  A    between atoms: C_12  and  C_13
REMARK    6  A    between atoms: N_15  and  C_16
REMARK    7  A    between atoms: C_17  and  O_18
REMARK    8  A    between atoms: C_21  and  C_22
REMARK    9  A    between atoms: C_22  and  O_24
REMARK   10  A    between atoms: C_25  and  O_26
REMARK   11  A    between atoms: C_30  and  O_31
REMARK                            x       y       z     vdW  Elec       q    Type
REMARK                         _______ _______ _______ _____ _____    ______ ____
ROOT
ATOM      1  C   UNL     1       0.982   8.773  20.461  0.00  0.00    +0.000 C 
ENDROOT
BRANCH   1  10
ATOM      2  C   UNL     1      -0.318  14.907  18.987  0.00  0.00    +0.000 C 
ATOM      3  C   UNL     1       0.051  13.572  19.608  0.00  0.00    +0.000 C 
ATOM      4  C   UNL     1      -0.186  13.607  21.126  0.00  0.00    +0.000 C 
ATOM      5  C   UNL     1      -0.460  12.129  21.390  0.00  0.00    +0.000 C 
ATOM      6  C   UNL     1      -1.021  11.865  22.748  0.00  0.00    +0.000 C 
ATOM      7  C   UNL     1      -1.088  10.629  23.222  0.00  0.00    +0.000 C 
ATOM      8  C   UNL     1      -0.545   9.540  22.356  0.00  0.00    +0.000 C 
ATOM      9  O   UNL     1      -1.134   8.467  22.341  0.00  0.00    +0.000 OA
ATOM     10  C   UNL     1       0.790   9.804  21.618  0.00  0.00    +0.000 C 
ATOM     11  C   UNL     1       1.854   9.595  22.714  0.00  0.00    +0.000 C 
ATOM     12  C   UNL     1       0.875  11.336  21.142  0.00  0.00    +0.000 C 
ATOM     13  C   UNL     1       1.369  11.675  19.685  0.00  0.00    +0.000 C 
ATOM     14  C   UNL     1       0.330  11.370  18.635  0.00  0.00    +0.000 C 
ATOM     15  C   UNL     1      -0.750  12.363  19.039  0.00  0.00    +0.000 C 
ATOM     16  C   UNL     1      -1.495  11.857  20.270  0.00  0.00    +0.000 C 
ATOM     17  O   UNL     1       1.432  13.138  19.509  0.00  0.00    +0.000 OA
BRANCH  15  18
ATOM     18  O   UNL     1      -1.611  12.620  17.954  0.00  0.00    +0.000 OA
ATOM     19  H   UNL     1      -2.372  12.017  18.032  0.00  0.00    +0.000 HD
ENDBRANCH  15  18
ENDBRANCH   1  10
BRANCH   1  20
ATOM     20  C   UNL     1       1.802   7.482  20.653  0.00  0.00    +0.000 C 
BRANCH  20  21
ATOM     21  C   UNL     1       2.536   6.884  19.460  0.00  0.00    +0.000 C 
ATOM     22  O   UNL     1       2.444   7.421  18.356  0.00  0.00    +0.000 OA
ATOM     23  N   UNL     1       3.231   5.722  19.729  0.00  0.00    +0.000 N 
ATOM     24  H   UNL     1       2.872   5.125  20.464  0.00  0.00    +0.000 HD
BRANCH  23  25
ATOM     25  C   UNL     1       3.918   5.029  18.698  0.00  0.00    +0.000 A 
ATOM     26  C   UNL     1       3.163   4.285  17.781  0.00  0.00    +0.000 A 
ATOM     27  C   UNL     1       3.756   3.676  16.677  0.00  0.00    +0.000 A 
ATOM     28  C   UNL     1       5.138   3.766  16.506  0.00  0.00    +0.000 A 
ATOM     29  C   UNL     1       5.922   4.443  17.458  0.00  0.00    +0.000 A 
ATOM     30  C   UNL     1       5.309   5.084  18.545  0.00  0.00    +0.000 A 
BRANCH  26  31
ATOM     31  O   UNL     1       1.805   4.225  17.926  0.00  0.00    +0.000 OA
ATOM     32  H   UNL     1       1.599   4.769  18.709  0.00  0.00    +0.000 HD
ENDBRANCH  26  31
BRANCH  29  33
ATOM     33  C   UNL     1       7.390   4.503  17.334  0.00  0.00    +0.000 C 
ATOM     34  O   UNL     1       8.136   4.335  18.289  0.00  0.00    +0.000 OA
BRANCH  33  35
ATOM     35  O   UNL     1       7.824   4.684  16.064  0.00  0.00    +0.000 OA
ATOM     36  H   UNL     1       8.784   4.560  15.940  0.00  0.00    +0.000 HD
ENDBRANCH  33  35
ENDBRANCH  29  33
BRANCH  30  37
ATOM     37  O   UNL     1       6.059   5.690  19.523  0.00  0.00    +0.000 OA
ATOM     38  H   UNL     1       6.825   6.129  19.095  0.00  0.00    +0.000 HD
ENDBRANCH  30  37
ENDBRANCH  23  25
ENDBRANCH  20  21
ENDBRANCH   1  20
TORSDOF 9
ENDMDL
MODEL 3
REMARK VINA RESULT:      -8.5      4.931      7.029
REMARK  Name = 
REMARK  11 active torsions:
REMARK  status: ('A' for Active; 'I' for Inactive)
REMARK    1  A    between atoms: C_1  and  C_2
REMARK    2  A    between atoms: C_9  and  C_10
REMARK    3  A    between atoms: C_9  and  C_11
REMARK    4  A    between atoms: C_11  and  C_12
REMARK    5  A    between atoms: C_12  and  C_13
REMARK    6  A    between atoms: N_15  and  C_16
REMARK    7  A    between atoms: C_17  and  O_18
REMARK    8  A    between atoms: C_21  and  C_22
REMARK    9  A    between atoms: C_22  and  O_24
REMARK   10  A    between atoms: C_25  and  O_26
REMARK   11  A    between atoms: C_30  and  O_31
REMARK                            x       y       z     vdW  Elec       q    Type
REMARK                         _______ _______ _______ _____ _____    ______ ____
ROOT
ATOM      1  C   UNL     1       7.043   6.798  18.239  0.00  0.00    +0.000 C 
ENDROOT
BRANCH   1  10
ATOM      2  C   UNL     1       1.489   3.605  18.899  0.00  0.00    +0.000 C 
ATOM      3  C   UNL     1       2.914   4.083  18.697  0.00  0.00    +0.000 C 
ATOM      4  C   UNL     1       3.690   3.089  17.819  0.00  0.00    +0.000 C 
ATOM      5  C   UNL     1       4.713   4.029  17.186  0.00  0.00    +0.000 C 
ATOM      6  C   UNL     1       5.449   3.418  16.040  0.00  0.00    +0.000 C 
ATOM      7  C   UNL     1       6.526   4.004  15.540  0.00  0.00    +0.000 C 
ATOM      8  C   UNL     1       6.980   5.265  16.200  0.00  0.00    +0.000 C 
ATOM      9  O   UNL     1       7.425   6.159  15.491  0.00  0.00    +0.000 OA
ATOM     10  C   UNL     1       6.958   5.318  17.746  0.00  0.00    +0.000 C 
ATOM     11  C   UNL     1       8.225   4.538  18.150  0.00  0.00    +0.000 C 
ATOM     12  C   UNL     1       5.690   4.516  18.319  0.00  0.00    +0.000 C 
ATOM     13  C   UNL     1       4.815   5.152  19.464  0.00  0.00    +0.000 C 
ATOM     14  C   UNL     1       3.930   6.268  18.966  0.00  0.00    +0.000 C 
ATOM     15  C   UNL     1       3.025   5.484  18.025  0.00  0.00    +0.000 C 
ATOM     16  C   UNL     1       3.766   5.166  16.729  0.00  0.00    +0.000 C 
ATOM     17  O   UNL     1       3.761   4.203  19.869  0.00  0.00    +0.000 OA
BRANCH  15  18
ATOM     18  O   UNL     1       1.824   6.184  17.803  0.00  0.00    +0.000 OA
ATOM     19  H   UNL     1       1.813   6.950  18.405  0.00  0.00    +0.000 HD
ENDBRANCH  15  18
ENDBRANCH   1  10
BRANCH   1  20
ATOM     20  C   UNL     1       8.382   7.439  18.654  0.00  0.00    +0.000 C 
BRANCH  20  21
ATOM     21  C   UNL     1       8.531   8.953  18.594  0.00  0.00    +0.000 C 
ATOM     22  O   UNL     1       7.860   9.600  17.789  0.00  0.00    +0.000 OA
ATOM     23  N   UNL     1       9.474   9.479  19.453  0.00  0.00    +0.000 N 
ATOM     24  H   UNL     1      10.266   8.893  19.689  0.00  0.00    +0.000 HD
BRANCH  23  25
ATOM     25  C   UNL     1       9.753  10.870  19.466  0.00  0.00    +0.000 A 
ATOM     26  C   UNL     1       9.421  11.603  20.614  0.00  0.00    +0.000 A 
ATOM     27  C   UNL     1       9.770  12.945  20.745  0.00  0.00    +0.000 A 
ATOM     28  C   UNL     1      10.420  13.589  19.690  0.00  0.00    +0.000 A 
ATOM     29  C   UNL     1      10.692  12.891  18.500  0.00  0.00    +0.000 A 
ATOM     30  C   UNL     1      10.370  11.530  18.395  0.00  0.00    +0.000 A 
BRANCH  26  31
ATOM     31  O   UNL     1       8.817  10.967  21.662  0.00  0.00    +0.000 OA
ATOM     32  H   UNL     1       7.876  11.219  21.616  0.00  0.00    +0.000 HD
ENDBRANCH  26  31
BRANCH  29  33
ATOM     33  C   UNL     1      11.325  13.562  17.349  0.00  0.00    +0.000 C 
ATOM     34  O   UNL     1      11.009  14.689  16.994  0.00  0.00    +0.000 OA
BRANCH  33  35
ATOM     35  O   UNL     1      12.326  12.848  16.783  0.00  0.00    +0.000 OA
ATOM     36  H   UNL     1      13.097  13.377  16.505  0.00  0.00    +0.000 HD
ENDBRANCH  33  35
ENDBRANCH  29  33
BRANCH  30  37
ATOM     37  O   UNL     1      10.562  10.847  17.219  0.00  0.00    +0.000 OA
ATOM     38  H   UNL     1      11.458  10.447  17.239  0.00  0.00    +0.000 HD
ENDBRANCH  30  37
ENDBRANCH  23  25
ENDBRANCH  20  21
ENDBRANCH   1  20
TORSDOF 9
ENDMDL
MODEL 4
REMARK VINA RESULT:      -8.4      1.589      3.718
REMARK  Name = 
REMARK  11 active torsions:
REMARK  status: ('A' for Active; 'I' for Inactive)
REMARK    1  A    between atoms: C_1  and  C_2
REMARK    2  A    between atoms: C_9  and  C_10
REMARK    3  A    between atoms: C_9  and  C_11
REMARK    4  A    between atoms: C_11  and  C_12
REMARK    5  A    between atoms: C_12  and  C_13
REMARK    6  A    between atoms: N_15  and  C_16
REMARK    7  A    between atoms: C_17  and  O_18
REMARK    8  A    between atoms: C_21  and  C_22
REMARK    9  A    between atoms: C_22  and  O_24
REMARK   10  A    between atoms: C_25  and  O_26
REMARK   11  A    between atoms: C_30  and  O_31
REMARK                            x       y       z     vdW  Elec       q    Type
REMARK                         _______ _______ _______ _____ _____    ______ ____
ROOT
ATOM      1  C   UNL     1       2.959   6.872  18.979  0.00  0.00    +0.000 C 
ENDROOT
BRANCH   1  10
ATOM      2  C   UNL     1       7.590   4.920  14.951  0.00  0.00    +0.000 C 
ATOM      3  C   UNL     1       6.340   5.154  15.778  0.00  0.00    +0.000 C 
ATOM      4  C   UNL     1       5.542   3.849  15.920  0.00  0.00    +0.000 C 
ATOM      5  C   UNL     1       4.843   4.101  17.253  0.00  0.00    +0.000 C 
ATOM      6  C   UNL     1       4.204   2.881  17.827  0.00  0.00    +0.000 C 
ATOM      7  C   UNL     1       3.362   2.976  18.845  0.00  0.00    +0.000 C 
ATOM      8  C   UNL     1       3.060   4.349  19.350  0.00  0.00    +0.000 C 
ATOM      9  O   UNL     1       2.924   4.502  20.557  0.00  0.00    +0.000 OA
ATOM     10  C   UNL     1       2.833   5.468  18.306  0.00  0.00    +0.000 C 
ATOM     11  C   UNL     1       1.388   5.224  17.826  0.00  0.00    +0.000 C 
ATOM     12  C   UNL     1       3.806   5.265  17.044  0.00  0.00    +0.000 C 
ATOM     13  C   UNL     1       4.584   6.499  16.451  0.00  0.00    +0.000 C 
ATOM     14  C   UNL     1       5.742   6.927  17.319  0.00  0.00    +0.000 C 
ATOM     15  C   UNL     1       6.620   5.687  17.215  0.00  0.00    +0.000 C 
ATOM     16  C   UNL     1       6.058   4.571  18.091  0.00  0.00    +0.000 C 
ATOM     17  O   UNL     1       5.349   6.080  15.261  0.00  0.00    +0.000 OA
BRANCH  15  18
ATOM     18  O   UNL     1       7.955   6.003  17.531  0.00  0.00    +0.000 OA
ATOM     19  H   UNL     1       8.063   5.895  18.493  0.00  0.00    +0.000 HD
ENDBRANCH  15  18
ENDBRANCH   1  10
BRANCH   1  20
ATOM     20  C   UNL     1       2.477   8.155  18.275  0.00  0.00    +0.000 C 
BRANCH  20  21
ATOM     21  C   UNL     1       1.398   9.004  18.934  0.00  0.00    +0.000 C 
ATOM     22  O   UNL     1       1.044   8.752  20.086  0.00  0.00    +0.000 OA
ATOM     23  N   UNL     1       0.864   9.991  18.131  0.00  0.00    +0.000 N 
ATOM     24  H   UNL     1       0.845   9.819  17.134  0.00  0.00    +0.000 HD
BRANCH  23  25
ATOM     25  C   UNL     1      -0.186  10.823  18.601  0.00  0.00    +0.000 A 
ATOM     26  C   UNL     1       0.107  11.762  19.600  0.00  0.00    +0.000 A 
ATOM     27  C   UNL     1      -0.840  12.689  20.026  0.00  0.00    +0.000 A 
ATOM     28  C   UNL     1      -2.126  12.652  19.483  0.00  0.00    +0.000 A 
ATOM     29  C   UNL     1      -2.462  11.668  18.536  0.00  0.00    +0.000 A 
ATOM     30  C   UNL     1      -1.488  10.764  18.087  0.00  0.00    +0.000 A 
BRANCH  26  31
ATOM     31  O   UNL     1       1.375  11.824  20.107  0.00  0.00    +0.000 OA
ATOM     32  H   UNL     1       1.324  11.424  20.996  0.00  0.00    +0.000 HD
ENDBRANCH  26  31
BRANCH  29  33
ATOM     33  C   UNL     1      -3.828  11.570  17.990  0.00  0.00    +0.000 C 
ATOM     34  O   UNL     1      -4.796  11.306  18.691  0.00  0.00    +0.000 OA
BRANCH  33  35
ATOM     35  O   UNL     1      -3.913  11.870  16.673  0.00  0.00    +0.000 OA
ATOM     36  H   UNL     1      -3.058  11.903  16.206  0.00  0.00    +0.000 HD
ENDBRANCH  33  35
ENDBRANCH  29  33
BRANCH  30  37
ATOM     37  O   UNL     1      -1.811   9.752  17.217  0.00  0.00    +0.000 OA
ATOM     38  H   UNL     1      -1.818  10.119  16.308  0.00  0.00    +0.000 HD
ENDBRANCH  30  37
ENDBRANCH  23  25
ENDBRANCH  20  21
ENDBRANCH   1  20
TORSDOF 9
ENDMDL
MODEL 5
REMARK VINA RESULT:      -8.4      1.794      4.064
REMARK  Name = 
REMARK  11 active torsions:
REMARK  status: ('A' for Active; 'I' for Inactive)
REMARK    1  A    between atoms: C_1  and  C_2
REMARK    2  A    between atoms: C_9  and  C_10
REMARK    3  A    between atoms: C_9  and  C_11
REMARK    4  A    between atoms: C_11  and  C_12
REMARK    5  A    between atoms: C_12  and  C_13
REMARK    6  A    between atoms: N_15  and  C_16
REMARK    7  A    between atoms: C_17  and  O_18
REMARK    8  A    between atoms: C_21  and  C_22
REMARK    9  A    between atoms: C_22  and  O_24
REMARK   10  A    between atoms: C_25  and  O_26
REMARK   11  A    between atoms: C_30  and  O_31
REMARK                            x       y       z     vdW  Elec       q    Type
REMARK                         _______ _______ _______ _____ _____    ______ ____
ROOT
ATOM      1  C   UNL     1       2.988   6.745  19.106  0.00  0.00    +0.000 C 
ENDROOT
BRANCH   1  10
ATOM      2  C   UNL     1       7.547   4.944  14.928  0.00  0.00    +0.000 C 
ATOM      3  C   UNL     1       6.309   5.153  15.779  0.00  0.00    +0.000 C 
ATOM      4  C   UNL     1       5.487   3.857  15.853  0.00  0.00    +0.000 C 
ATOM      5  C   UNL     1       4.805   4.045  17.205  0.00  0.00    +0.000 C 
ATOM      6  C   UNL     1       4.147   2.806  17.714  0.00  0.00    +0.000 C 
ATOM      7  C   UNL     1       3.315   2.857  18.743  0.00  0.00    +0.000 C 
ATOM      8  C   UNL     1       3.044   4.204  19.330  0.00  0.00    +0.000 C 
ATOM      9  O   UNL     1       2.921   4.289  20.545  0.00  0.00    +0.000 OA
ATOM     10  C   UNL     1       2.830   5.386  18.353  0.00  0.00    +0.000 C 
ATOM     11  C   UNL     1       1.377   5.196  17.874  0.00  0.00    +0.000 C 
ATOM     12  C   UNL     1       3.788   5.238  17.073  0.00  0.00    +0.000 C 
ATOM     13  C   UNL     1       4.585   6.490  16.545  0.00  0.00    +0.000 C 
ATOM     14  C   UNL     1       5.757   6.845  17.426  0.00  0.00    +0.000 C 
ATOM     15  C   UNL     1       6.611   5.597  17.242  0.00  0.00    +0.000 C 
ATOM     16  C   UNL     1       6.035   4.443  18.058  0.00  0.00    +0.000 C 
ATOM     17  O   UNL     1       5.332   6.126  15.326  0.00  0.00    +0.000 OA
BRANCH  15  18
ATOM     18  O   UNL     1       7.954   5.869  17.563  0.00  0.00    +0.000 OA
ATOM     19  H   UNL     1       8.392   6.188  16.753  0.00  0.00    +0.000 HD
ENDBRANCH  15  18
ENDBRANCH   1  10
BRANCH   1  20
ATOM     20  C   UNL     1       2.465   8.067  18.510  0.00  0.00    +0.000 C 
BRANCH  20  21
ATOM     21  C   UNL     1       1.438   8.878  19.289  0.00  0.00    +0.000 C 
ATOM     22  O   UNL     1       1.007   8.448  20.359  0.00  0.00    +0.000 OA
ATOM     23  N   UNL     1       1.037  10.049  18.678  0.00  0.00    +0.000 N 
ATOM     24  H   UNL     1       1.051  10.073  17.666  0.00  0.00    +0.000 HD
BRANCH  23  25
ATOM     25  C   UNL     1       0.047  10.877  19.268  0.00  0.00    +0.000 A 
ATOM     26  C   UNL     1      -1.135  11.112  18.553  0.00  0.00    +0.000 A 
ATOM     27  C   UNL     1      -2.197  11.816  19.115  0.00  0.00    +0.000 A 
ATOM     28  C   UNL     1      -2.064  12.343  20.401  0.00  0.00    +0.000 A 
ATOM     29  C   UNL     1      -0.856  12.184  21.105  0.00  0.00    +0.000 A 
ATOM     30  C   UNL     1       0.192  11.441  20.543  0.00  0.00    +0.000 A 
BRANCH  26  31
ATOM     31  O   UNL     1      -1.282  10.567  17.307  0.00  0.00    +0.000 OA
ATOM     32  H   UNL     1      -2.108  10.943  16.951  0.00  0.00    +0.000 HD
ENDBRANCH  26  31
BRANCH  29  33
ATOM     33  C   UNL     1      -0.668  12.780  22.440  0.00  0.00    +0.000 C 
ATOM     34  O   UNL     1      -1.211  12.331  23.440  0.00  0.00    +0.000 OA
BRANCH  33  35
ATOM     35  O   UNL     1       0.212  13.809  22.461  0.00  0.00    +0.000 OA
ATOM     36  H   UNL     1       0.129  14.400  23.232  0.00  0.00    +0.000 HD
ENDBRANCH  33  35
ENDBRANCH  29  33
BRANCH  30  37
ATOM     37  O   UNL     1       1.403  11.332  21.181  0.00  0.00    +0.000 OA
ATOM     38  H   UNL     1       1.504  12.101  21.782  0.00  0.00    +0.000 HD
ENDBRANCH  30  37
ENDBRANCH  23  25
ENDBRANCH  20  21
ENDBRANCH   1  20
TORSDOF 9
ENDMDL
MODEL 6
REMARK VINA RESULT:      -8.3      1.465      3.614
REMARK  Name = 
REMARK  11 active torsions:
REMARK  status: ('A' for Active; 'I' for Inactive)
REMARK    1  A    between atoms: C_1  and  C_2
REMARK    2  A    between atoms: C_9  and  C_10
REMARK    3  A    between atoms: C_9  and  C_11
REMARK    4  A    between atoms: C_11  and  C_12
REMARK    5  A    between atoms: C_12  and  C_13
REMARK    6  A    between atoms: N_15  and  C_16
REMARK    7  A    between atoms: C_17  and  O_18
REMARK    8  A    between atoms: C_21  and  C_22
REMARK    9  A    between atoms: C_22  and  O_24
REMARK   10  A    between atoms: C_25  and  O_26
REMARK   11  A    between atoms: C_30  and  O_31
REMARK                            x       y       z     vdW  Elec       q    Type
REMARK                         _______ _______ _______ _____ _____    ______ ____
ROOT
ATOM      1  C   UNL     1       2.863   6.021  19.825  0.00  0.00    +0.000 C 
ENDROOT
BRANCH   1  10
ATOM      2  C   UNL     1       7.111   5.081  15.076  0.00  0.00    +0.000 C 
ATOM      3  C   UNL     1       5.938   5.110  16.038  0.00  0.00    +0.000 C 
ATOM      4  C   UNL     1       5.138   3.802  15.943  0.00  0.00    +0.000 C 
ATOM      5  C   UNL     1       4.558   3.736  17.353  0.00  0.00    +0.000 C 
ATOM      6  C   UNL     1       3.954   2.412  17.683  0.00  0.00    +0.000 C 
ATOM      7  C   UNL     1       3.201   2.264  18.764  0.00  0.00    +0.000 C 
ATOM      8  C   UNL     1       2.962   3.482  19.596  0.00  0.00    +0.000 C 
ATOM      9  O   UNL     1       2.930   3.351  20.812  0.00  0.00    +0.000 OA
ATOM     10  C   UNL     1       2.662   4.810  18.860  0.00  0.00    +0.000 C 
ATOM     11  C   UNL     1       1.179   4.673  18.461  0.00  0.00    +0.000 C 
ATOM     12  C   UNL     1       3.522   4.910  17.507  0.00  0.00    +0.000 C 
ATOM     13  C   UNL     1       4.264   6.253  17.150  0.00  0.00    +0.000 C 
ATOM     14  C   UNL     1       5.496   6.476  17.992  0.00  0.00    +0.000 C 
ATOM     15  C   UNL     1       6.346   5.300  17.530  0.00  0.00    +0.000 C 
ATOM     16  C   UNL     1       5.845   4.008  18.171  0.00  0.00    +0.000 C 
ATOM     17  O   UNL     1       4.920   6.124  15.835  0.00  0.00    +0.000 OA
BRANCH  15  18
ATOM     18  O   UNL     1       7.707   5.543  17.796  0.00  0.00    +0.000 OA
ATOM     19  H   UNL     1       7.962   4.989  18.555  0.00  0.00    +0.000 HD
ENDBRANCH  15  18
ENDBRANCH   1  10
BRANCH   1  20
ATOM     20  C   UNL     1       1.702   6.590  20.664  0.00  0.00    +0.000 C 
BRANCH  20  21
ATOM     21  C   UNL     1       1.266   8.033  20.446  0.00  0.00    +0.000 C 
ATOM     22  O   UNL     1       1.877   8.740  19.646  0.00  0.00    +0.000 OA
ATOM     23  N   UNL     1       0.207   8.445  21.231  0.00  0.00    +0.000 N 
ATOM     24  H   UNL     1       0.104   8.008  22.138  0.00  0.00    +0.000 HD
BRANCH  23  25
ATOM     25  C   UNL     1      -0.270   9.780  21.169  0.00  0.00    +0.000 A 
ATOM     26  C   UNL     1      -0.261  10.544  22.344  0.00  0.00    +0.000 A 
ATOM     27  C   UNL     1      -0.603  11.894  22.335  0.00  0.00    +0.000 A 
ATOM     28  C   UNL     1      -1.013  12.488  21.141  0.00  0.00    +0.000 A 
ATOM     29  C   UNL     1      -1.103  11.719  19.967  0.00  0.00    +0.000 A 
ATOM     30  C   UNL     1      -0.719  10.370  19.980  0.00  0.00    +0.000 A 
BRANCH  26  31
ATOM     31  O   UNL     1       0.174   9.974  23.508  0.00  0.00    +0.000 OA
ATOM     32  H   UNL     1       0.282  10.711  24.138  0.00  0.00    +0.000 HD
ENDBRANCH  26  31
BRANCH  29  33
ATOM     33  C   UNL     1      -1.588  12.307  18.704  0.00  0.00    +0.000 C 
ATOM     34  O   UNL     1      -2.558  11.862  18.105  0.00  0.00    +0.000 OA
BRANCH  33  35
ATOM     35  O   UNL     1      -0.913  13.415  18.322  0.00  0.00    +0.000 OA
ATOM     36  H   UNL     1      -0.753  13.485  17.362  0.00  0.00    +0.000 HD
ENDBRANCH  33  35
ENDBRANCH  29  33
BRANCH  30  37
ATOM     37  O   UNL     1      -0.866   9.582  18.865  0.00  0.00    +0.000 OA
ATOM     38  H   UNL     1      -1.095   8.674  19.158  0.00  0.00    +0.000 HD
ENDBRANCH  30  37
ENDBRANCH  23  25
ENDBRANCH  20  21
ENDBRANCH   1  20
TORSDOF 9
ENDMDL
MODEL 7
REMARK VINA RESULT:      -8.2      1.713      3.879
REMARK  Name = 
REMARK  11 active torsions:
REMARK  status: ('A' for Active; 'I' for Inactive)
REMARK    1  A    between atoms: C_1  and  C_2
REMARK    2  A    between atoms: C_9  and  C_10
REMARK    3  A    between atoms: C_9  and  C_11
REMARK    4  A    between atoms: C_11  and  C_12
REMARK    5  A    between atoms: C_12  and  C_13
REMARK    6  A    between atoms: N_15  and  C_16
REMARK    7  A    between atoms: C_17  and  O_18
REMARK    8  A    between atoms: C_21  and  C_22
REMARK    9  A    between atoms: C_22  and  O_24
REMARK   10  A    between atoms: C_25  and  O_26
REMARK   11  A    between atoms: C_30  and  O_31
REMARK                            x       y       z     vdW  Elec       q    Type
REMARK                         _______ _______ _______ _____ _____    ______ ____
ROOT
ATOM      1  C   UNL     1       2.792   6.898  18.768  0.00  0.00    +0.000 C 
ENDROOT
BRANCH   1  10
ATOM      2  C   UNL     1       7.708   4.963  15.084  0.00  0.00    +0.000 C 
ATOM      3  C   UNL     1       6.416   5.168  15.852  0.00  0.00    +0.000 C 
ATOM      4  C   UNL     1       5.736   3.816  16.120  0.00  0.00    +0.000 C 
ATOM      5  C   UNL     1       4.975   4.146  17.401  0.00  0.00    +0.000 C 
ATOM      6  C   UNL     1       4.430   2.940  18.093  0.00  0.00    +0.000 C 
ATOM      7  C   UNL     1       3.550   3.066  19.075  0.00  0.00    +0.000 C 
ATOM      8  C   UNL     1       3.109   4.451  19.418  0.00  0.00    +0.000 C 
ATOM      9  O   UNL     1       2.921   4.720  20.598  0.00  0.00    +0.000 OA
ATOM     10  C   UNL     1       2.816   5.424  18.251  0.00  0.00    +0.000 C 
ATOM     11  C   UNL     1       1.415   4.995  17.770  0.00  0.00    +0.000 C 
ATOM     12  C   UNL     1       3.843   5.178  17.042  0.00  0.00    +0.000 C 
ATOM     13  C   UNL     1       4.525   6.408  16.333  0.00  0.00    +0.000 C 
ATOM     14  C   UNL     1       5.611   7.033  17.174  0.00  0.00    +0.000 C 
ATOM     15  C   UNL     1       6.600   5.877  17.227  0.00  0.00    +0.000 C 
ATOM     16  C   UNL     1       6.114   4.815  18.209  0.00  0.00    +0.000 C 
ATOM     17  O   UNL     1       5.363   5.936  15.215  0.00  0.00    +0.000 OA
BRANCH  15  18
ATOM     18  O   UNL     1       7.890   6.349  17.536  0.00  0.00    +0.000 OA
ATOM     19  H   UNL     1       7.857   6.735  18.430  0.00  0.00    +0.000 HD
ENDBRANCH  15  18
ENDBRANCH   1  10
BRANCH   1  20
ATOM     20  C   UNL     1       2.078   8.019  17.988  0.00  0.00    +0.000 C 
BRANCH  20  21
ATOM     21  C   UNL     1       1.551   9.231  18.745  0.00  0.00    +0.000 C 
ATOM     22  O   UNL     1       1.378   9.162  19.961  0.00  0.00    +0.000 OA
ATOM     23  N   UNL     1       1.266  10.328  17.958  0.00  0.00    +0.000 N 
ATOM     24  H   UNL     1       0.978  10.153  17.003  0.00  0.00    +0.000 HD
BRANCH  23  25
ATOM     25  C   UNL     1       0.720  11.509  18.525  0.00  0.00    +0.000 A 
ATOM     26  C   UNL     1       1.506  12.670  18.526  0.00  0.00    +0.000 A 
ATOM     27  C   UNL     1       0.996  13.892  18.957  0.00  0.00    +0.000 A 
ATOM     28  C   UNL     1      -0.310  13.954  19.447  0.00  0.00    +0.000 A 
ATOM     29  C   UNL     1      -1.087  12.785  19.527  0.00  0.00    +0.000 A 
ATOM     30  C   UNL     1      -0.576  11.568  19.054  0.00  0.00    +0.000 A 
BRANCH  26  31
ATOM     31  O   UNL     1       2.772  12.620  18.014  0.00  0.00    +0.000 OA
ATOM     32  H   UNL     1       2.664  12.597  17.044  0.00  0.00    +0.000 HD
ENDBRANCH  26  31
BRANCH  29  33
ATOM     33  C   UNL     1      -2.448  12.811  20.094  0.00  0.00    +0.000 C 
ATOM     34  O   UNL     1      -2.665  13.094  21.265  0.00  0.00    +0.000 OA
BRANCH  33  35
ATOM     35  O   UNL     1      -3.424  12.571  19.187  0.00  0.00    +0.000 OA
ATOM     36  H   UNL     1      -4.283  12.984  19.392  0.00  0.00    +0.000 HD
ENDBRANCH  33  35
ENDBRANCH  29  33
BRANCH  30  37
ATOM     37  O   UNL     1      -1.290  10.402  19.186  0.00  0.00    +0.000 OA
ATOM     38  H   UNL     1      -0.812   9.818  19.812  0.00  0.00    +0.000 HD
ENDBRANCH  30  37
ENDBRANCH  23  25
ENDBRANCH  20  21
ENDBRANCH   1  20
TORSDOF 9
ENDMDL
MODEL 8
REMARK VINA RESULT:      -8.2      1.091      2.096
REMARK  Name = 
REMARK  11 active torsions:
REMARK  status: ('A' for Active; 'I' for Inactive)
REMARK    1  A    between atoms: C_1  and  C_2
REMARK    2  A    between atoms: C_9  and  C_10
REMARK    3  A    between atoms: C_9  and  C_11
REMARK    4  A    between atoms: C_11  and  C_12
REMARK    5  A    between atoms: C_12  and  C_13
REMARK    6  A    between atoms: N_15  and  C_16
REMARK    7  A    between atoms: C_17  and  O_18
REMARK    8  A    between atoms: C_21  and  C_22
REMARK    9  A    between atoms: C_22  and  O_24
REMARK   10  A    between atoms: C_25  and  O_26
REMARK   11  A    between atoms: C_30  and  O_31
REMARK                            x       y       z     vdW  Elec       q    Type
REMARK                         _______ _______ _______ _____ _____    ______ ____
ROOT
ATOM      1  C   UNL     1       4.327   7.596  17.925  0.00  0.00    +0.000 C 
ENDROOT
BRANCH   1  10
ATOM      2  C   UNL     1       2.156   1.703  19.354  0.00  0.00    +0.000 C 
ATOM      3  C   UNL     1       2.933   2.951  18.979  0.00  0.00    +0.000 C 
ATOM      4  C   UNL     1       4.139   2.585  18.100  0.00  0.00    +0.000 C 
ATOM      5  C   UNL     1       4.297   3.879  17.305  0.00  0.00    +0.000 C 
ATOM      6  C   UNL     1       5.218   3.747  16.138  0.00  0.00    +0.000 C 
ATOM      7  C   UNL     1       5.649   4.822  15.494  0.00  0.00    +0.000 C 
ATOM      8  C   UNL     1       5.204   6.149  16.015  0.00  0.00    +0.000 C 
ATOM      9  O   UNL     1       4.947   7.030  15.205  0.00  0.00    +0.000 OA
ATOM     10  C   UNL     1       5.200   6.357  17.549  0.00  0.00    +0.000 C 
ATOM     11  C   UNL     1       6.683   6.617  17.880  0.00  0.00    +0.000 C 
ATOM     12  C   UNL     1       4.764   5.005  18.299  0.00  0.00    +0.000 C 
ATOM     13  C   UNL     1       3.721   5.067  19.477  0.00  0.00    +0.000 C 
ATOM     14  C   UNL     1       2.311   5.294  18.992  0.00  0.00    +0.000 C 
ATOM     15  C   UNL     1       2.095   4.011  18.202  0.00  0.00    +0.000 C 
ATOM     16  C   UNL     1       2.826   4.088  16.865  0.00  0.00    +0.000 C 
ATOM     17  O   UNL     1       3.538   3.720  20.050  0.00  0.00    +0.000 OA
BRANCH  15  18
ATOM     18  O   UNL     1       0.719   3.753  18.051  0.00  0.00    +0.000 OA
ATOM     19  H   UNL     1       0.495   3.883  17.112  0.00  0.00    +0.000 HD
ENDBRANCH  15  18
ENDBRANCH   1  10
BRANCH   1  20
ATOM     20  C   UNL     1       2.868   7.735  17.446  0.00  0.00    +0.000 C 
BRANCH  20  21
ATOM     21  C   UNL     1       2.065   8.962  17.859  0.00  0.00    +0.000 C 
ATOM     22  O   UNL     1       2.401  10.075  17.452  0.00  0.00    +0.000 OA
ATOM     23  N   UNL     1       1.017   8.708  18.720  0.00  0.00    +0.000 N 
ATOM     24  H   UNL     1       1.113   7.921  19.349  0.00  0.00    +0.000 HD
BRANCH  23  25
ATOM     25  C   UNL     1       0.217   9.765  19.225  0.00  0.00    +0.000 A 
ATOM     26  C   UNL     1      -0.728  10.349  18.370  0.00  0.00    +0.000 A 
ATOM     27  C   UNL     1      -1.627  11.309  18.828  0.00  0.00    +0.000 A 
ATOM     28  C   UNL     1      -1.554  11.737  20.155  0.00  0.00    +0.000 A 
ATOM     29  C   UNL     1      -0.562  11.220  21.007  0.00  0.00    +0.000 A 
ATOM     30  C   UNL     1       0.313  10.226  20.544  0.00  0.00    +0.000 A 
BRANCH  26  31
ATOM     31  O   UNL     1      -0.826   9.906  17.080  0.00  0.00    +0.000 OA
ATOM     32  H   UNL     1      -0.806  10.708  16.524  0.00  0.00    +0.000 HD
ENDBRANCH  26  31
BRANCH  29  33
ATOM     33  C   UNL     1      -0.425  11.696  22.396  0.00  0.00    +0.000 C 
ATOM     34  O   UNL     1      -0.370  12.886  22.678  0.00  0.00    +0.000 OA
BRANCH  33  35
ATOM     35  O   UNL     1      -0.442  10.706  23.318  0.00  0.00    +0.000 OA
ATOM     36  H   UNL     1      -0.678   9.826  22.968  0.00  0.00    +0.000 HD
ENDBRANCH  33  35
ENDBRANCH  29  33
BRANCH  30  37
ATOM     37  O   UNL     1       1.333   9.757  21.336  0.00  0.00    +0.000 OA
ATOM     38  H   UNL     1       1.199  10.101  22.245  0.00  0.00    +0.000 HD
ENDBRANCH  30  37
ENDBRANCH  23  25
ENDBRANCH  20  21
ENDBRANCH   1  20
TORSDOF 9
ENDMDL
MODEL 9
REMARK VINA RESULT:      -8.2      1.677      4.072
REMARK  Name = 
REMARK  11 active torsions:
REMARK  status: ('A' for Active; 'I' for Inactive)
REMARK    1  A    between atoms: C_1  and  C_2
REMARK    2  A    between atoms: C_9  and  C_10
REMARK    3  A    between atoms: C_9  and  C_11
REMARK    4  A    between atoms: C_11  and  C_12
REMARK    5  A    between atoms: C_12  and  C_13
REMARK    6  A    between atoms: N_15  and  C_16
REMARK    7  A    between atoms: C_17  and  O_18
REMARK    8  A    between atoms: C_21  and  C_22
REMARK    9  A    between atoms: C_22  and  O_24
REMARK   10  A    between atoms: C_25  and  O_26
REMARK   11  A    between atoms: C_30  and  O_31
REMARK                            x       y       z     vdW  Elec       q    Type
REMARK                         _______ _______ _______ _____ _____    ______ ____
ROOT
ATOM      1  C   UNL     1       2.791   7.256  18.607  0.00  0.00    +0.000 C 
ENDROOT
BRANCH   1  10
ATOM      2  C   UNL     1       7.764   4.960  15.219  0.00  0.00    +0.000 C 
ATOM      3  C   UNL     1       6.458   5.243  15.937  0.00  0.00    +0.000 C 
ATOM      4  C   UNL     1       5.757   3.927  16.307  0.00  0.00    +0.000 C 
ATOM      5  C   UNL     1       4.972   4.375  17.537  0.00  0.00    +0.000 C 
ATOM      6  C   UNL     1       4.400   3.240  18.319  0.00  0.00    +0.000 C 
ATOM      7  C   UNL     1       3.500   3.459  19.267  0.00  0.00    +0.000 C 
ATOM      8  C   UNL     1       3.067   4.874  19.477  0.00  0.00    +0.000 C 
ATOM      9  O   UNL     1       2.856   5.247  20.624  0.00  0.00    +0.000 OA
ATOM     10  C   UNL     1       2.809   5.742  18.223  0.00  0.00    +0.000 C 
ATOM     11  C   UNL     1       1.416   5.286  17.749  0.00  0.00    +0.000 C 
ATOM     12  C   UNL     1       3.861   5.381  17.063  0.00  0.00    +0.000 C 
ATOM     13  C   UNL     1       4.571   6.538  16.264  0.00  0.00    +0.000 C 
ATOM     14  C   UNL     1       5.644   7.225  17.071  0.00  0.00    +0.000 C 
ATOM     15  C   UNL     1       6.620   6.069  17.249  0.00  0.00    +0.000 C 
ATOM     16  C   UNL     1       6.101   5.103  18.309  0.00  0.00    +0.000 C 
ATOM     17  O   UNL     1       5.428   5.961  15.211  0.00  0.00    +0.000 OA
BRANCH  15  18
ATOM     18  O   UNL     1       7.908   6.555  17.543  0.00  0.00    +0.000 OA
ATOM     19  H   UNL     1       7.809   7.290  18.175  0.00  0.00    +0.000 HD
ENDBRANCH  15  18
ENDBRANCH   1  10
BRANCH   1  20
ATOM     20  C   UNL     1       2.304   8.337  17.622  0.00  0.00    +0.000 C 
BRANCH  20  21
ATOM     21  C   UNL     1       1.607   9.577  18.165  0.00  0.00    +0.000 C 
ATOM     22  O   UNL     1       2.199  10.656  18.170  0.00  0.00    +0.000 OA
ATOM     23  N   UNL     1       0.338   9.360  18.662  0.00  0.00    +0.000 N 
ATOM     24  H   UNL     1       0.142   8.447  19.054  0.00  0.00    +0.000 HD
BRANCH  23  25
ATOM     25  C   UNL     1      -0.407  10.417  19.246  0.00  0.00    +0.000 A 
ATOM     26  C   UNL     1      -1.332  11.100  18.444  0.00  0.00    +0.000 A 
ATOM     27  C   UNL     1      -2.180  12.068  18.976  0.00  0.00    +0.000 A 
ATOM     28  C   UNL     1      -2.074  12.403  20.327  0.00  0.00    +0.000 A 
ATOM     29  C   UNL     1      -1.098  11.785  21.130  0.00  0.00    +0.000 A 
ATOM     30  C   UNL     1      -0.276  10.784  20.592  0.00  0.00    +0.000 A 
BRANCH  26  31
ATOM     31  O   UNL     1      -1.463  10.749  17.129  0.00  0.00    +0.000 OA
ATOM     32  H   UNL     1      -0.604  10.366  16.871  0.00  0.00    +0.000 HD
ENDBRANCH  26  31
BRANCH  29  33
ATOM     33  C   UNL     1      -0.925  12.162  22.545  0.00  0.00    +0.000 C 
ATOM     34  O   UNL     1      -0.873  13.328  22.911  0.00  0.00    +0.000 OA
BRANCH  33  35
ATOM     35  O   UNL     1      -0.907  11.107  23.394  0.00  0.00    +0.000 OA
ATOM     36  H   UNL     1      -0.523  10.291  23.022  0.00  0.00    +0.000 HD
ENDBRANCH  33  35
ENDBRANCH  29  33
BRANCH  30  37
ATOM     37  O   UNL     1       0.728  10.218  21.337  0.00  0.00    +0.000 OA
ATOM     38  H   UNL     1       1.430  10.891  21.469  0.00  0.00    +0.000 HD
ENDBRANCH  30  37
ENDBRANCH  23  25
ENDBRANCH  20  21
ENDBRANCH   1  20
TORSDOF 9
ENDMDL
