MODEL 1
REMARK VINA RESULT:      -8.3      0.000      0.000
REMARK  Name = 
REMARK  8 active torsions:
REMARK  status: ('A' for Active; 'I' for Inactive)
REMARK    1  A    between atoms: C_1  and  C_2
REMARK    2  A    between atoms: C_4  and  N_5
REMARK    3  A    between atoms: N_5  and  C_6
REMARK    4  A    between atoms: C_6  and  C_7
REMARK    5  A    between atoms: C_7  and  C_8
REMARK    6  A    between atoms: C_8  and  C_9
REMARK    7  A    between atoms: C_9  and  N_10
REMARK    8  A    between atoms: N_10  and  C_11
REMARK                            x       y       z     vdW  Elec       q    Type
REMARK                         _______ _______ _______ _____ _____    ______ ____
ROOT
ATOM      1  C   UNL     1       0.847   4.004  20.431  0.00  0.00    +0.000 C 
ENDROOT
BRANCH   1   2
ATOM      2  N   UNL     1       1.836   4.983  20.816  0.00  0.00    +0.000 N 
ATOM      3  H   UNL     1       2.283   4.945  21.726  0.00  0.00    +0.000 HD
BRANCH   2   7
ATOM      4  C   UNL     1       2.911   8.275  17.325  0.00  0.00    +0.000 C 
ATOM      5  C   UNL     1       2.355   7.868  18.654  0.00  0.00    +0.000 A 
ATOM      6  C   UNL     1       2.397   6.556  19.060  0.00  0.00    +0.000 A 
ATOM      7  C   UNL     1       1.844   6.261  20.288  0.00  0.00    +0.000 A 
ATOM      8  N   UNL     1       1.302   7.217  21.055  0.00  0.00    +0.000 NA
ATOM      9  C   UNL     1       1.293   8.484  20.601  0.00  0.00    +0.000 A 
ATOM     10  N   UNL     1       0.647   9.449  21.345  0.00  0.00    +0.000 N 
ATOM     11  C   UNL     1       0.542   9.263  22.792  0.00  0.00    +0.000 C 
ATOM     12  C   UNL     1      -0.646  10.095  23.305  0.00  0.00    +0.000 C 
ATOM     13  O   UNL     1      -0.534  11.481  22.930  0.00  0.00    +0.000 OA
ATOM     14  C   UNL     1      -0.454  11.608  21.498  0.00  0.00    +0.000 C 
ATOM     15  C   UNL     1       0.757  10.849  20.934  0.00  0.00    +0.000 C 
ATOM     16  N   UNL     1       1.812   8.833  19.415  0.00  0.00    +0.000 NA
ENDBRANCH   2   7
ENDBRANCH   1   2
BRANCH   1  17
ATOM     17  C   UNL     1       1.300   3.210  19.212  0.00  0.00    +0.000 C 
BRANCH  17  18
ATOM     18  C   UNL     1       2.283   2.116  19.637  0.00  0.00    +0.000 C 
BRANCH  18  19
ATOM     19  C   UNL     1       3.478   2.052  18.691  0.00  0.00    +0.000 C 
BRANCH  19  20
ATOM     20  N   UNL     1       3.512   3.254  17.856  0.00  0.00    +0.000 N 
ATOM     21  H   UNL     1       2.692   3.833  18.012  0.00  0.00    +0.000 HD
BRANCH  20  22
ATOM     22  C   UNL     1       4.696   4.031  17.870  0.00  0.00    +0.000 A 
ATOM     23  C   UNL     1       5.258   4.452  19.081  0.00  0.00    +0.000 A 
ATOM     24  C   UNL     1       6.443   5.159  19.070  0.00  0.00    +0.000 A 
ATOM     25  N   UNL     1       7.128   5.456  17.956  0.00  0.00    +0.000 NA
ATOM     26  C   UNL     1       6.641   5.019  16.788  0.00  0.00    +0.000 A 
ATOM     27  C   UNL     1       7.384   5.310  15.656  0.00  0.00    +0.000 A 
ATOM     28  C   UNL     1       6.973   4.896  14.394  0.00  0.00    +0.000 A 
ATOM     29 CL   UNL     1       7.930   5.275  13.016  0.00  0.00    +0.000 Cl
ATOM     30  C   UNL     1       5.799   4.178  14.245  0.00  0.00    +0.000 A 
ATOM     31  C   UNL     1       5.034   3.871  15.373  0.00  0.00    +0.000 A 
ATOM     32  C   UNL     1       5.431   4.288  16.671  0.00  0.00    +0.000 A 
ENDBRANCH  20  22
ENDBRANCH  19  20
ENDBRANCH  18  19
ENDBRANCH  17  18
ENDBRANCH   1  17
TORSDOF 7
ENDMDL
MODEL 2
REMARK VINA RESULT:      -7.8      4.238      8.845
REMARK  Name = 
REMARK  8 active torsions:
REMARK  status: ('A' for Active; 'I' for Inactive)
REMARK    1  A    between atoms: C_1  and  C_2
REMARK    2  A    between atoms: C_4  and  N_5
REMARK    3  A    between atoms: N_5  and  C_6
REMARK    4  A    between atoms: C_6  and  C_7
REMARK    5  A    between atoms: C_7  and  C_8
REMARK    6  A    between atoms: C_8  and  C_9
REMARK    7  A    between atoms: C_9  and  N_10
REMARK    8  A    between atoms: N_10  and  C_11
REMARK                            x       y       z     vdW  Elec       q    Type
REMARK                         _______ _______ _______ _____ _____    ______ ____
ROOT
ATOM      1  C   UNL     1       4.630   3.956  19.811  0.00  0.00    +0.000 C 
ENDROOT
BRANCH   1   2
ATOM      2  N   UNL     1       5.551   3.545  18.777  0.00  0.00    +0.000 N 
ATOM      3  H   UNL     1       6.065   2.673  18.851  0.00  0.00    +0.000 HD
BRANCH   2   7
ATOM      4  C   UNL     1       8.076   7.694  18.003  0.00  0.00    +0.000 C 
ATOM      5  C   UNL     1       7.387   6.442  17.553  0.00  0.00    +0.000 A 
ATOM      6  C   UNL     1       6.790   5.603  18.462  0.00  0.00    +0.000 A 
ATOM      7  C   UNL     1       6.198   4.461  17.968  0.00  0.00    +0.000 A 
ATOM      8  N   UNL     1       6.193   4.192  16.655  0.00  0.00    +0.000 NA
ATOM      9  C   UNL     1       6.794   5.055  15.815  0.00  0.00    +0.000 A 
ATOM     10  N   UNL     1       6.876   4.727  14.478  0.00  0.00    +0.000 N 
ATOM     11  C   UNL     1       5.854   3.850  13.907  0.00  0.00    +0.000 C 
ATOM     12  C   UNL     1       6.431   3.184  12.646  0.00  0.00    +0.000 C 
ATOM     13  O   UNL     1       6.919   4.155  11.702  0.00  0.00    +0.000 OA
ATOM     14  C   UNL     1       7.936   4.977  12.306  0.00  0.00    +0.000 C 
ATOM     15  C   UNL     1       7.396   5.722  13.538  0.00  0.00    +0.000 C 
ATOM     16  N   UNL     1       7.390   6.180  16.235  0.00  0.00    +0.000 NA
ENDBRANCH   2   7
ENDBRANCH   1   2
BRANCH   1  17
ATOM     17  C   UNL     1       3.247   3.357  19.591  0.00  0.00    +0.000 C 
BRANCH  17  18
ATOM     18  C   UNL     1       2.182   4.254  20.228  0.00  0.00    +0.000 C 
BRANCH  18  19
ATOM     19  C   UNL     1       1.953   5.513  19.397  0.00  0.00    +0.000 C 
BRANCH  19  20
ATOM     20  N   UNL     1       2.365   6.692  20.162  0.00  0.00    +0.000 N 
ATOM     21  H   UNL     1       3.369   6.694  20.319  0.00  0.00    +0.000 HD
BRANCH  20  22
ATOM     22  C   UNL     1       1.915   7.956  19.712  0.00  0.00    +0.000 A 
ATOM     23  C   UNL     1       2.088   8.342  18.377  0.00  0.00    +0.000 A 
ATOM     24  C   UNL     1       1.589   9.555  17.951  0.00  0.00    +0.000 A 
ATOM     25  N   UNL     1       0.909  10.403  18.735  0.00  0.00    +0.000 NA
ATOM     26  C   UNL     1       0.682  10.037  20.003  0.00  0.00    +0.000 A 
ATOM     27  C   UNL     1      -0.052  10.914  20.784  0.00  0.00    +0.000 A 
ATOM     28  C   UNL     1      -0.351  10.626  22.110  0.00  0.00    +0.000 A 
ATOM     29 CL   UNL     1      -1.270  11.743  23.041  0.00  0.00    +0.000 Cl
ATOM     30  C   UNL     1       0.086   9.443  22.682  0.00  0.00    +0.000 A 
ATOM     31  C   UNL     1       0.825   8.541  21.913  0.00  0.00    +0.000 A 
ATOM     32  C   UNL     1       1.147   8.816  20.558  0.00  0.00    +0.000 A 
ENDBRANCH  20  22
ENDBRANCH  19  20
ENDBRANCH  18  19
ENDBRANCH  17  18
ENDBRANCH   1  17
TORSDOF 7
ENDMDL
MODEL 3
REMARK VINA RESULT:      -7.8      4.489      9.417
REMARK  Name = 
REMARK  8 active torsions:
REMARK  status: ('A' for Active; 'I' for Inactive)
REMARK    1  A    between atoms: C_1  and  C_2
REMARK    2  A    between atoms: C_4  and  N_5
REMARK    3  A    between atoms: N_5  and  C_6
REMARK    4  A    between atoms: C_6  and  C_7
REMARK    5  A    between atoms: C_7  and  C_8
REMARK    6  A    between atoms: C_8  and  C_9
REMARK    7  A    between atoms: C_9  and  N_10
REMARK    8  A    between atoms: N_10  and  C_11
REMARK                            x       y       z     vdW  Elec       q    Type
REMARK                         _______ _______ _______ _____ _____    ______ ____
ROOT
ATOM      1  C   UNL     1       1.810   7.986  20.423  0.00  0.00    +0.000 C 
ENDROOT
BRANCH   1   2
ATOM      2  N   UNL     1       1.901   6.614  20.866  0.00  0.00    +0.000 N 
ATOM      3  H   UNL     1       2.136   6.388  21.826  0.00  0.00    +0.000 HD
BRANCH   2   7
ATOM      4  C   UNL     1       1.079   2.260  18.731  0.00  0.00    +0.000 C 
ATOM      5  C   UNL     1       1.878   3.504  18.970  0.00  0.00    +0.000 A 
ATOM      6  C   UNL     1       1.440   4.461  19.853  0.00  0.00    +0.000 A 
ATOM      7  C   UNL     1       2.223   5.586  19.998  0.00  0.00    +0.000 A 
ATOM      8  N   UNL     1       3.367   5.730  19.316  0.00  0.00    +0.000 NA
ATOM      9  C   UNL     1       3.743   4.756  18.467  0.00  0.00    +0.000 A 
ATOM     10  N   UNL     1       4.867   4.950  17.693  0.00  0.00    +0.000 N 
ATOM     11  C   UNL     1       5.921   5.832  18.196  0.00  0.00    +0.000 C 
ATOM     12  C   UNL     1       6.745   6.338  17.000  0.00  0.00    +0.000 C 
ATOM     13  O   UNL     1       7.261   5.253  16.206  0.00  0.00    +0.000 OA
ATOM     14  C   UNL     1       6.185   4.431  15.719  0.00  0.00    +0.000 C 
ATOM     15  C   UNL     1       5.363   3.841  16.876  0.00  0.00    +0.000 C 
ATOM     16  N   UNL     1       3.023   3.640  18.280  0.00  0.00    +0.000 NA
ENDBRANCH   2   7
ENDBRANCH   1   2
BRANCH   1  17
ATOM     17  C   UNL     1       0.671   8.718  21.120  0.00  0.00    +0.000 C 
BRANCH  17  18
ATOM     18  C   UNL     1       0.226   9.916  20.277  0.00  0.00    +0.000 C 
BRANCH  18  19
ATOM     19  C   UNL     1      -0.712  10.825  21.063  0.00  0.00    +0.000 C 
BRANCH  19  20
ATOM     20  N   UNL     1      -1.091  11.976  20.240  0.00  0.00    +0.000 N 
ATOM     21  H   UNL     1      -0.418  12.130  19.494  0.00  0.00    +0.000 HD
BRANCH  20  22
ATOM     22  C   UNL     1      -2.418  12.024  19.749  0.00  0.00    +0.000 A 
ATOM     23  C   UNL     1      -3.422  12.679  20.472  0.00  0.00    +0.000 A 
ATOM     24  C   UNL     1      -4.694  12.760  19.944  0.00  0.00    +0.000 A 
ATOM     25  N   UNL     1      -5.042  12.270  18.746  0.00  0.00    +0.000 NA
ATOM     26  C   UNL     1      -4.089  11.685  18.009  0.00  0.00    +0.000 A 
ATOM     27  C   UNL     1      -4.465  11.217  16.762  0.00  0.00    +0.000 A 
ATOM     28  C   UNL     1      -3.551  10.601  15.914  0.00  0.00    +0.000 A 
ATOM     29 CL   UNL     1      -4.062  10.039  14.371  0.00  0.00    +0.000 Cl
ATOM     30  C   UNL     1      -2.234  10.443  16.307  0.00  0.00    +0.000 A 
ATOM     31  C   UNL     1      -1.830  10.911  17.560  0.00  0.00    +0.000 A 
ATOM     32  C   UNL     1      -2.747  11.537  18.445  0.00  0.00    +0.000 A 
ENDBRANCH  20  22
ENDBRANCH  19  20
ENDBRANCH  18  19
ENDBRANCH  17  18
ENDBRANCH   1  17
TORSDOF 7
ENDMDL
MODEL 4
REMARK VINA RESULT:      -7.8      1.038      1.188
REMARK  Name = 
REMARK  8 active torsions:
REMARK  status: ('A' for Active; 'I' for Inactive)
REMARK    1  A    between atoms: C_1  and  C_2
REMARK    2  A    between atoms: C_4  and  N_5
REMARK    3  A    between atoms: N_5  and  C_6
REMARK    4  A    between atoms: C_6  and  C_7
REMARK    5  A    between atoms: C_7  and  C_8
REMARK    6  A    between atoms: C_8  and  C_9
REMARK    7  A    between atoms: C_9  and  N_10
REMARK    8  A    between atoms: N_10  and  C_11
REMARK                            x       y       z     vdW  Elec       q    Type
REMARK                         _______ _______ _______ _____ _____    ______ ____
ROOT
ATOM      1  C   UNL     1       1.342   4.225  20.890  0.00  0.00    +0.000 C 
ENDROOT
BRANCH   1   2
ATOM      2  N   UNL     1       2.068   5.444  21.159  0.00  0.00    +0.000 N 
ATOM      3  H   UNL     1       2.160   5.800  22.104  0.00  0.00    +0.000 HD
BRANCH   2   7
ATOM      4  C   UNL     1       3.751   7.291  16.923  0.00  0.00    +0.000 C 
ATOM      5  C   UNL     1       2.988   7.372  18.209  0.00  0.00    +0.000 A 
ATOM      6  C   UNL     1       2.932   6.297  19.061  0.00  0.00    +0.000 A 
ATOM      7  C   UNL     1       2.190   6.446  20.213  0.00  0.00    +0.000 A 
ATOM      8  N   UNL     1       1.564   7.597  20.493  0.00  0.00    +0.000 NA
ATOM      9  C   UNL     1       1.658   8.615  19.618  0.00  0.00    +0.000 A 
ATOM     10  N   UNL     1       0.932   9.763  19.857  0.00  0.00    +0.000 N 
ATOM     11  C   UNL     1       0.602  10.108  21.240  0.00  0.00    +0.000 C 
ATOM     12  C   UNL     1      -0.628  11.032  21.232  0.00  0.00    +0.000 C 
ATOM     13  O   UNL     1      -0.422  12.192  20.405  0.00  0.00    +0.000 OA
ATOM     14  C   UNL     1      -0.121  11.799  19.053  0.00  0.00    +0.000 C 
ATOM     15  C   UNL     1       1.141  10.924  18.991  0.00  0.00    +0.000 C 
ATOM     16  N   UNL     1       2.361   8.529  18.479  0.00  0.00    +0.000 NA
ENDBRANCH   2   7
ENDBRANCH   1   2
BRANCH   1  17
ATOM     17  C   UNL     1       2.283   3.033  20.780  0.00  0.00    +0.000 C 
BRANCH  17  18
ATOM     18  C   UNL     1       2.382   2.578  19.321  0.00  0.00    +0.000 C 
BRANCH  18  19
ATOM     19  C   UNL     1       3.811   2.186  18.962  0.00  0.00    +0.000 C 
BRANCH  19  20
ATOM     20  N   UNL     1       4.155   2.724  17.643  0.00  0.00    +0.000 N 
ATOM     21  H   UNL     1       3.323   3.019  17.140  0.00  0.00    +0.000 HD
BRANCH  20  22
ATOM     22  C   UNL     1       5.169   3.709  17.580  0.00  0.00    +0.000 A 
ATOM     23  C   UNL     1       5.698   4.265  18.751  0.00  0.00    +0.000 A 
ATOM     24  C   UNL     1       6.726   5.181  18.663  0.00  0.00    +0.000 A 
ATOM     25  N   UNL     1       7.288   5.569  17.509  0.00  0.00    +0.000 NA
ATOM     26  C   UNL     1       6.838   5.014  16.376  0.00  0.00    +0.000 A 
ATOM     27  C   UNL     1       7.457   5.405  15.202  0.00  0.00    +0.000 A 
ATOM     28  C   UNL     1       7.072   4.884  13.972  0.00  0.00    +0.000 A 
ATOM     29 CL   UNL     1       7.872   5.395  12.538  0.00  0.00    +0.000 Cl
ATOM     30  C   UNL     1       6.049   3.954  13.899  0.00  0.00    +0.000 A 
ATOM     31  C   UNL     1       5.411   3.541  15.072  0.00  0.00    +0.000 A 
ATOM     32  C   UNL     1       5.784   4.064  16.338  0.00  0.00    +0.000 A 
ENDBRANCH  20  22
ENDBRANCH  19  20
ENDBRANCH  18  19
ENDBRANCH  17  18
ENDBRANCH   1  17
TORSDOF 7
ENDMDL
MODEL 5
REMARK VINA RESULT:      -7.7      4.804      9.614
REMARK  Name = 
REMARK  8 active torsions:
REMARK  status: ('A' for Active; 'I' for Inactive)
REMARK    1  A    between atoms: C_1  and  C_2
REMARK    2  A    between atoms: C_4  and  N_5
REMARK    3  A    between atoms: N_5  and  C_6
REMARK    4  A    between atoms: C_6  and  C_7
REMARK    5  A    between atoms: C_7  and  C_8
REMARK    6  A    between atoms: C_8  and  C_9
REMARK    7  A    between atoms: C_9  and  N_10
REMARK    8  A    between atoms: N_10  and  C_11
REMARK                            x       y       z     vdW  Elec       q    Type
REMARK                         _______ _______ _______ _____ _____    ______ ____
ROOT
ATOM      1  C   UNL     1       1.955   7.858  20.369  0.00  0.00    +0.000 C 
ENDROOT
BRANCH   1   2
ATOM      2  N   UNL     1       1.812   6.449  20.650  0.00  0.00    +0.000 N 
ATOM      3  H   UNL     1       1.753   6.110  21.604  0.00  0.00    +0.000 HD
BRANCH   2   7
ATOM      4  C   UNL     1       1.582   2.058  18.447  0.00  0.00    +0.000 C 
ATOM      5  C   UNL     1       2.218   3.385  18.723  0.00  0.00    +0.000 A 
ATOM      6  C   UNL     1       1.643   4.271  19.602  0.00  0.00    +0.000 A 
ATOM      7  C   UNL     1       2.281   5.479  19.783  0.00  0.00    +0.000 A 
ATOM      8  N   UNL     1       3.419   5.768  19.139  0.00  0.00    +0.000 NA
ATOM      9  C   UNL     1       3.934   4.857  18.292  0.00  0.00    +0.000 A 
ATOM     10  N   UNL     1       5.050   5.195  17.555  0.00  0.00    +0.000 N 
ATOM     11  C   UNL     1       5.975   6.189  18.100  0.00  0.00    +0.000 C 
ATOM     12  C   UNL     1       6.768   6.807  16.936  0.00  0.00    +0.000 C 
ATOM     13  O   UNL     1       7.434   5.802  16.148  0.00  0.00    +0.000 OA
ATOM     14  C   UNL     1       6.479   4.863  15.619  0.00  0.00    +0.000 C 
ATOM     15  C   UNL     1       5.699   4.164  16.744  0.00  0.00    +0.000 C 
ATOM     16  N   UNL     1       3.359   3.667  18.071  0.00  0.00    +0.000 NA
ENDBRANCH   2   7
ENDBRANCH   1   2
BRANCH   1  17
ATOM     17  C   UNL     1       1.182   8.704  21.371  0.00  0.00    +0.000 C 
BRANCH  17  18
ATOM     18  C   UNL     1       0.595   9.935  20.674  0.00  0.00    +0.000 C 
BRANCH  18  19
ATOM     19  C   UNL     1       0.680   9.801  19.157  0.00  0.00    +0.000 C 
BRANCH  19  20
ATOM     20  N   UNL     1       0.068  10.970  18.522  0.00  0.00    +0.000 N 
ATOM     21  H   UNL     1       0.625  11.294  17.737  0.00  0.00    +0.000 HD
BRANCH  20  22
ATOM     22  C   UNL     1      -1.302  10.887  18.176  0.00  0.00    +0.000 A 
ATOM     23  C   UNL     1      -1.742   9.967  17.218  0.00  0.00    +0.000 A 
ATOM     24  C   UNL     1      -3.090   9.867  16.941  0.00  0.00    +0.000 A 
ATOM     25  N   UNL     1      -4.037  10.586  17.559  0.00  0.00    +0.000 NA
ATOM     26  C   UNL     1      -3.651  11.436  18.519  0.00  0.00    +0.000 A 
ATOM     27  C   UNL     1      -4.651  12.143  19.165  0.00  0.00    +0.000 A 
ATOM     28  C   UNL     1      -4.358  13.045  20.182  0.00  0.00    +0.000 A 
ATOM     29 CL   UNL     1      -5.633  13.897  20.961  0.00  0.00    +0.000 Cl
ATOM     30  C   UNL     1      -3.047  13.256  20.570  0.00  0.00    +0.000 A 
ATOM     31  C   UNL     1      -2.021  12.552  19.933  0.00  0.00    +0.000 A 
ATOM     32  C   UNL     1      -2.295  11.630  18.889  0.00  0.00    +0.000 A 
ENDBRANCH  20  22
ENDBRANCH  19  20
ENDBRANCH  18  19
ENDBRANCH  17  18
ENDBRANCH   1  17
TORSDOF 7
ENDMDL
MODEL 6
REMARK VINA RESULT:      -7.6      5.412     10.019
REMARK  Name = 
REMARK  8 active torsions:
REMARK  status: ('A' for Active; 'I' for Inactive)
REMARK    1  A    between atoms: C_1  and  C_2
REMARK    2  A    between atoms: C_4  and  N_5
REMARK    3  A    between atoms: N_5  and  C_6
REMARK    4  A    between atoms: C_6  and  C_7
REMARK    5  A    between atoms: C_7  and  C_8
REMARK    6  A    between atoms: C_8  and  C_9
REMARK    7  A    between atoms: C_9  and  N_10
REMARK    8  A    between atoms: N_10  and  C_11
REMARK                            x       y       z     vdW  Elec       q    Type
REMARK                         _______ _______ _______ _____ _____    ______ ____
ROOT
ATOM      1  C   UNL     1       1.232   7.773  20.547  0.00  0.00    +0.000 C 
ENDROOT
BRANCH   1   2
ATOM      2  N   UNL     1       2.295   6.812  20.728  0.00  0.00    +0.000 N 
ATOM      3  H   UNL     1       3.153   7.065  21.207  0.00  0.00    +0.000 HD
BRANCH   2   7
ATOM      4  C   UNL     1       0.939   2.578  18.624  0.00  0.00    +0.000 C 
ATOM      5  C   UNL     1       1.878   3.724  18.842  0.00  0.00    +0.000 A 
ATOM      6  C   UNL     1       1.571   4.725  19.731  0.00  0.00    +0.000 A 
ATOM      7  C   UNL     1       2.480   5.754  19.857  0.00  0.00    +0.000 A 
ATOM      8  N   UNL     1       3.618   5.767  19.150  0.00  0.00    +0.000 NA
ATOM      9  C   UNL     1       3.862   4.756  18.296  0.00  0.00    +0.000 A 
ATOM     10  N   UNL     1       4.984   4.822  17.497  0.00  0.00    +0.000 N 
ATOM     11  C   UNL     1       6.142   5.578  17.974  0.00  0.00    +0.000 C 
ATOM     12  C   UNL     1       6.992   5.987  16.760  0.00  0.00    +0.000 C 
ATOM     13  O   UNL     1       7.364   4.851  15.958  0.00  0.00    +0.000 OA
ATOM     14  C   UNL     1       6.191   4.155  15.497  0.00  0.00    +0.000 C 
ATOM     15  C   UNL     1       5.333   3.662  16.673  0.00  0.00    +0.000 C 
ATOM     16  N   UNL     1       3.016   3.730  18.127  0.00  0.00    +0.000 NA
ENDBRANCH   2   7
ENDBRANCH   1   2
BRANCH   1  17
ATOM     17  C   UNL     1       1.577   8.782  19.460  0.00  0.00    +0.000 C 
BRANCH  17  18
ATOM     18  C   UNL     1       0.820  10.091  19.702  0.00  0.00    +0.000 C 
BRANCH  18  19
ATOM     19  C   UNL     1      -0.017  10.476  18.487  0.00  0.00    +0.000 C 
BRANCH  19  20
ATOM     20  N   UNL     1      -1.429  10.566  18.867  0.00  0.00    +0.000 N 
ATOM     21  H   UNL     1      -1.562  11.232  19.623  0.00  0.00    +0.000 HD
BRANCH  20  22
ATOM     22  C   UNL     1      -2.375  10.768  17.834  0.00  0.00    +0.000 A 
ATOM     23  C   UNL     1      -2.193  10.184  16.575  0.00  0.00    +0.000 A 
ATOM     24  C   UNL     1      -3.159  10.349  15.604  0.00  0.00    +0.000 A 
ATOM     25  N   UNL     1      -4.302  11.023  15.792  0.00  0.00    +0.000 NA
ATOM     26  C   UNL     1      -4.528  11.548  17.003  0.00  0.00    +0.000 A 
ATOM     27  C   UNL     1      -5.730  12.211  17.181  0.00  0.00    +0.000 A 
ATOM     28  C   UNL     1      -6.067  12.785  18.401  0.00  0.00    +0.000 A 
ATOM     29 CL   UNL     1      -7.575  13.594  18.579  0.00  0.00    +0.000 Cl
ATOM     30  C   UNL     1      -5.195  12.704  19.473  0.00  0.00    +0.000 A 
ATOM     31  C   UNL     1      -3.977  12.037  19.318  0.00  0.00    +0.000 A 
ATOM     32  C   UNL     1      -3.609  11.449  18.079  0.00  0.00    +0.000 A 
ENDBRANCH  20  22
ENDBRANCH  19  20
ENDBRANCH  18  19
ENDBRANCH  17  18
ENDBRANCH   1  17
TORSDOF 7
ENDMDL
MODEL 7
REMARK VINA RESULT:      -7.6      3.956      5.791
REMARK  Name = 
REMARK  8 active torsions:
REMARK  status: ('A' for Active; 'I' for Inactive)
REMARK    1  A    between atoms: C_1  and  C_2
REMARK    2  A    between atoms: C_4  and  N_5
REMARK    3  A    between atoms: N_5  and  C_6
REMARK    4  A    between atoms: C_6  and  C_7
REMARK    5  A    between atoms: C_7  and  C_8
REMARK    6  A    between atoms: C_8  and  C_9
REMARK    7  A    between atoms: C_9  and  N_10
REMARK    8  A    between atoms: N_10  and  C_11
REMARK                            x       y       z     vdW  Elec       q    Type
REMARK                         _______ _______ _______ _____ _____    ______ ____
ROOT
ATOM      1  C   UNL     1       0.395   9.922  19.107  0.00  0.00    +0.000 C 
ENDROOT
BRANCH   1   2
ATOM      2  N   UNL     1      -0.223  11.113  18.574  0.00  0.00    +0.000 N 
ATOM      3  H   UNL     1       0.054  12.034  18.894  0.00  0.00    +0.000 HD
BRANCH   2   7
ATOM      4  C   UNL     1      -3.555  10.199  15.073  0.00  0.00    +0.000 C 
ATOM      5  C   UNL     1      -3.131  10.701  16.419  0.00  0.00    +0.000 A 
ATOM      6  C   UNL     1      -1.815  10.642  16.808  0.00  0.00    +0.000 A 
ATOM      7  C   UNL     1      -1.512  11.104  18.070  0.00  0.00    +0.000 A 
ATOM      8  N   UNL     1      -2.460  11.602  18.875  0.00  0.00    +0.000 NA
ATOM      9  C   UNL     1      -3.732  11.635  18.435  0.00  0.00    +0.000 A 
ATOM     10  N   UNL     1      -4.720  12.054  19.300  0.00  0.00    +0.000 N 
ATOM     11  C   UNL     1      -4.366  12.987  20.370  0.00  0.00    +0.000 C 
ATOM     12  C   UNL     1      -5.411  12.862  21.492  0.00  0.00    +0.000 C 
ATOM     13  O   UNL     1      -6.751  13.062  21.002  0.00  0.00    +0.000 OA
ATOM     14  C   UNL     1      -7.055  12.107  19.968  0.00  0.00    +0.000 C 
ATOM     15  C   UNL     1      -6.080  12.230  18.787  0.00  0.00    +0.000 C 
ATOM     16  N   UNL     1      -4.089  11.196  17.220  0.00  0.00    +0.000 NA
ENDBRANCH   2   7
ENDBRANCH   1   2
BRANCH   1  17
ATOM     17  C   UNL     1       0.424   9.947  20.629  0.00  0.00    +0.000 C 
BRANCH  17  18
ATOM     18  C   UNL     1       0.701   8.541  21.170  0.00  0.00    +0.000 C 
BRANCH  18  19
ATOM     19  C   UNL     1       1.640   7.771  20.246  0.00  0.00    +0.000 C 
BRANCH  19  20
ATOM     20  N   UNL     1       2.064   6.529  20.896  0.00  0.00    +0.000 N 
ATOM     21  H   UNL     1       1.607   6.412  21.795  0.00  0.00    +0.000 HD
BRANCH  20  22
ATOM     22  C   UNL     1       2.008   5.337  20.134  0.00  0.00    +0.000 A 
ATOM     23  C   UNL     1       1.039   4.364  20.404  0.00  0.00    +0.000 A 
ATOM     24  C   UNL     1       0.969   3.238  19.610  0.00  0.00    +0.000 A 
ATOM     25  N   UNL     1       1.764   3.015  18.553  0.00  0.00    +0.000 NA
ATOM     26  C   UNL     1       2.665   3.954  18.239  0.00  0.00    +0.000 A 
ATOM     27  C   UNL     1       3.452   3.716  17.125  0.00  0.00    +0.000 A 
ATOM     28  C   UNL     1       4.411   4.631  16.708  0.00  0.00    +0.000 A 
ATOM     29 CL   UNL     1       5.362   4.296  15.314  0.00  0.00    +0.000 Cl
ATOM     30  C   UNL     1       4.601   5.810  17.408  0.00  0.00    +0.000 A 
ATOM     31  C   UNL     1       3.817   6.073  18.534  0.00  0.00    +0.000 A 
ATOM     32  C   UNL     1       2.835   5.152  18.982  0.00  0.00    +0.000 A 
ENDBRANCH  20  22
ENDBRANCH  19  20
ENDBRANCH  18  19
ENDBRANCH  17  18
ENDBRANCH   1  17
TORSDOF 7
ENDMDL
MODEL 8
REMARK VINA RESULT:      -7.6      5.827      8.447
REMARK  Name = 
REMARK  8 active torsions:
REMARK  status: ('A' for Active; 'I' for Inactive)
REMARK    1  A    between atoms: C_1  and  C_2
REMARK    2  A    between atoms: C_4  and  N_5
REMARK    3  A    between atoms: N_5  and  C_6
REMARK    4  A    between atoms: C_6  and  C_7
REMARK    5  A    between atoms: C_7  and  C_8
REMARK    6  A    between atoms: C_8  and  C_9
REMARK    7  A    between atoms: C_9  and  N_10
REMARK    8  A    between atoms: N_10  and  C_11
REMARK                            x       y       z     vdW  Elec       q    Type
REMARK                         _______ _______ _______ _____ _____    ______ ____
ROOT
ATOM      1  C   UNL     1       8.249   6.883  18.790  0.00  0.00    +0.000 C 
ENDROOT
BRANCH   1   2
ATOM      2  N   UNL     1       7.640   5.613  19.112  0.00  0.00    +0.000 N 
ATOM      3  H   UNL     1       8.141   4.913  19.648  0.00  0.00    +0.000 HD
BRANCH   2   7
ATOM      4  C   UNL     1       5.953   3.760  14.880  0.00  0.00    +0.000 C 
ATOM      5  C   UNL     1       5.807   4.178  16.311  0.00  0.00    +0.000 A 
ATOM      6  C   UNL     1       6.869   4.714  16.998  0.00  0.00    +0.000 A 
ATOM      7  C   UNL     1       6.657   5.052  18.317  0.00  0.00    +0.000 A 
ATOM      8  N   UNL     1       5.461   4.877  18.897  0.00  0.00    +0.000 NA
ATOM      9  C   UNL     1       4.460   4.349  18.169  0.00  0.00    +0.000 A 
ATOM     10  N   UNL     1       3.261   4.076  18.794  0.00  0.00    +0.000 N 
ATOM     11  C   UNL     1       2.882   4.873  19.961  0.00  0.00    +0.000 C 
ATOM     12  C   UNL     1       1.872   4.067  20.795  0.00  0.00    +0.000 C 
ATOM     13  O   UNL     1       0.736   3.656  20.011  0.00  0.00    +0.000 OA
ATOM     14  C   UNL     1       1.161   2.859  18.890  0.00  0.00    +0.000 C 
ATOM     15  C   UNL     1       2.124   3.639  17.981  0.00  0.00    +0.000 C 
ATOM     16  N   UNL     1       4.605   3.996  16.884  0.00  0.00    +0.000 NA
ENDBRANCH   2   7
ENDBRANCH   1   2
BRANCH   1  17
ATOM     17  C   UNL     1       7.517   7.574  17.647  0.00  0.00    +0.000 C 
BRANCH  17  18
ATOM     18  C   UNL     1       7.828   9.073  17.659  0.00  0.00    +0.000 C 
BRANCH  18  19
ATOM     19  C   UNL     1       8.865   9.412  18.725  0.00  0.00    +0.000 C 
BRANCH  19  20
ATOM     20  N   UNL     1       9.495  10.696  18.411  0.00  0.00    +0.000 N 
ATOM     21  H   UNL     1       9.195  11.039  17.503  0.00  0.00    +0.000 HD
BRANCH  20  22
ATOM     22  C   UNL     1       9.430  11.716  19.390  0.00  0.00    +0.000 A 
ATOM     23  C   UNL     1      10.095  11.573  20.614  0.00  0.00    +0.000 A 
ATOM     24  C   UNL     1      10.064  12.606  21.528  0.00  0.00    +0.000 A 
ATOM     25  N   UNL     1       9.450  13.778  21.314  0.00  0.00    +0.000 NA
ATOM     26  C   UNL     1       8.851  13.964  20.130  0.00  0.00    +0.000 A 
ATOM     27  C   UNL     1       8.253  15.194  19.920  0.00  0.00    +0.000 A 
ATOM     28  C   UNL     1       7.612  15.493  18.724  0.00  0.00    +0.000 A 
ATOM     29 CL   UNL     1       6.887  17.037  18.504  0.00  0.00    +0.000 Cl
ATOM     30  C   UNL     1       7.557  14.553  17.709  0.00  0.00    +0.000 A 
ATOM     31  C   UNL     1       8.156  13.305  17.897  0.00  0.00    +0.000 A 
ATOM     32  C   UNL     1       8.812  12.976  19.113  0.00  0.00    +0.000 A 
ENDBRANCH  20  22
ENDBRANCH  19  20
ENDBRANCH  18  19
ENDBRANCH  17  18
ENDBRANCH   1  17
TORSDOF 7
ENDMDL
MODEL 9
REMARK VINA RESULT:      -7.5      6.271      8.658
REMARK  Name = 
REMARK  8 active torsions:
REMARK  status: ('A' for Active; 'I' for Inactive)
REMARK    1  A    between atoms: C_1  and  C_2
REMARK    2  A    between atoms: C_4  and  N_5
REMARK    3  A    between atoms: N_5  and  C_6
REMARK    4  A    between atoms: C_6  and  C_7
REMARK    5  A    between atoms: C_7  and  C_8
REMARK    6  A    between atoms: C_8  and  C_9
REMARK    7  A    between atoms: C_9  and  N_10
REMARK    8  A    between atoms: N_10  and  C_11
REMARK                            x       y       z     vdW  Elec       q    Type
REMARK                         _______ _______ _______ _____ _____    ______ ____
ROOT
ATOM      1  C   UNL     1       7.338   6.366  17.746  0.00  0.00    +0.000 C 
ENDROOT
BRANCH   1   2
ATOM      2  N   UNL     1       6.254   6.877  16.940  0.00  0.00    +0.000 N 
ATOM      3  H   UNL     1       6.399   7.648  16.297  0.00  0.00    +0.000 HD
BRANCH   2   7
ATOM      4  C   UNL     1       1.807   8.758  17.877  0.00  0.00    +0.000 C 
ATOM      5  C   UNL     1       2.803   7.641  17.820  0.00  0.00    +0.000 A 
ATOM      6  C   UNL     1       4.087   7.866  17.386  0.00  0.00    +0.000 A 
ATOM      7  C   UNL     1       4.934   6.780  17.344  0.00  0.00    +0.000 A 
ATOM      8  N   UNL     1       4.525   5.562  17.723  0.00  0.00    +0.000 NA
ATOM      9  C   UNL     1       3.255   5.407  18.141  0.00  0.00    +0.000 A 
ATOM     10  N   UNL     1       2.806   4.137  18.435  0.00  0.00    +0.000 N 
ATOM     11  C   UNL     1       3.776   3.137  18.881  0.00  0.00    +0.000 C 
ATOM     12  C   UNL     1       3.199   1.738  18.600  0.00  0.00    +0.000 C 
ATOM     13  O   UNL     1       1.903   1.561  19.201  0.00  0.00    +0.000 OA
ATOM     14  C   UNL     1       0.983   2.556  18.714  0.00  0.00    +0.000 C 
ATOM     15  C   UNL     1       1.476   3.977  19.027  0.00  0.00    +0.000 C 
ATOM     16  N   UNL     1       2.382   6.423  18.201  0.00  0.00    +0.000 NA
ENDBRANCH   2   7
ENDBRANCH   1   2
BRANCH   1  17
ATOM     17  C   UNL     1       8.161   7.497  18.348  0.00  0.00    +0.000 C 
BRANCH  17  18
ATOM     18  C   UNL     1       7.666   8.844  17.814  0.00  0.00    +0.000 C 
BRANCH  18  19
ATOM     19  C   UNL     1       8.776   9.890  17.845  0.00  0.00    +0.000 C 
BRANCH  19  20
ATOM     20  N   UNL     1       9.256  10.061  19.218  0.00  0.00    +0.000 N 
ATOM     21  H   UNL     1       9.745   9.232  19.541  0.00  0.00    +0.000 HD
BRANCH  20  22
ATOM     22  C   UNL     1       9.988  11.236  19.517  0.00  0.00    +0.000 A 
ATOM     23  C   UNL     1      11.019  11.667  18.673  0.00  0.00    +0.000 A 
ATOM     24  C   UNL     1      11.679  12.845  18.956  0.00  0.00    +0.000 A 
ATOM     25  N   UNL     1      11.378  13.643  19.991  0.00  0.00    +0.000 NA
ATOM     26  C   UNL     1      10.361  13.282  20.784  0.00  0.00    +0.000 A 
ATOM     27  C   UNL     1      10.049  14.139  21.825  0.00  0.00    +0.000 A 
ATOM     28  C   UNL     1       9.006  13.863  22.702  0.00  0.00    +0.000 A 
ATOM     29 CL   UNL     1       8.650  14.959  23.979  0.00  0.00    +0.000 Cl
ATOM     30  C   UNL     1       8.252  12.713  22.547  0.00  0.00    +0.000 A 
ATOM     31  C   UNL     1       8.547  11.834  21.502  0.00  0.00    +0.000 A 
ATOM     32  C   UNL     1       9.611  12.093  20.598  0.00  0.00    +0.000 A 
ENDBRANCH  20  22
ENDBRANCH  19  20
ENDBRANCH  18  19
ENDBRANCH  17  18
ENDBRANCH   1  17
TORSDOF 7
ENDMDL
