MODEL 1
REMARK VINA RESULT:      -6.6      0.000      0.000
REMARK  Name = 
REMARK  8 active torsions:
REMARK  status: ('A' for Active; 'I' for Inactive)
REMARK    1  A    between atoms: C_2  and  C_13
REMARK    2  A    between atoms: N_3  and  C_4
REMARK    3  A    between atoms: C_4  and  P_5
REMARK    4  A    between atoms: C_4  and  P_9
REMARK    5  A    between atoms: P_5  and  O_7
REMARK    6  A    between atoms: P_5  and  O_8
REMARK    7  A    between atoms: P_9  and  O_11
REMARK    8  A    between atoms: P_9  and  O_12
REMARK                            x       y       z     vdW  Elec       q    Type
REMARK                         _______ _______ _______ _____ _____    ______ ____
ROOT
ATOM      1  C   UNL     1       5.648   4.855  17.393  0.00  0.00    +0.000 C 
ENDROOT
BRANCH   1   4
ATOM      2  O   UNL     1       3.709   4.995  19.471  0.00  0.00    +0.000 OA
ATOM      3  C   UNL     1       3.737   5.925  18.667  0.00  0.00    +0.000 C 
ATOM      4  N   UNL     1       4.650   5.944  17.660  0.00  0.00    +0.000 N 
ATOM      5  H   UNL     1       4.797   6.770  17.084  0.00  0.00    +0.000 HD
BRANCH   3   6
ATOM      6  C   UNL     1       2.868   7.129  18.818  0.00  0.00    +0.000 A 
ATOM      7  C   UNL     1       2.767   8.006  17.730  0.00  0.00    +0.000 A 
ATOM      8  C   UNL     1       1.932   9.124  17.798  0.00  0.00    +0.000 A 
ATOM      9  C   UNL     1       1.202   9.372  18.959  0.00  0.00    +0.000 A 
ATOM     10 BR   UNL     1       0.065  10.879  19.049  0.00  0.00    +0.000 Br
ATOM     11  C   UNL     1       1.306   8.517  20.056  0.00  0.00    +0.000 A 
ATOM     12  C   UNL     1       2.139   7.397  19.988  0.00  0.00    +0.000 A 
ENDBRANCH   3   6
ENDBRANCH   1   4
BRANCH   1  13
ATOM     13  P   UNL     1       5.703   4.694  15.572  0.00  0.00    +0.000 P 
ATOM     14  O   UNL     1       5.317   6.162  15.359  0.00  0.00    +0.000 OA
BRANCH  13  15
ATOM     15  O   UNL     1       7.349   4.650  15.560  0.00  0.00    +0.000 OA
ATOM     16  H   UNL     1       7.752   5.356  15.008  0.00  0.00    +0.000 HD
ENDBRANCH  13  15
BRANCH  13  17
ATOM     17  O   UNL     1       5.755   4.541  13.849  0.00  0.00    +0.000 OA
ATOM     18  H   UNL     1       5.024   3.914  13.657  0.00  0.00    +0.000 HD
ENDBRANCH  13  17
ENDBRANCH   1  13
BRANCH   1  19
ATOM     19  P   UNL     1       7.165   5.333  18.262  0.00  0.00    +0.000 P 
ATOM     20  O   UNL     1       7.742   6.641  17.827  0.00  0.00    +0.000 OA
BRANCH  19  21
ATOM     21  O   UNL     1       6.869   5.223  19.838  0.00  0.00    +0.000 OA
ATOM     22  H   UNL     1       7.356   5.884  20.395  0.00  0.00    +0.000 HD
ENDBRANCH  19  21
BRANCH  19  23
ATOM     23  O   UNL     1       8.190   4.118  18.082  0.00  0.00    +0.000 OA
ATOM     24  H   UNL     1       8.702   3.999  18.906  0.00  0.00    +0.000 HD
ENDBRANCH  19  23
ENDBRANCH   1  19
TORSDOF 8
ENDMDL
MODEL 2
REMARK VINA RESULT:      -6.6      0.606      1.648
REMARK  Name = 
REMARK  8 active torsions:
REMARK  status: ('A' for Active; 'I' for Inactive)
REMARK    1  A    between atoms: C_2  and  C_13
REMARK    2  A    between atoms: N_3  and  C_4
REMARK    3  A    between atoms: C_4  and  P_5
REMARK    4  A    between atoms: C_4  and  P_9
REMARK    5  A    between atoms: P_5  and  O_7
REMARK    6  A    between atoms: P_5  and  O_8
REMARK    7  A    between atoms: P_9  and  O_11
REMARK    8  A    between atoms: P_9  and  O_12
REMARK                            x       y       z     vdW  Elec       q    Type
REMARK                         _______ _______ _______ _____ _____    ______ ____
ROOT
ATOM      1  C   UNL     1       5.422   4.764  17.401  0.00  0.00    +0.000 C 
ENDROOT
BRANCH   1   4
ATOM      2  O   UNL     1       3.496   5.032  19.478  0.00  0.00    +0.000 OA
ATOM      3  C   UNL     1       3.551   5.934  18.645  0.00  0.00    +0.000 C 
ATOM      4  N   UNL     1       4.459   5.892  17.635  0.00  0.00    +0.000 N 
ATOM      5  H   UNL     1       4.631   6.695  17.033  0.00  0.00    +0.000 HD
BRANCH   3   6
ATOM      6  C   UNL     1       2.720   7.169  18.760  0.00  0.00    +0.000 A 
ATOM      7  C   UNL     1       2.067   7.409  19.977  0.00  0.00    +0.000 A 
ATOM      8  C   UNL     1       1.313   8.571  20.157  0.00  0.00    +0.000 A 
ATOM      9  C   UNL     1       1.204   9.492  19.117  0.00  0.00    +0.000 A 
ATOM     10 BR   UNL     1       0.191  11.070  19.363  0.00  0.00    +0.000 Br
ATOM     11  C   UNL     1       1.833   9.258  17.895  0.00  0.00    +0.000 A 
ATOM     12  C   UNL     1       2.589   8.096  17.714  0.00  0.00    +0.000 A 
ENDBRANCH   3   6
ENDBRANCH   1   4
BRANCH   1  13
ATOM     13  P   UNL     1       5.417   4.501  15.590  0.00  0.00    +0.000 P 
ATOM     14  O   UNL     1       6.496   5.565  15.360  0.00  0.00    +0.000 OA
BRANCH  13  15
ATOM     15  O   UNL     1       6.214   3.067  15.731  0.00  0.00    +0.000 OA
ATOM     16  H   UNL     1       5.630   2.324  15.998  0.00  0.00    +0.000 HD
ENDBRANCH  13  15
BRANCH  13  17
ATOM     17  O   UNL     1       5.411   4.253  13.878  0.00  0.00    +0.000 OA
ATOM     18  H   UNL     1       5.001   5.075  13.533  0.00  0.00    +0.000 HD
ENDBRANCH  13  17
ENDBRANCH   1  13
BRANCH   1  19
ATOM     19  P   UNL     1       6.976   5.250  18.196  0.00  0.00    +0.000 P 
ATOM     20  O   UNL     1       6.958   5.173  19.689  0.00  0.00    +0.000 OA
BRANCH  19  21
ATOM     21  O   UNL     1       8.155   4.412  17.497  0.00  0.00    +0.000 OA
ATOM     22  H   UNL     1       7.849   3.612  16.995  0.00  0.00    +0.000 HD
ENDBRANCH  19  21
BRANCH  19  23
ATOM     23  O   UNL     1       7.317   6.718  17.660  0.00  0.00    +0.000 OA
ATOM     24  H   UNL     1       8.168   7.014  18.041  0.00  0.00    +0.000 HD
ENDBRANCH  19  23
ENDBRANCH   1  19
TORSDOF 8
ENDMDL
MODEL 3
REMARK VINA RESULT:      -6.6      0.302      1.029
REMARK  Name = 
REMARK  8 active torsions:
REMARK  status: ('A' for Active; 'I' for Inactive)
REMARK    1  A    between atoms: C_2  and  C_13
REMARK    2  A    between atoms: N_3  and  C_4
REMARK    3  A    between atoms: C_4  and  P_5
REMARK    4  A    between atoms: C_4  and  P_9
REMARK    5  A    between atoms: P_5  and  O_7
REMARK    6  A    between atoms: P_5  and  O_8
REMARK    7  A    between atoms: P_9  and  O_11
REMARK    8  A    between atoms: P_9  and  O_12
REMARK                            x       y       z     vdW  Elec       q    Type
REMARK                         _______ _______ _______ _____ _____    ______ ____
ROOT
ATOM      1  C   UNL     1       5.697   4.831  17.422  0.00  0.00    +0.000 C 
ENDROOT
BRANCH   1   4
ATOM      2  O   UNL     1       3.211   4.670  18.797  0.00  0.00    +0.000 OA
ATOM      3  C   UNL     1       3.562   5.780  18.401  0.00  0.00    +0.000 C 
ATOM      4  N   UNL     1       4.747   5.944  17.758  0.00  0.00    +0.000 N 
ATOM      5  H   UNL     1       5.131   6.867  17.565  0.00  0.00    +0.000 HD
BRANCH   3   6
ATOM      6  C   UNL     1       2.779   7.014  18.708  0.00  0.00    +0.000 A 
ATOM      7  C   UNL     1       2.642   7.972  17.695  0.00  0.00    +0.000 A 
ATOM      8  C   UNL     1       1.883   9.125  17.910  0.00  0.00    +0.000 A 
ATOM      9  C   UNL     1       1.265   9.325  19.143  0.00  0.00    +0.000 A 
ATOM     10 BR   UNL     1       0.229  10.880  19.432  0.00  0.00    +0.000 Br
ATOM     11  C   UNL     1       1.407   8.388  20.166  0.00  0.00    +0.000 A 
ATOM     12  C   UNL     1       2.165   7.233  19.951  0.00  0.00    +0.000 A 
ENDBRANCH   3   6
ENDBRANCH   1   4
BRANCH   1  13
ATOM     13  P   UNL     1       5.702   4.742  15.595  0.00  0.00    +0.000 P 
ATOM     14  O   UNL     1       5.477   6.251  15.450  0.00  0.00    +0.000 OA
BRANCH  13  15
ATOM     15  O   UNL     1       7.333   4.519  15.546  0.00  0.00    +0.000 OA
ATOM     16  H   UNL     1       7.638   4.071  14.727  0.00  0.00    +0.000 HD
ENDBRANCH  13  15
BRANCH  13  17
ATOM     17  O   UNL     1       5.707   4.658  13.867  0.00  0.00    +0.000 OA
ATOM     18  H   UNL     1       5.427   5.560  13.597  0.00  0.00    +0.000 HD
ENDBRANCH  13  17
ENDBRANCH   1  13
BRANCH   1  19
ATOM     19  P   UNL     1       7.251   5.217  18.271  0.00  0.00    +0.000 P 
ATOM     20  O   UNL     1       7.113   5.448  19.741  0.00  0.00    +0.000 OA
BRANCH  19  21
ATOM     21  O   UNL     1       8.312   4.079  17.868  0.00  0.00    +0.000 OA
ATOM     22  H   UNL     1       8.394   3.920  16.893  0.00  0.00    +0.000 HD
ENDBRANCH  19  21
BRANCH  19  23
ATOM     23  O   UNL     1       7.881   6.473  17.507  0.00  0.00    +0.000 OA
ATOM     24  H   UNL     1       8.855   6.392  17.496  0.00  0.00    +0.000 HD
ENDBRANCH  19  23
ENDBRANCH   1  19
TORSDOF 8
ENDMDL
MODEL 4
REMARK VINA RESULT:      -6.6      0.552      1.114
REMARK  Name = 
REMARK  8 active torsions:
REMARK  status: ('A' for Active; 'I' for Inactive)
REMARK    1  A    between atoms: C_2  and  C_13
REMARK    2  A    between atoms: N_3  and  C_4
REMARK    3  A    between atoms: C_4  and  P_5
REMARK    4  A    between atoms: C_4  and  P_9
REMARK    5  A    between atoms: P_5  and  O_7
REMARK    6  A    between atoms: P_5  and  O_8
REMARK    7  A    between atoms: P_9  and  O_11
REMARK    8  A    between atoms: P_9  and  O_12
REMARK                            x       y       z     vdW  Elec       q    Type
REMARK                         _______ _______ _______ _____ _____    ______ ____
ROOT
ATOM      1  C   UNL     1       5.482   4.671  17.359  0.00  0.00    +0.000 C 
ENDROOT
BRANCH   1   4
ATOM      2  O   UNL     1       3.637   4.912  19.512  0.00  0.00    +0.000 OA
ATOM      3  C   UNL     1       3.666   5.829  18.692  0.00  0.00    +0.000 C 
ATOM      4  N   UNL     1       4.536   5.800  17.649  0.00  0.00    +0.000 N 
ATOM      5  H   UNL     1       4.689   6.612  17.054  0.00  0.00    +0.000 HD
BRANCH   3   6
ATOM      6  C   UNL     1       2.847   7.066  18.860  0.00  0.00    +0.000 A 
ATOM      7  C   UNL     1       2.781   7.959  17.782  0.00  0.00    +0.000 A 
ATOM      8  C   UNL     1       1.994   9.111  17.865  0.00  0.00    +0.000 A 
ATOM      9  C   UNL     1       1.277   9.374  19.031  0.00  0.00    +0.000 A 
ATOM     10 BR   UNL     1       0.204  10.927  19.141  0.00  0.00    +0.000 Br
ATOM     11  C   UNL     1       1.347   8.503  20.117  0.00  0.00    +0.000 A 
ATOM     12  C   UNL     1       2.133   7.350  20.034  0.00  0.00    +0.000 A 
ENDBRANCH   3   6
ENDBRANCH   1   4
BRANCH   1  13
ATOM     13  P   UNL     1       5.421   4.451  15.544  0.00  0.00    +0.000 P 
ATOM     14  O   UNL     1       6.379   5.621  15.297  0.00  0.00    +0.000 OA
BRANCH  13  15
ATOM     15  O   UNL     1       6.360   3.100  15.610  0.00  0.00    +0.000 OA
ATOM     16  H   UNL     1       6.105   2.487  16.333  0.00  0.00    +0.000 HD
ENDBRANCH  13  15
BRANCH  13  17
ATOM     17  O   UNL     1       5.362   4.243  13.827  0.00  0.00    +0.000 OA
ATOM     18  H   UNL     1       4.404   4.312  13.625  0.00  0.00    +0.000 HD
ENDBRANCH  13  17
ENDBRANCH   1  13
BRANCH   1  19
ATOM     19  P   UNL     1       7.063   5.127  18.118  0.00  0.00    +0.000 P 
ATOM     20  O   UNL     1       8.205   4.233  17.756  0.00  0.00    +0.000 OA
BRANCH  19  21
ATOM     21  O   UNL     1       7.309   6.685  17.813  0.00  0.00    +0.000 OA
ATOM     22  H   UNL     1       7.689   6.873  16.917  0.00  0.00    +0.000 HD
ENDBRANCH  19  21
BRANCH  19  23
ATOM     23  O   UNL     1       6.804   5.185  19.696  0.00  0.00    +0.000 OA
ATOM     24  H   UNL     1       7.379   5.868  20.095  0.00  0.00    +0.000 HD
ENDBRANCH  19  23
ENDBRANCH   1  19
TORSDOF 8
ENDMDL
MODEL 5
REMARK VINA RESULT:      -6.5      0.678      1.625
REMARK  Name = 
REMARK  8 active torsions:
REMARK  status: ('A' for Active; 'I' for Inactive)
REMARK    1  A    between atoms: C_2  and  C_13
REMARK    2  A    between atoms: N_3  and  C_4
REMARK    3  A    between atoms: C_4  and  P_5
REMARK    4  A    between atoms: C_4  and  P_9
REMARK    5  A    between atoms: P_5  and  O_7
REMARK    6  A    between atoms: P_5  and  O_8
REMARK    7  A    between atoms: P_9  and  O_11
REMARK    8  A    between atoms: P_9  and  O_12
REMARK                            x       y       z     vdW  Elec       q    Type
REMARK                         _______ _______ _______ _____ _____    ______ ____
ROOT
ATOM      1  C   UNL     1       5.578   4.719  17.443  0.00  0.00    +0.000 C 
ENDROOT
BRANCH   1   4
ATOM      2  O   UNL     1       2.990   4.618  18.622  0.00  0.00    +0.000 OA
ATOM      3  C   UNL     1       3.425   5.727  18.318  0.00  0.00    +0.000 C 
ATOM      4  N   UNL     1       4.662   5.862  17.773  0.00  0.00    +0.000 N 
ATOM      5  H   UNL     1       5.104   6.772  17.662  0.00  0.00    +0.000 HD
BRANCH   3   6
ATOM      6  C   UNL     1       2.683   6.983  18.638  0.00  0.00    +0.000 A 
ATOM      7  C   UNL     1       2.151   7.120  19.927  0.00  0.00    +0.000 A 
ATOM      8  C   UNL     1       1.487   8.292  20.297  0.00  0.00    +0.000 A 
ATOM      9  C   UNL     1       1.347   9.327  19.374  0.00  0.00    +0.000 A 
ATOM     10 BR   UNL     1       0.457  10.918  19.876  0.00  0.00    +0.000 Br
ATOM     11  C   UNL     1       1.856   9.198  18.082  0.00  0.00    +0.000 A 
ATOM     12  C   UNL     1       2.522   8.026  17.712  0.00  0.00    +0.000 A 
ENDBRANCH   3   6
ENDBRANCH   1   4
BRANCH   1  13
ATOM     13  P   UNL     1       5.448   4.510  15.631  0.00  0.00    +0.000 P 
ATOM     14  O   UNL     1       6.449   5.638  15.357  0.00  0.00    +0.000 OA
BRANCH  13  15
ATOM     15  O   UNL     1       6.328   3.118  15.663  0.00  0.00    +0.000 OA
ATOM     16  H   UNL     1       7.293   3.268  15.567  0.00  0.00    +0.000 HD
ENDBRANCH  13  15
BRANCH  13  17
ATOM     17  O   UNL     1       5.324   4.312  13.916  0.00  0.00    +0.000 OA
ATOM     18  H   UNL     1       4.733   5.048  13.647  0.00  0.00    +0.000 HD
ENDBRANCH  13  17
ENDBRANCH   1  13
BRANCH   1  19
ATOM     19  P   UNL     1       7.192   5.143  18.149  0.00  0.00    +0.000 P 
ATOM     20  O   UNL     1       8.292   4.195  17.793  0.00  0.00    +0.000 OA
BRANCH  19  21
ATOM     21  O   UNL     1       7.487   6.678  17.780  0.00  0.00    +0.000 OA
ATOM     22  H   UNL     1       7.939   6.813  16.908  0.00  0.00    +0.000 HD
ENDBRANCH  19  21
BRANCH  19  23
ATOM     23  O   UNL     1       6.974   5.268  19.729  0.00  0.00    +0.000 OA
ATOM     24  H   UNL     1       6.195   5.831  19.906  0.00  0.00    +0.000 HD
ENDBRANCH  19  23
ENDBRANCH   1  19
TORSDOF 8
ENDMDL
MODEL 6
REMARK VINA RESULT:      -6.5      2.907      4.793
REMARK  Name = 
REMARK  8 active torsions:
REMARK  status: ('A' for Active; 'I' for Inactive)
REMARK    1  A    between atoms: C_2  and  C_13
REMARK    2  A    between atoms: N_3  and  C_4
REMARK    3  A    between atoms: C_4  and  P_5
REMARK    4  A    between atoms: C_4  and  P_9
REMARK    5  A    between atoms: P_5  and  O_7
REMARK    6  A    between atoms: P_5  and  O_8
REMARK    7  A    between atoms: P_9  and  O_11
REMARK    8  A    between atoms: P_9  and  O_12
REMARK                            x       y       z     vdW  Elec       q    Type
REMARK                         _______ _______ _______ _____ _____    ______ ____
ROOT
ATOM      1  C   UNL     1       2.892   3.847  19.448  0.00  0.00    +0.000 C 
ENDROOT
BRANCH   1   4
ATOM      2  O   UNL     1       4.123   6.241  18.525  0.00  0.00    +0.000 OA
ATOM      3  C   UNL     1       3.010   6.345  19.037  0.00  0.00    +0.000 C 
ATOM      4  N   UNL     1       2.345   5.245  19.480  0.00  0.00    +0.000 N 
ATOM      5  H   UNL     1       1.367   5.285  19.758  0.00  0.00    +0.000 HD
BRANCH   3   6
ATOM      6  C   UNL     1       2.281   7.646  19.088  0.00  0.00    +0.000 A 
ATOM      7  C   UNL     1       2.246   8.425  17.924  0.00  0.00    +0.000 A 
ATOM      8  C   UNL     1       1.540   9.631  17.900  0.00  0.00    +0.000 A 
ATOM      9  C   UNL     1       0.873  10.063  19.045  0.00  0.00    +0.000 A 
ATOM     10 BR   UNL     1      -0.090  11.689  19.012  0.00  0.00    +0.000 Br
ATOM     11  C   UNL     1       0.914   9.307  20.216  0.00  0.00    +0.000 A 
ATOM     12  C   UNL     1       1.619   8.100  20.240  0.00  0.00    +0.000 A 
ENDBRANCH   3   6
ENDBRANCH   1   4
BRANCH   1  13
ATOM     13  P   UNL     1       2.156   3.013  20.899  0.00  0.00    +0.000 P 
ATOM     14  O   UNL     1       2.286   4.265  21.775  0.00  0.00    +0.000 OA
BRANCH  13  15
ATOM     15  O   UNL     1       0.644   3.070  20.247  0.00  0.00    +0.000 OA
ATOM     16  H   UNL     1       0.637   2.937  19.275  0.00  0.00    +0.000 HD
ENDBRANCH  13  15
BRANCH  13  17
ATOM     17  O   UNL     1       1.459   2.224  22.273  0.00  0.00    +0.000 OA
ATOM     18  H   UNL     1       0.571   1.957  21.952  0.00  0.00    +0.000 HD
ENDBRANCH  13  17
ENDBRANCH   1  13
BRANCH   1  19
ATOM     19  P   UNL     1       2.519   3.196  17.798  0.00  0.00    +0.000 P 
ATOM     20  O   UNL     1       3.585   3.443  16.779  0.00  0.00    +0.000 OA
BRANCH  19  21
ATOM     21  O   UNL     1       2.107   1.653  17.975  0.00  0.00    +0.000 OA
ATOM     22  H   UNL     1       1.143   1.504  18.156  0.00  0.00    +0.000 HD
ENDBRANCH  19  21
BRANCH  19  23
ATOM     23  O   UNL     1       1.108   3.820  17.376  0.00  0.00    +0.000 OA
ATOM     24  H   UNL     1       0.827   3.439  16.520  0.00  0.00    +0.000 HD
ENDBRANCH  19  23
ENDBRANCH   1  19
TORSDOF 8
ENDMDL
MODEL 7
REMARK VINA RESULT:      -6.5      2.914      4.749
REMARK  Name = 
REMARK  8 active torsions:
REMARK  status: ('A' for Active; 'I' for Inactive)
REMARK    1  A    between atoms: C_2  and  C_13
REMARK    2  A    between atoms: N_3  and  C_4
REMARK    3  A    between atoms: C_4  and  P_5
REMARK    4  A    between atoms: C_4  and  P_9
REMARK    5  A    between atoms: P_5  and  O_7
REMARK    6  A    between atoms: P_5  and  O_8
REMARK    7  A    between atoms: P_9  and  O_11
REMARK    8  A    between atoms: P_9  and  O_12
REMARK                            x       y       z     vdW  Elec       q    Type
REMARK                         _______ _______ _______ _____ _____    ______ ____
ROOT
ATOM      1  C   UNL     1       2.892   3.909  19.416  0.00  0.00    +0.000 C 
ENDROOT
BRANCH   1   4
ATOM      2  O   UNL     1       4.004   6.264  18.269  0.00  0.00    +0.000 OA
ATOM      3  C   UNL     1       2.971   6.393  18.922  0.00  0.00    +0.000 C 
ATOM      4  N   UNL     1       2.365   5.313  19.483  0.00  0.00    +0.000 N 
ATOM      5  H   UNL     1       1.432   5.371  19.888  0.00  0.00    +0.000 HD
BRANCH   3   6
ATOM      6  C   UNL     1       2.264   7.703  19.035  0.00  0.00    +0.000 A 
ATOM      7  C   UNL     1       2.235   8.531  17.905  0.00  0.00    +0.000 A 
ATOM      8  C   UNL     1       1.549   9.749  17.937  0.00  0.00    +0.000 A 
ATOM      9  C   UNL     1       0.898  10.143  19.105  0.00  0.00    +0.000 A 
ATOM     10 BR   UNL     1      -0.038  11.785  19.148  0.00  0.00    +0.000 Br
ATOM     11  C   UNL     1       0.934   9.337  20.242  0.00  0.00    +0.000 A 
ATOM     12  C   UNL     1       1.618   8.119  20.209  0.00  0.00    +0.000 A 
ENDBRANCH   3   6
ENDBRANCH   1   4
BRANCH   1  13
ATOM     13  P   UNL     1       2.197   3.069  20.885  0.00  0.00    +0.000 P 
ATOM     14  O   UNL     1       2.178   4.363  21.706  0.00  0.00    +0.000 OA
BRANCH  13  15
ATOM     15  O   UNL     1       0.708   2.949  20.192  0.00  0.00    +0.000 OA
ATOM     16  H   UNL     1       0.743   2.745  19.232  0.00  0.00    +0.000 HD
ENDBRANCH  13  15
BRANCH  13  17
ATOM     17  O   UNL     1       1.540   2.274  22.274  0.00  0.00    +0.000 OA
ATOM     18  H   UNL     1       1.835   1.344  22.162  0.00  0.00    +0.000 HD
ENDBRANCH  13  17
ENDBRANCH   1  13
BRANCH   1  19
ATOM     19  P   UNL     1       2.453   3.279  17.775  0.00  0.00    +0.000 P 
ATOM     20  O   UNL     1       1.157   3.796  17.239  0.00  0.00    +0.000 OA
BRANCH  19  21
ATOM     21  O   UNL     1       3.719   3.522  16.815  0.00  0.00    +0.000 OA
ATOM     22  H   UNL     1       4.274   4.308  17.058  0.00  0.00    +0.000 HD
ENDBRANCH  19  21
BRANCH  19  23
ATOM     23  O   UNL     1       2.483   1.683  17.883  0.00  0.00    +0.000 OA
ATOM     24  H   UNL     1       2.786   1.424  18.775  0.00  0.00    +0.000 HD
ENDBRANCH  19  23
ENDBRANCH   1  19
TORSDOF 8
ENDMDL
MODEL 8
REMARK VINA RESULT:      -6.5      2.889      4.910
REMARK  Name = 
REMARK  8 active torsions:
REMARK  status: ('A' for Active; 'I' for Inactive)
REMARK    1  A    between atoms: C_2  and  C_13
REMARK    2  A    between atoms: N_3  and  C_4
REMARK    3  A    between atoms: C_4  and  P_5
REMARK    4  A    between atoms: C_4  and  P_9
REMARK    5  A    between atoms: P_5  and  O_7
REMARK    6  A    between atoms: P_5  and  O_8
REMARK    7  A    between atoms: P_9  and  O_11
REMARK    8  A    between atoms: P_9  and  O_12
REMARK                            x       y       z     vdW  Elec       q    Type
REMARK                         _______ _______ _______ _____ _____    ______ ____
ROOT
ATOM      1  C   UNL     1       2.904   3.837  19.456  0.00  0.00    +0.000 C 
ENDROOT
BRANCH   1   4
ATOM      2  O   UNL     1       4.157   6.217  18.528  0.00  0.00    +0.000 OA
ATOM      3  C   UNL     1       3.027   6.326  19.001  0.00  0.00    +0.000 C 
ATOM      4  N   UNL     1       2.352   5.233  19.444  0.00  0.00    +0.000 N 
ATOM      5  H   UNL     1       1.365   5.274  19.688  0.00  0.00    +0.000 HD
BRANCH   3   6
ATOM      6  C   UNL     1       2.292   7.626  19.003  0.00  0.00    +0.000 A 
ATOM      7  C   UNL     1       1.656   8.017  20.189  0.00  0.00    +0.000 A 
ATOM      8  C   UNL     1       0.991   9.244  20.263  0.00  0.00    +0.000 A 
ATOM      9  C   UNL     1       0.956  10.079  19.148  0.00  0.00    +0.000 A 
ATOM     10 BR   UNL     1       0.066  11.744  19.250  0.00  0.00    +0.000 Br
ATOM     11  C   UNL     1       1.570   9.694  17.956  0.00  0.00    +0.000 A 
ATOM     12  C   UNL     1       2.236   8.468  17.882  0.00  0.00    +0.000 A 
ENDBRANCH   3   6
ENDBRANCH   1   4
BRANCH   1  13
ATOM     13  P   UNL     1       2.138   3.034  20.910  0.00  0.00    +0.000 P 
ATOM     14  O   UNL     1       2.251   4.305  21.761  0.00  0.00    +0.000 OA
BRANCH  13  15
ATOM     15  O   UNL     1       0.640   3.077  20.226  0.00  0.00    +0.000 OA
ATOM     16  H   UNL     1       0.415   2.258  19.734  0.00  0.00    +0.000 HD
ENDBRANCH  13  15
BRANCH  13  17
ATOM     17  O   UNL     1       1.413   2.275  22.286  0.00  0.00    +0.000 OA
ATOM     18  H   UNL     1       0.488   2.603  22.263  0.00  0.00    +0.000 HD
ENDBRANCH  13  17
ENDBRANCH   1  13
BRANCH   1  19
ATOM     19  P   UNL     1       2.571   3.145  17.815  0.00  0.00    +0.000 P 
ATOM     20  O   UNL     1       3.663   3.364  16.817  0.00  0.00    +0.000 OA
BRANCH  19  21
ATOM     21  O   UNL     1       2.149   1.609  18.019  0.00  0.00    +0.000 OA
ATOM     22  H   UNL     1       2.880   0.957  17.861  0.00  0.00    +0.000 HD
ENDBRANCH  19  21
BRANCH  19  23
ATOM     23  O   UNL     1       1.172   3.762  17.342  0.00  0.00    +0.000 OA
ATOM     24  H   UNL     1       0.727   3.132  16.740  0.00  0.00    +0.000 HD
ENDBRANCH  19  23
ENDBRANCH   1  19
TORSDOF 8
ENDMDL
MODEL 9
REMARK VINA RESULT:      -6.5      2.930      4.883
REMARK  Name = 
REMARK  8 active torsions:
REMARK  status: ('A' for Active; 'I' for Inactive)
REMARK    1  A    between atoms: C_2  and  C_13
REMARK    2  A    between atoms: N_3  and  C_4
REMARK    3  A    between atoms: C_4  and  P_5
REMARK    4  A    between atoms: C_4  and  P_9
REMARK    5  A    between atoms: P_5  and  O_7
REMARK    6  A    between atoms: P_5  and  O_8
REMARK    7  A    between atoms: P_9  and  O_11
REMARK    8  A    between atoms: P_9  and  O_12
REMARK                            x       y       z     vdW  Elec       q    Type
REMARK                         _______ _______ _______ _____ _____    ______ ____
ROOT
ATOM      1  C   UNL     1       2.876   3.953  19.404  0.00  0.00    +0.000 C 
ENDROOT
BRANCH   1   4
ATOM      2  O   UNL     1       3.976   6.307  18.243  0.00  0.00    +0.000 OA
ATOM      3  C   UNL     1       2.944   6.435  18.900  0.00  0.00    +0.000 C 
ATOM      4  N   UNL     1       2.344   5.356  19.467  0.00  0.00    +0.000 N 
ATOM      5  H   UNL     1       1.413   5.411  19.875  0.00  0.00    +0.000 HD
BRANCH   3   6
ATOM      6  C   UNL     1       2.233   7.743  19.010  0.00  0.00    +0.000 A 
ATOM      7  C   UNL     1       1.623   8.057  20.232  0.00  0.00    +0.000 A 
ATOM      8  C   UNL     1       0.982   9.286  20.408  0.00  0.00    +0.000 A 
ATOM      9  C   UNL     1       0.945  10.201  19.358  0.00  0.00    +0.000 A 
ATOM     10 BR   UNL     1       0.087  11.869  19.597  0.00  0.00    +0.000 Br
ATOM     11  C   UNL     1       1.532   9.895  18.131  0.00  0.00    +0.000 A 
ATOM     12  C   UNL     1       2.175   8.667  17.955  0.00  0.00    +0.000 A 
ENDBRANCH   3   6
ENDBRANCH   1   4
BRANCH   1  13
ATOM     13  P   UNL     1       2.189   3.116  20.878  0.00  0.00    +0.000 P 
ATOM     14  O   UNL     1       2.189   4.409  21.701  0.00  0.00    +0.000 OA
BRANCH  13  15
ATOM     15  O   UNL     1       0.693   3.008  20.200  0.00  0.00    +0.000 OA
ATOM     16  H   UNL     1       0.099   2.382  20.669  0.00  0.00    +0.000 HD
ENDBRANCH  13  15
BRANCH  13  17
ATOM     17  O   UNL     1       1.540   2.323  22.273  0.00  0.00    +0.000 OA
ATOM     18  H   UNL     1       2.167   2.574  22.985  0.00  0.00    +0.000 HD
ENDBRANCH  13  17
ENDBRANCH   1  13
BRANCH   1  19
ATOM     19  P   UNL     1       2.433   3.316  17.766  0.00  0.00    +0.000 P 
ATOM     20  O   UNL     1       1.141   3.837  17.227  0.00  0.00    +0.000 OA
BRANCH  19  21
ATOM     21  O   UNL     1       3.701   3.544  16.805  0.00  0.00    +0.000 OA
ATOM     22  H   UNL     1       3.666   4.379  16.271  0.00  0.00    +0.000 HD
ENDBRANCH  19  21
BRANCH  19  23
ATOM     23  O   UNL     1       2.452   1.720  17.884  0.00  0.00    +0.000 OA
ATOM     24  H   UNL     1       1.900   1.444  18.642  0.00  0.00    +0.000 HD
ENDBRANCH  19  23
ENDBRANCH   1  19
TORSDOF 8
ENDMDL
