MODEL 1
REMARK VINA RESULT:      -8.6      0.000      0.000
REMARK  Name = 
REMARK  7 active torsions:
REMARK  status: ('A' for Active; 'I' for Inactive)
REMARK    1  A    between atoms: C_1  and  O_2
REMARK    2  A    between atoms: O_2  and  C_3
REMARK    3  A    between atoms: C_6  and  N_7
REMARK    4  A    between atoms: C_10  and  C_11
REMARK    5  A    between atoms: C_11  and  C_12
REMARK    6  A    between atoms: C_12  and  C_13
REMARK    7  A    between atoms: C_13  and  N_14
REMARK                            x       y       z     vdW  Elec       q    Type
REMARK                         _______ _______ _______ _____ _____    ______ ____
ROOT
ATOM      1  C   UNL     1       3.147   8.061  18.152  0.00  0.00    +0.000 C 
ENDROOT
BRANCH   1   2
ATOM      2  C   UNL     1       1.811   8.671  17.707  0.00  0.00    +0.000 C 
BRANCH   2   6
ATOM      3  N   UNL     1       0.344  10.884  20.016  0.00  0.00    +0.000 N 
ATOM      4  N   UNL     1       1.068  11.782  19.305  0.00  0.00    +0.000 NA
ATOM      5  N   UNL     1       1.717  11.076  18.387  0.00  0.00    +0.000 NA
ATOM      6  C   UNL     1       1.360   9.774  18.587  0.00  0.00    +0.000 A 
ATOM      7  N   UNL     1       0.547   9.595  19.633  0.00  0.00    +0.000 NA
BRANCH   3  11
ATOM      8  C   UNL     1      -2.443  12.080  22.941  0.00  0.00    +0.000 A 
ATOM      9  C   UNL     1      -1.501  11.093  23.230  0.00  0.00    +0.000 A 
ATOM     10  C   UNL     1      -0.586  10.670  22.265  0.00  0.00    +0.000 A 
ATOM     11  C   UNL     1      -0.620  11.233  20.983  0.00  0.00    +0.000 A 
ATOM     12  C   UNL     1      -1.605  12.177  20.667  0.00  0.00    +0.000 A 
ATOM     13  C   UNL     1      -2.510  12.603  21.651  0.00  0.00    +0.000 A 
BRANCH   8  15
ATOM     14  C   UNL     1      -3.523  13.813  24.113  0.00  0.00    +0.000 C 
ATOM     15  O   UNL     1      -3.288  12.418  23.968  0.00  0.00    +0.000 OA
ENDBRANCH   8  15
ENDBRANCH   3  11
ENDBRANCH   2   6
ENDBRANCH   1   2
BRANCH   1  16
ATOM     16  C   UNL     1       3.280   6.634  17.631  0.00  0.00    +0.000 C 
BRANCH  16  17
ATOM     17  N   UNL     1       3.962   5.749  18.639  0.00  0.00    +0.000 N 
ATOM     18  C   UNL     1       2.986   4.843  19.167  0.00  0.00    +0.000 A 
ATOM     19  C   UNL     1       2.063   5.329  20.113  0.00  0.00    +0.000 A 
ATOM     20  C   UNL     1       1.103   4.489  20.678  0.00  0.00    +0.000 A 
ATOM     21  C   UNL     1       1.073   3.142  20.332  0.00  0.00    +0.000 A 
ATOM     22  C   UNL     1       1.976   2.646  19.388  0.00  0.00    +0.000 A 
ATOM     23  C   UNL     1       2.916   3.493  18.780  0.00  0.00    +0.000 A 
ATOM     24  S   UNL     1       3.887   2.830  17.432  0.00  0.00    +0.000 S 
ATOM     25  C   UNL     1       5.077   4.120  17.151  0.00  0.00    +0.000 A 
ATOM     26  C   UNL     1       5.939   4.035  16.054  0.00  0.00    +0.000 A 
ATOM     27  C   UNL     1       6.929   5.001  15.853  0.00  0.00    +0.000 A 
ATOM     28  C   UNL     1       7.134   6.003  16.800  0.00  0.00    +0.000 A 
ATOM     29  C   UNL     1       6.245   6.129  17.861  0.00  0.00    +0.000 A 
ATOM     30  C   UNL     1       5.139   5.267  17.955  0.00  0.00    +0.000 A 
ENDBRANCH  16  17
ENDBRANCH   1  16
TORSDOF 6
ENDMDL
MODEL 2
REMARK VINA RESULT:      -8.6      1.033      1.478
REMARK  Name = 
REMARK  7 active torsions:
REMARK  status: ('A' for Active; 'I' for Inactive)
REMARK    1  A    between atoms: C_1  and  O_2
REMARK    2  A    between atoms: O_2  and  C_3
REMARK    3  A    between atoms: C_6  and  N_7
REMARK    4  A    between atoms: C_10  and  C_11
REMARK    5  A    between atoms: C_11  and  C_12
REMARK    6  A    between atoms: C_12  and  C_13
REMARK    7  A    between atoms: C_13  and  N_14
REMARK                            x       y       z     vdW  Elec       q    Type
REMARK                         _______ _______ _______ _____ _____    ______ ____
ROOT
ATOM      1  C   UNL     1       2.731   6.379  18.858  0.00  0.00    +0.000 C 
ENDROOT
BRANCH   1   2
ATOM      2  C   UNL     1       2.577   7.513  17.836  0.00  0.00    +0.000 C 
BRANCH   2   6
ATOM      3  N   UNL     1       1.001  10.075  19.661  0.00  0.00    +0.000 N 
ATOM      4  N   UNL     1       1.316  10.782  18.548  0.00  0.00    +0.000 NA
ATOM      5  N   UNL     1       1.958   9.935  17.753  0.00  0.00    +0.000 NA
ATOM      6  C   UNL     1       2.008   8.747  18.425  0.00  0.00    +0.000 A 
ATOM      7  N   UNL     1       1.474   8.800  19.649  0.00  0.00    +0.000 NA
BRANCH   3  11
ATOM      8  C   UNL     1      -1.606  11.361  22.711  0.00  0.00    +0.000 A 
ATOM      9  C   UNL     1      -1.604  12.003  21.472  0.00  0.00    +0.000 A 
ATOM     10  C   UNL     1      -0.730  11.602  20.460  0.00  0.00    +0.000 A 
ATOM     11  C   UNL     1       0.167  10.552  20.692  0.00  0.00    +0.000 A 
ATOM     12  C   UNL     1       0.213   9.947  21.954  0.00  0.00    +0.000 A 
ATOM     13  C   UNL     1      -0.680  10.351  22.959  0.00  0.00    +0.000 A 
BRANCH   8  15
ATOM     14  C   UNL     1      -3.545  12.644  23.080  0.00  0.00    +0.000 C 
ATOM     15  O   UNL     1      -2.511  11.837  23.627  0.00  0.00    +0.000 OA
ENDBRANCH   8  15
ENDBRANCH   3  11
ENDBRANCH   2   6
ENDBRANCH   1   2
BRANCH   1  16
ATOM     16  C   UNL     1       4.206   6.117  19.143  0.00  0.00    +0.000 C 
BRANCH  16  17
ATOM     17  N   UNL     1       4.466   4.649  19.347  0.00  0.00    +0.000 N 
ATOM     18  C   UNL     1       3.215   4.011  19.627  0.00  0.00    +0.000 A 
ATOM     19  C   UNL     1       2.658   4.161  20.911  0.00  0.00    +0.000 A 
ATOM     20  C   UNL     1       1.452   3.546  21.248  0.00  0.00    +0.000 A 
ATOM     21  C   UNL     1       0.801   2.742  20.318  0.00  0.00    +0.000 A 
ATOM     22  C   UNL     1       1.336   2.590  19.036  0.00  0.00    +0.000 A 
ATOM     23  C   UNL     1       2.525   3.241  18.673  0.00  0.00    +0.000 A 
ATOM     24  S   UNL     1       3.025   3.168  16.957  0.00  0.00    +0.000 S 
ATOM     25  C   UNL     1       4.653   3.880  17.004  0.00  0.00    +0.000 A 
ATOM     26  C   UNL     1       5.329   4.135  15.808  0.00  0.00    +0.000 A 
ATOM     27  C   UNL     1       6.636   4.630  15.823  0.00  0.00    +0.000 A 
ATOM     28  C   UNL     1       7.316   4.776  17.030  0.00  0.00    +0.000 A 
ATOM     29  C   UNL     1       6.634   4.581  18.225  0.00  0.00    +0.000 A 
ATOM     30  C   UNL     1       5.265   4.265  18.206  0.00  0.00    +0.000 A 
ENDBRANCH  16  17
ENDBRANCH   1  16
TORSDOF 6
ENDMDL
MODEL 3
REMARK VINA RESULT:      -8.5      0.987      1.370
REMARK  Name = 
REMARK  7 active torsions:
REMARK  status: ('A' for Active; 'I' for Inactive)
REMARK    1  A    between atoms: C_1  and  O_2
REMARK    2  A    between atoms: O_2  and  C_3
REMARK    3  A    between atoms: C_6  and  N_7
REMARK    4  A    between atoms: C_10  and  C_11
REMARK    5  A    between atoms: C_11  and  C_12
REMARK    6  A    between atoms: C_12  and  C_13
REMARK    7  A    between atoms: C_13  and  N_14
REMARK                            x       y       z     vdW  Elec       q    Type
REMARK                         _______ _______ _______ _____ _____    ______ ____
ROOT
ATOM      1  C   UNL     1       2.300   7.712  18.981  0.00  0.00    +0.000 C 
ENDROOT
BRANCH   1   2
ATOM      2  C   UNL     1       2.003   8.852  17.998  0.00  0.00    +0.000 C 
BRANCH   2   6
ATOM      3  N   UNL     1      -0.475  10.837  19.514  0.00  0.00    +0.000 N 
ATOM      4  N   UNL     1      -1.133  10.529  18.369  0.00  0.00    +0.000 NA
ATOM      5  N   UNL     1      -0.293   9.785  17.660  0.00  0.00    +0.000 NA
ATOM      6  C   UNL     1       0.844   9.679  18.408  0.00  0.00    +0.000 A 
ATOM      7  N   UNL     1       0.801  10.369  19.552  0.00  0.00    +0.000 NA
BRANCH   3  11
ATOM      8  C   UNL     1      -2.376  12.609  22.830  0.00  0.00    +0.000 A 
ATOM      9  C   UNL     1      -2.597  13.106  21.546  0.00  0.00    +0.000 A 
ATOM     10  C   UNL     1      -1.958  12.543  20.440  0.00  0.00    +0.000 A 
ATOM     11  C   UNL     1      -1.070  11.476  20.621  0.00  0.00    +0.000 A 
ATOM     12  C   UNL     1      -0.794  11.016  21.915  0.00  0.00    +0.000 A 
ATOM     13  C   UNL     1      -1.454  11.581  23.016  0.00  0.00    +0.000 A 
BRANCH   8  15
ATOM     14  C   UNL     1      -4.057  12.442  24.469  0.00  0.00    +0.000 C 
ATOM     15  O   UNL     1      -3.061  13.238  23.839  0.00  0.00    +0.000 OA
ENDBRANCH   8  15
ENDBRANCH   3  11
ENDBRANCH   2   6
ENDBRANCH   1   2
BRANCH   1  16
ATOM     16  C   UNL     1       2.564   6.413  18.225  0.00  0.00    +0.000 C 
BRANCH  16  17
ATOM     17  N   UNL     1       3.597   5.576  18.929  0.00  0.00    +0.000 N 
ATOM     18  C   UNL     1       2.922   4.496  19.584  0.00  0.00    +0.000 A 
ATOM     19  C   UNL     1       2.226   4.767  20.778  0.00  0.00    +0.000 A 
ATOM     20  C   UNL     1       1.567   3.751  21.472  0.00  0.00    +0.000 A 
ATOM     21  C   UNL     1       1.622   2.443  21.001  0.00  0.00    +0.000 A 
ATOM     22  C   UNL     1       2.301   2.160  19.813  0.00  0.00    +0.000 A 
ATOM     23  C   UNL     1       2.929   3.182  19.084  0.00  0.00    +0.000 A 
ATOM     24  S   UNL     1       3.588   2.772  17.473  0.00  0.00    +0.000 S 
ATOM     25  C   UNL     1       4.483   4.246  17.043  0.00  0.00    +0.000 A 
ATOM     26  C   UNL     1       5.030   4.372  15.762  0.00  0.00    +0.000 A 
ATOM     27  C   UNL     1       5.797   5.491  15.424  0.00  0.00    +0.000 A 
ATOM     28  C   UNL     1       6.111   6.443  16.392  0.00  0.00    +0.000 A 
ATOM     29  C   UNL     1       5.524   6.357  17.649  0.00  0.00    +0.000 A 
ATOM     30  C   UNL     1       4.605   5.330  17.924  0.00  0.00    +0.000 A 
ENDBRANCH  16  17
ENDBRANCH   1  16
TORSDOF 6
ENDMDL
MODEL 4
REMARK VINA RESULT:      -8.4      2.723      4.602
REMARK  Name = 
REMARK  7 active torsions:
REMARK  status: ('A' for Active; 'I' for Inactive)
REMARK    1  A    between atoms: C_1  and  O_2
REMARK    2  A    between atoms: O_2  and  C_3
REMARK    3  A    between atoms: C_6  and  N_7
REMARK    4  A    between atoms: C_10  and  C_11
REMARK    5  A    between atoms: C_11  and  C_12
REMARK    6  A    between atoms: C_12  and  C_13
REMARK    7  A    between atoms: C_13  and  N_14
REMARK                            x       y       z     vdW  Elec       q    Type
REMARK                         _______ _______ _______ _____ _____    ______ ____
ROOT
ATOM      1  C   UNL     1       1.877   7.596  17.830  0.00  0.00    +0.000 C 
ENDROOT
BRANCH   1   2
ATOM      2  C   UNL     1       2.300   9.063  17.983  0.00  0.00    +0.000 C 
BRANCH   2   6
ATOM      3  N   UNL     1      -0.728  10.830  18.279  0.00  0.00    +0.000 N 
ATOM      4  N   UNL     1       0.100  11.752  18.830  0.00  0.00    +0.000 NA
ATOM      5  N   UNL     1       1.309  11.204  18.814  0.00  0.00    +0.000 NA
ATOM      6  C   UNL     1       1.159   9.967  18.256  0.00  0.00    +0.000 A 
ATOM      7  N   UNL     1      -0.108   9.663  17.958  0.00  0.00    +0.000 NA
BRANCH   3  11
ATOM      8  C   UNL     1      -4.709  11.714  17.219  0.00  0.00    +0.000 A 
ATOM      9  C   UNL     1      -4.264  11.934  18.523  0.00  0.00    +0.000 A 
ATOM     10  C   UNL     1      -2.955  11.625  18.895  0.00  0.00    +0.000 A 
ATOM     11  C   UNL     1      -2.077  11.074  17.953  0.00  0.00    +0.000 A 
ATOM     12  C   UNL     1      -2.537  10.791  16.660  0.00  0.00    +0.000 A 
ATOM     13  C   UNL     1      -3.852  11.119  16.296  0.00  0.00    +0.000 A 
BRANCH   8  15
ATOM     14  C   UNL     1      -6.904  11.855  18.057  0.00  0.00    +0.000 C 
ATOM     15  O   UNL     1      -6.013  12.059  16.968  0.00  0.00    +0.000 OA
ENDBRANCH   8  15
ENDBRANCH   3  11
ENDBRANCH   2   6
ENDBRANCH   1   2
BRANCH   1  16
ATOM     16  C   UNL     1       2.776   6.693  18.668  0.00  0.00    +0.000 C 
BRANCH  16  17
ATOM     17  N   UNL     1       3.476   5.677  17.808  0.00  0.00    +0.000 N 
ATOM     18  C   UNL     1       4.885   5.914  17.897  0.00  0.00    +0.000 A 
ATOM     19  C   UNL     1       5.429   6.998  17.181  0.00  0.00    +0.000 A 
ATOM     20  C   UNL     1       6.798   7.266  17.212  0.00  0.00    +0.000 A 
ATOM     21  C   UNL     1       7.650   6.435  17.933  0.00  0.00    +0.000 A 
ATOM     22  C   UNL     1       7.125   5.362  18.656  0.00  0.00    +0.000 A 
ATOM     23  C   UNL     1       5.744   5.110  18.668  0.00  0.00    +0.000 A 
ATOM     24  S   UNL     1       5.135   3.854  19.786  0.00  0.00    +0.000 S 
ATOM     25  C   UNL     1       3.434   3.701  19.294  0.00  0.00    +0.000 A 
ATOM     26  C   UNL     1       2.567   2.903  20.047  0.00  0.00    +0.000 A 
ATOM     27  C   UNL     1       1.244   2.712  19.640  0.00  0.00    +0.000 A 
ATOM     28  C   UNL     1       0.803   3.231  18.425  0.00  0.00    +0.000 A 
ATOM     29  C   UNL     1       1.637   4.073  17.700  0.00  0.00    +0.000 A 
ATOM     30  C   UNL     1       2.903   4.413  18.208  0.00  0.00    +0.000 A 
ENDBRANCH  16  17
ENDBRANCH   1  16
TORSDOF 6
ENDMDL
MODEL 5
REMARK VINA RESULT:      -8.4      2.577      3.059
REMARK  Name = 
REMARK  7 active torsions:
REMARK  status: ('A' for Active; 'I' for Inactive)
REMARK    1  A    between atoms: C_1  and  O_2
REMARK    2  A    between atoms: O_2  and  C_3
REMARK    3  A    between atoms: C_6  and  N_7
REMARK    4  A    between atoms: C_10  and  C_11
REMARK    5  A    between atoms: C_11  and  C_12
REMARK    6  A    between atoms: C_12  and  C_13
REMARK    7  A    between atoms: C_13  and  N_14
REMARK                            x       y       z     vdW  Elec       q    Type
REMARK                         _______ _______ _______ _____ _____    ______ ____
ROOT
ATOM      1  C   UNL     1       2.764   7.866  18.743  0.00  0.00    +0.000 C 
ENDROOT
BRANCH   1   2
ATOM      2  C   UNL     1       2.117   8.878  17.789  0.00  0.00    +0.000 C 
BRANCH   2   6
ATOM      3  N   UNL     1      -1.064  10.211  18.487  0.00  0.00    +0.000 N 
ATOM      4  N   UNL     1      -0.461  10.491  19.669  0.00  0.00    +0.000 NA
ATOM      5  N   UNL     1       0.772  10.011  19.568  0.00  0.00    +0.000 NA
ATOM      6  C   UNL     1       0.861   9.454  18.324  0.00  0.00    +0.000 A 
ATOM      7  N   UNL     1      -0.280   9.502  17.631  0.00  0.00    +0.000 NA
BRANCH   3  11
ATOM      8  C   UNL     1      -4.773  11.777  17.247  0.00  0.00    +0.000 A 
ATOM      9  C   UNL     1      -4.217  12.170  18.465  0.00  0.00    +0.000 A 
ATOM     10  C   UNL     1      -2.999  11.643  18.899  0.00  0.00    +0.000 A 
ATOM     11  C   UNL     1      -2.332  10.697  18.112  0.00  0.00    +0.000 A 
ATOM     12  C   UNL     1      -2.918  10.251  16.920  0.00  0.00    +0.000 A 
ATOM     13  C   UNL     1      -4.135  10.799  16.488  0.00  0.00    +0.000 A 
BRANCH   8  15
ATOM     14  C   UNL     1      -6.634  13.004  18.004  0.00  0.00    +0.000 C 
ATOM     15  O   UNL     1      -5.970  12.365  16.922  0.00  0.00    +0.000 OA
ENDBRANCH   8  15
ENDBRANCH   3  11
ENDBRANCH   2   6
ENDBRANCH   1   2
BRANCH   1  16
ATOM     16  C   UNL     1       2.777   6.476  18.116  0.00  0.00    +0.000 C 
BRANCH  16  17
ATOM     17  N   UNL     1       3.732   5.564  18.836  0.00  0.00    +0.000 N 
ATOM     18  C   UNL     1       2.970   4.531  19.469  0.00  0.00    +0.000 A 
ATOM     19  C   UNL     1       2.268   4.842  20.649  0.00  0.00    +0.000 A 
ATOM     20  C   UNL     1       1.524   3.871  21.321  0.00  0.00    +0.000 A 
ATOM     21  C   UNL     1       1.499   2.565  20.843  0.00  0.00    +0.000 A 
ATOM     22  C   UNL     1       2.182   2.242  19.668  0.00  0.00    +0.000 A 
ATOM     23  C   UNL     1       2.896   3.221  18.960  0.00  0.00    +0.000 A 
ATOM     24  S   UNL     1       3.560   2.776  17.360  0.00  0.00    +0.000 S 
ATOM     25  C   UNL     1       4.565   4.186  16.960  0.00  0.00    +0.000 A 
ATOM     26  C   UNL     1       5.147   4.280  15.693  0.00  0.00    +0.000 A 
ATOM     27  C   UNL     1       5.998   5.345  15.379  0.00  0.00    +0.000 A 
ATOM     28  C   UNL     1       6.356   6.267  16.360  0.00  0.00    +0.000 A 
ATOM     29  C   UNL     1       5.738   6.215  17.603  0.00  0.00    +0.000 A 
ATOM     30  C   UNL     1       4.743   5.254  17.852  0.00  0.00    +0.000 A 
ENDBRANCH  16  17
ENDBRANCH   1  16
TORSDOF 6
ENDMDL
MODEL 6
REMARK VINA RESULT:      -8.3      2.450      2.938
REMARK  Name = 
REMARK  7 active torsions:
REMARK  status: ('A' for Active; 'I' for Inactive)
REMARK    1  A    between atoms: C_1  and  O_2
REMARK    2  A    between atoms: O_2  and  C_3
REMARK    3  A    between atoms: C_6  and  N_7
REMARK    4  A    between atoms: C_10  and  C_11
REMARK    5  A    between atoms: C_11  and  C_12
REMARK    6  A    between atoms: C_12  and  C_13
REMARK    7  A    between atoms: C_13  and  N_14
REMARK                            x       y       z     vdW  Elec       q    Type
REMARK                         _______ _______ _______ _____ _____    ______ ____
ROOT
ATOM      1  C   UNL     1       2.203   7.649  18.314  0.00  0.00    +0.000 C 
ENDROOT
BRANCH   1   2
ATOM      2  C   UNL     1       2.280   9.096  17.811  0.00  0.00    +0.000 C 
BRANCH   2   6
ATOM      3  N   UNL     1      -0.744  10.790  18.422  0.00  0.00    +0.000 N 
ATOM      4  N   UNL     1       0.066  11.524  19.224  0.00  0.00    +0.000 NA
ATOM      5  N   UNL     1       1.270  10.974  19.119  0.00  0.00    +0.000 NA
ATOM      6  C   UNL     1       1.135   9.924  18.258  0.00  0.00    +0.000 A 
ATOM      7  N   UNL     1      -0.119   9.731  17.839  0.00  0.00    +0.000 NA
BRANCH   3  11
ATOM      8  C   UNL     1      -4.777  11.674  17.584  0.00  0.00    +0.000 A 
ATOM      9  C   UNL     1      -3.958  11.126  16.596  0.00  0.00    +0.000 A 
ATOM     10  C   UNL     1      -2.615  10.848  16.852  0.00  0.00    +0.000 A 
ATOM     11  C   UNL     1      -2.074  11.136  18.112  0.00  0.00    +0.000 A 
ATOM     12  C   UNL     1      -2.874  11.746  19.086  0.00  0.00    +0.000 A 
ATOM     13  C   UNL     1      -4.227  12.008  18.819  0.00  0.00    +0.000 A 
BRANCH   8  15
ATOM     14  C   UNL     1      -7.017  11.839  18.287  0.00  0.00    +0.000 C 
ATOM     15  O   UNL     1      -6.080  11.901  17.219  0.00  0.00    +0.000 OA
ENDBRANCH   8  15
ENDBRANCH   3  11
ENDBRANCH   2   6
ENDBRANCH   1   2
BRANCH   1  16
ATOM     16  C   UNL     1       3.301   6.805  17.675  0.00  0.00    +0.000 C 
BRANCH  16  17
ATOM     17  N   UNL     1       3.949   5.902  18.688  0.00  0.00    +0.000 N 
ATOM     18  C   UNL     1       2.958   4.984  19.165  0.00  0.00    +0.000 A 
ATOM     19  C   UNL     1       2.003   5.450  20.088  0.00  0.00    +0.000 A 
ATOM     20  C   UNL     1       1.026   4.597  20.603  0.00  0.00    +0.000 A 
ATOM     21  C   UNL     1       1.010   3.257  20.230  0.00  0.00    +0.000 A 
ATOM     22  C   UNL     1       1.945   2.782  19.307  0.00  0.00    +0.000 A 
ATOM     23  C   UNL     1       2.904   3.642  18.749  0.00  0.00    +0.000 A 
ATOM     24  S   UNL     1       3.921   3.007  17.422  0.00  0.00    +0.000 S 
ATOM     25  C   UNL     1       5.118   4.303  17.207  0.00  0.00    +0.000 A 
ATOM     26  C   UNL     1       6.017   4.241  16.139  0.00  0.00    +0.000 A 
ATOM     27  C   UNL     1       7.011   5.212  15.990  0.00  0.00    +0.000 A 
ATOM     28  C   UNL     1       7.182   6.195  16.963  0.00  0.00    +0.000 A 
ATOM     29  C   UNL     1       6.257   6.300  17.996  0.00  0.00    +0.000 A 
ATOM     30  C   UNL     1       5.150   5.435  18.035  0.00  0.00    +0.000 A 
ENDBRANCH  16  17
ENDBRANCH   1  16
TORSDOF 6
ENDMDL
MODEL 7
REMARK VINA RESULT:      -8.3      0.834      1.360
REMARK  Name = 
REMARK  7 active torsions:
REMARK  status: ('A' for Active; 'I' for Inactive)
REMARK    1  A    between atoms: C_1  and  O_2
REMARK    2  A    between atoms: O_2  and  C_3
REMARK    3  A    between atoms: C_6  and  N_7
REMARK    4  A    between atoms: C_10  and  C_11
REMARK    5  A    between atoms: C_11  and  C_12
REMARK    6  A    between atoms: C_12  and  C_13
REMARK    7  A    between atoms: C_13  and  N_14
REMARK                            x       y       z     vdW  Elec       q    Type
REMARK                         _______ _______ _______ _____ _____    ______ ____
ROOT
ATOM      1  C   UNL     1       3.257   7.983  18.059  0.00  0.00    +0.000 C 
ENDROOT
BRANCH   1   2
ATOM      2  C   UNL     1       1.908   8.669  17.806  0.00  0.00    +0.000 C 
BRANCH   2   6
ATOM      3  N   UNL     1       0.061  10.075  20.450  0.00  0.00    +0.000 N 
ATOM      4  N   UNL     1       0.766   9.159  21.159  0.00  0.00    +0.000 NA
ATOM      5  N   UNL     1       1.510   8.512  20.270  0.00  0.00    +0.000 NA
ATOM      6  C   UNL     1       1.218   9.064  19.056  0.00  0.00    +0.000 A 
ATOM      7  N   UNL     1       0.273  10.007  19.108  0.00  0.00    +0.000 NA
BRANCH   3  11
ATOM      8  C   UNL     1      -2.425  12.971  22.235  0.00  0.00    +0.000 A 
ATOM      9  C   UNL     1      -2.400  12.825  20.848  0.00  0.00    +0.000 A 
ATOM     10  C   UNL     1      -1.565  11.886  20.241  0.00  0.00    +0.000 A 
ATOM     11  C   UNL     1      -0.730  11.087  21.031  0.00  0.00    +0.000 A 
ATOM     12  C   UNL     1      -0.703  11.273  22.419  0.00  0.00    +0.000 A 
ATOM     13  C   UNL     1      -1.558  12.212  23.017  0.00  0.00    +0.000 A 
BRANCH   8  15
ATOM     14  C   UNL     1      -2.678  15.162  23.056  0.00  0.00    +0.000 C 
ATOM     15  O   UNL     1      -3.287  13.923  22.719  0.00  0.00    +0.000 OA
ENDBRANCH   8  15
ENDBRANCH   3  11
ENDBRANCH   2   6
ENDBRANCH   1   2
BRANCH   1  16
ATOM     16  C   UNL     1       3.194   6.516  17.645  0.00  0.00    +0.000 C 
BRANCH  16  17
ATOM     17  N   UNL     1       3.897   5.640  18.645  0.00  0.00    +0.000 N 
ATOM     18  C   UNL     1       2.946   4.701  19.159  0.00  0.00    +0.000 A 
ATOM     19  C   UNL     1       2.007   5.149  20.108  0.00  0.00    +0.000 A 
ATOM     20  C   UNL     1       1.069   4.275  20.660  0.00  0.00    +0.000 A 
ATOM     21  C   UNL     1       1.077   2.932  20.297  0.00  0.00    +0.000 A 
ATOM     22  C   UNL     1       1.996   2.474  19.350  0.00  0.00    +0.000 A 
ATOM     23  C   UNL     1       2.914   3.353  18.756  0.00  0.00    +0.000 A 
ATOM     24  S   UNL     1       3.907   2.734  17.403  0.00  0.00    +0.000 S 
ATOM     25  C   UNL     1       5.061   4.060  17.141  0.00  0.00    +0.000 A 
ATOM     26  C   UNL     1       5.929   4.012  16.046  0.00  0.00    +0.000 A 
ATOM     27  C   UNL     1       6.892   5.008  15.860  0.00  0.00    +0.000 A 
ATOM     28  C   UNL     1       7.066   6.003  16.819  0.00  0.00    +0.000 A 
ATOM     29  C   UNL     1       6.171   6.092  17.879  0.00  0.00    +0.000 A 
ATOM     30  C   UNL     1       5.089   5.199  17.959  0.00  0.00    +0.000 A 
ENDBRANCH  16  17
ENDBRANCH   1  16
TORSDOF 6
ENDMDL
MODEL 8
REMARK VINA RESULT:      -8.3      2.326      2.784
REMARK  Name = 
REMARK  7 active torsions:
REMARK  status: ('A' for Active; 'I' for Inactive)
REMARK    1  A    between atoms: C_1  and  O_2
REMARK    2  A    between atoms: O_2  and  C_3
REMARK    3  A    between atoms: C_6  and  N_7
REMARK    4  A    between atoms: C_10  and  C_11
REMARK    5  A    between atoms: C_11  and  C_12
REMARK    6  A    between atoms: C_12  and  C_13
REMARK    7  A    between atoms: C_13  and  N_14
REMARK                            x       y       z     vdW  Elec       q    Type
REMARK                         _______ _______ _______ _____ _____    ______ ____
ROOT
ATOM      1  C   UNL     1       2.707   6.619  18.245  0.00  0.00    +0.000 C 
ENDROOT
BRANCH   1   2
ATOM      2  C   UNL     1       2.960   7.942  17.511  0.00  0.00    +0.000 C 
BRANCH   2   6
ATOM      3  N   UNL     1       0.248  10.084  18.174  0.00  0.00    +0.000 N 
ATOM      4  N   UNL     1       1.259  10.956  18.412  0.00  0.00    +0.000 NA
ATOM      5  N   UNL     1       2.379  10.268  18.225  0.00  0.00    +0.000 NA
ATOM      6  C   UNL     1       1.995   9.003  17.884  0.00  0.00    +0.000 A 
ATOM      7  N   UNL     1       0.671   8.822  17.896  0.00  0.00    +0.000 NA
BRANCH   3  11
ATOM      8  C   UNL     1      -3.772  11.292  17.812  0.00  0.00    +0.000 A 
ATOM      9  C   UNL     1      -2.976  11.799  18.840  0.00  0.00    +0.000 A 
ATOM     10  C   UNL     1      -1.649  11.391  18.986  0.00  0.00    +0.000 A 
ATOM     11  C   UNL     1      -1.111  10.450  18.099  0.00  0.00    +0.000 A 
ATOM     12  C   UNL     1      -1.924   9.889  17.107  0.00  0.00    +0.000 A 
ATOM     13  C   UNL     1      -3.252  10.318  16.963  0.00  0.00    +0.000 A 
BRANCH   8  15
ATOM     14  C   UNL     1      -5.484  12.455  18.934  0.00  0.00    +0.000 C 
ATOM     15  O   UNL     1      -5.058  11.767  17.765  0.00  0.00    +0.000 OA
ENDBRANCH   8  15
ENDBRANCH   3  11
ENDBRANCH   2   6
ENDBRANCH   1   2
BRANCH   1  16
ATOM     16  C   UNL     1       3.614   6.507  19.466  0.00  0.00    +0.000 C 
BRANCH  16  17
ATOM     17  N   UNL     1       4.093   5.093  19.657  0.00  0.00    +0.000 N 
ATOM     18  C   UNL     1       2.978   4.216  19.461  0.00  0.00    +0.000 A 
ATOM     19  C   UNL     1       2.022   4.106  20.490  0.00  0.00    +0.000 A 
ATOM     20  C   UNL     1       0.926   3.252  20.365  0.00  0.00    +0.000 A 
ATOM     21  C   UNL     1       0.786   2.469  19.223  0.00  0.00    +0.000 A 
ATOM     22  C   UNL     1       1.720   2.573  18.190  0.00  0.00    +0.000 A 
ATOM     23  C   UNL     1       2.802   3.463  18.287  0.00  0.00    +0.000 A 
ATOM     24  S   UNL     1       3.825   3.692  16.838  0.00  0.00    +0.000 S 
ATOM     25  C   UNL     1       5.169   4.666  17.473  0.00  0.00    +0.000 A 
ATOM     26  C   UNL     1       6.123   5.182  16.591  0.00  0.00    +0.000 A 
ATOM     27  C   UNL     1       7.226   5.892  17.075  0.00  0.00    +0.000 A 
ATOM     28  C   UNL     1       7.442   6.003  18.446  0.00  0.00    +0.000 A 
ATOM     29  C   UNL     1       6.470   5.545  19.328  0.00  0.00    +0.000 A 
ATOM     30  C   UNL     1       5.274   4.999  18.832  0.00  0.00    +0.000 A 
ENDBRANCH  16  17
ENDBRANCH   1  16
TORSDOF 6
ENDMDL
MODEL 9
REMARK VINA RESULT:      -8.2      2.424      4.478
REMARK  Name = 
REMARK  7 active torsions:
REMARK  status: ('A' for Active; 'I' for Inactive)
REMARK    1  A    between atoms: C_1  and  O_2
REMARK    2  A    between atoms: O_2  and  C_3
REMARK    3  A    between atoms: C_6  and  N_7
REMARK    4  A    between atoms: C_10  and  C_11
REMARK    5  A    between atoms: C_11  and  C_12
REMARK    6  A    between atoms: C_12  and  C_13
REMARK    7  A    between atoms: C_13  and  N_14
REMARK                            x       y       z     vdW  Elec       q    Type
REMARK                         _______ _______ _______ _____ _____    ______ ____
ROOT
ATOM      1  C   UNL     1       1.899   7.402  17.868  0.00  0.00    +0.000 C 
ENDROOT
BRANCH   1   2
ATOM      2  C   UNL     1       2.414   8.847  17.900  0.00  0.00    +0.000 C 
BRANCH   2   6
ATOM      3  N   UNL     1      -0.477  10.772  18.465  0.00  0.00    +0.000 N 
ATOM      4  N   UNL     1       0.455  11.715  18.750  0.00  0.00    +0.000 NA
ATOM      5  N   UNL     1       1.631  11.116  18.604  0.00  0.00    +0.000 NA
ATOM      6  C   UNL     1       1.358   9.829  18.241  0.00  0.00    +0.000 A 
ATOM      7  N   UNL     1       0.052   9.548  18.197  0.00  0.00    +0.000 NA
BRANCH   3  11
ATOM      8  C   UNL     1      -4.628  11.451  18.226  0.00  0.00    +0.000 A 
ATOM      9  C   UNL     1      -4.009  10.567  17.342  0.00  0.00    +0.000 A 
ATOM     10  C   UNL     1      -2.631  10.349  17.395  0.00  0.00    +0.000 A 
ATOM     11  C   UNL     1      -1.855  11.036  18.337  0.00  0.00    +0.000 A 
ATOM     12  C   UNL     1      -2.461  11.972  19.183  0.00  0.00    +0.000 A 
ATOM     13  C   UNL     1      -3.849  12.172  19.129  0.00  0.00    +0.000 A 
BRANCH   8  15
ATOM     14  C   UNL     1      -6.752  10.543  18.680  0.00  0.00    +0.000 C 
ATOM     15  O   UNL     1      -5.986  11.583  18.084  0.00  0.00    +0.000 OA
ENDBRANCH   8  15
ENDBRANCH   3  11
ENDBRANCH   2   6
ENDBRANCH   1   2
BRANCH   1  16
ATOM     16  C   UNL     1       2.855   6.480  18.618  0.00  0.00    +0.000 C 
BRANCH  16  17
ATOM     17  N   UNL     1       3.151   5.241  17.819  0.00  0.00    +0.000 N 
ATOM     18  C   UNL     1       4.531   5.277  17.438  0.00  0.00    +0.000 A 
ATOM     19  C   UNL     1       4.914   6.131  16.385  0.00  0.00    +0.000 A 
ATOM     20  C   UNL     1       6.240   6.193  15.956  0.00  0.00    +0.000 A 
ATOM     21  C   UNL     1       7.198   5.378  16.549  0.00  0.00    +0.000 A 
ATOM     22  C   UNL     1       6.837   4.532  17.600  0.00  0.00    +0.000 A 
ATOM     23  C   UNL     1       5.515   4.495  18.070  0.00  0.00    +0.000 A 
ATOM     24  S   UNL     1       5.182   3.550  19.552  0.00  0.00    +0.000 S 
ATOM     25  C   UNL     1       3.407   3.572  19.626  0.00  0.00    +0.000 A 
ATOM     26  C   UNL     1       2.757   3.051  20.748  0.00  0.00    +0.000 A 
ATOM     27  C   UNL     1       1.361   2.994  20.798  0.00  0.00    +0.000 A 
ATOM     28  C   UNL     1       0.605   3.361  19.687  0.00  0.00    +0.000 A 
ATOM     29  C   UNL     1       1.238   3.934  18.591  0.00  0.00    +0.000 A 
ATOM     30  C   UNL     1       2.624   4.162  18.622  0.00  0.00    +0.000 A 
ENDBRANCH  16  17
ENDBRANCH   1  16
TORSDOF 6
ENDMDL
