MODEL 1
REMARK VINA RESULT:      -8.0      0.000      0.000
REMARK  Name = 
REMARK  5 active torsions:
REMARK  status: ('A' for Active; 'I' for Inactive)
REMARK    1  A    between atoms: O_1  and  C_2
REMARK    2  A    between atoms: C_2  and  C_3
REMARK    3  A    between atoms: C_3  and  C_4
REMARK    4  A    between atoms: N_6  and  C_7
REMARK    5  A    between atoms: C_7  and  C_8
REMARK                            x       y       z     vdW  Elec       q    Type
REMARK                         _______ _______ _______ _____ _____    ______ ____
ROOT
ATOM      1  C   UNL     1       4.813   5.343  16.105  0.00  0.00    +0.000 C 
ATOM      2  C   UNL     1       4.280   4.079  16.802  0.00  0.00    +0.000 C 
ATOM      3  C   UNL     1       3.497   4.684  17.906  0.00  0.00    +0.000 A 
ATOM      4  C   UNL     1       3.658   6.058  17.884  0.00  0.00    +0.000 A 
ATOM      5  C   UNL     1       3.107   6.878  18.845  0.00  0.00    +0.000 A 
ATOM      6  C   UNL     1       2.351   6.286  19.857  0.00  0.00    +0.000 A 
ATOM      7  C   UNL     1       2.143   4.890  19.891  0.00  0.00    +0.000 A 
ATOM      8  C   UNL     1       1.371   4.301  20.905  0.00  0.00    +0.000 A 
ATOM      9  C   UNL     1       1.167   2.921  20.940  0.00  0.00    +0.000 A 
ATOM     10  C   UNL     1       1.734   2.109  19.961  0.00  0.00    +0.000 A 
ATOM     11  C   UNL     1       2.508   2.675  18.947  0.00  0.00    +0.000 A 
ATOM     12  C   UNL     1       2.724   4.064  18.895  0.00  0.00    +0.000 A 
ATOM     13  O   UNL     1       4.428   6.526  16.853  0.00  0.00    +0.000 OA
ENDROOT
BRANCH   1  14
ATOM     14  C   UNL     1       6.325   5.358  15.857  0.00  0.00    +0.000 C 
BRANCH  14  17
ATOM     15  C   UNL     1       6.974   3.894  12.653  0.00  0.00    +0.000 A 
ATOM     16  C   UNL     1       6.257   3.855  13.825  0.00  0.00    +0.000 A 
ATOM     17  N   UNL     1       6.732   4.909  14.544  0.00  0.00    +0.000 N 
ATOM     18  N   UNL     1       7.745   5.515  13.900  0.00  0.00    +0.000 NA
ATOM     19  N   UNL     1       7.896   4.906  12.731  0.00  0.00    +0.000 NA
BRANCH  15  20
ATOM     20  C   UNL     1       6.847   3.042  11.449  0.00  0.00    +0.000 C 
BRANCH  20  21
ATOM     21  C   UNL     1       5.671   2.077  11.538  0.00  0.00    +0.000 C 
BRANCH  21  22
ATOM     22  O   UNL     1       6.132   0.743  11.343  0.00  0.00    +0.000 OA
ATOM     23  H   UNL     1       5.931   0.507  10.421  0.00  0.00    +0.000 HD
ENDBRANCH  21  22
ENDBRANCH  20  21
ENDBRANCH  15  20
ENDBRANCH  14  17
ENDBRANCH   1  14
TORSDOF 5
ENDMDL
MODEL 2
REMARK VINA RESULT:      -7.6      2.904      4.815
REMARK  Name = 
REMARK  5 active torsions:
REMARK  status: ('A' for Active; 'I' for Inactive)
REMARK    1  A    between atoms: O_1  and  C_2
REMARK    2  A    between atoms: C_2  and  C_3
REMARK    3  A    between atoms: C_3  and  C_4
REMARK    4  A    between atoms: N_6  and  C_7
REMARK    5  A    between atoms: C_7  and  C_8
REMARK                            x       y       z     vdW  Elec       q    Type
REMARK                         _______ _______ _______ _____ _____    ______ ____
ROOT
ATOM      1  C   UNL     1       5.049   5.430  16.055  0.00  0.00    +0.000 C 
ATOM      2  C   UNL     1       4.500   4.172  16.749  0.00  0.00    +0.000 C 
ATOM      3  C   UNL     1       3.593   4.784  17.750  0.00  0.00    +0.000 A 
ATOM      4  C   UNL     1       3.705   6.162  17.688  0.00  0.00    +0.000 A 
ATOM      5  C   UNL     1       3.035   6.993  18.560  0.00  0.00    +0.000 A 
ATOM      6  C   UNL     1       2.208   6.407  19.520  0.00  0.00    +0.000 A 
ATOM      7  C   UNL     1       2.049   5.006  19.589  0.00  0.00    +0.000 A 
ATOM      8  C   UNL     1       1.206   4.423  20.549  0.00  0.00    +0.000 A 
ATOM      9  C   UNL     1       1.051   3.038  20.619  0.00  0.00    +0.000 A 
ATOM     10  C   UNL     1       1.738   2.214  19.731  0.00  0.00    +0.000 A 
ATOM     11  C   UNL     1       2.584   2.775  18.772  0.00  0.00    +0.000 A 
ATOM     12  C   UNL     1       2.753   4.169  18.686  0.00  0.00    +0.000 A 
ATOM     13  O   UNL     1       4.551   6.623  16.717  0.00  0.00    +0.000 OA
ENDROOT
BRANCH   1  14
ATOM     14  C   UNL     1       6.576   5.498  15.951  0.00  0.00    +0.000 C 
BRANCH  14  17
ATOM     15  C   UNL     1       8.170   7.721  18.264  0.00  0.00    +0.000 A 
ATOM     16  C   UNL     1       7.637   7.535  17.011  0.00  0.00    +0.000 A 
ATOM     17  N   UNL     1       7.227   6.236  17.012  0.00  0.00    +0.000 N 
ATOM     18  N   UNL     1       7.564   5.624  18.160  0.00  0.00    +0.000 NA
ATOM     19  N   UNL     1       8.135   6.530  18.943  0.00  0.00    +0.000 NA
BRANCH  15  20
ATOM     20  C   UNL     1       8.709   8.956  18.878  0.00  0.00    +0.000 C 
BRANCH  20  21
ATOM     21  C   UNL     1       8.546  10.174  17.978  0.00  0.00    +0.000 C 
BRANCH  21  22
ATOM     22  O   UNL     1       9.780  10.883  17.906  0.00  0.00    +0.000 OA
ATOM     23  H   UNL     1      10.009  11.144  18.815  0.00  0.00    +0.000 HD
ENDBRANCH  21  22
ENDBRANCH  20  21
ENDBRANCH  15  20
ENDBRANCH  14  17
ENDBRANCH   1  14
TORSDOF 5
ENDMDL
MODEL 3
REMARK VINA RESULT:      -7.6      2.699      4.301
REMARK  Name = 
REMARK  5 active torsions:
REMARK  status: ('A' for Active; 'I' for Inactive)
REMARK    1  A    between atoms: O_1  and  C_2
REMARK    2  A    between atoms: C_2  and  C_3
REMARK    3  A    between atoms: C_3  and  C_4
REMARK    4  A    between atoms: N_6  and  C_7
REMARK    5  A    between atoms: C_7  and  C_8
REMARK                            x       y       z     vdW  Elec       q    Type
REMARK                         _______ _______ _______ _____ _____    ______ ____
ROOT
ATOM      1  C   UNL     1       3.512   5.773  18.771  0.00  0.00    +0.000 C 
ATOM      2  C   UNL     1       2.788   6.227  20.049  0.00  0.00    +0.000 C 
ATOM      3  C   UNL     1       2.168   7.490  19.580  0.00  0.00    +0.000 A 
ATOM      4  C   UNL     1       2.573   7.744  18.281  0.00  0.00    +0.000 A 
ATOM      5  C   UNL     1       2.214   8.895  17.612  0.00  0.00    +0.000 A 
ATOM      6  C   UNL     1       1.403   9.815  18.278  0.00  0.00    +0.000 A 
ATOM      7  C   UNL     1       0.949   9.570  19.592  0.00  0.00    +0.000 A 
ATOM      8  C   UNL     1       0.122  10.493  20.253  0.00  0.00    +0.000 A 
ATOM      9  C   UNL     1      -0.325  10.253  21.553  0.00  0.00    +0.000 A 
ATOM     10  C   UNL     1       0.050   9.085  22.213  0.00  0.00    +0.000 A 
ATOM     11  C   UNL     1       0.875   8.157  21.575  0.00  0.00    +0.000 A 
ATOM     12  C   UNL     1       1.334   8.382  20.264  0.00  0.00    +0.000 A 
ATOM     13  O   UNL     1       3.374   6.780  17.734  0.00  0.00    +0.000 OA
ENDROOT
BRANCH   1  14
ATOM     14  C   UNL     1       4.992   5.421  18.954  0.00  0.00    +0.000 C 
BRANCH  14  17
ATOM     15  C   UNL     1       6.611   5.147  15.770  0.00  0.00    +0.000 A 
ATOM     16  C   UNL     1       5.604   4.720  16.602  0.00  0.00    +0.000 A 
ATOM     17  N   UNL     1       5.779   5.447  17.739  0.00  0.00    +0.000 N 
ATOM     18  N   UNL     1       6.880   6.215  17.658  0.00  0.00    +0.000 NA
ATOM     19  N   UNL     1       7.394   6.048  16.446  0.00  0.00    +0.000 NA
BRANCH  15  20
ATOM     20  C   UNL     1       6.888   4.771  14.365  0.00  0.00    +0.000 C 
BRANCH  20  21
ATOM     21  C   UNL     1       5.794   3.892  13.770  0.00  0.00    +0.000 C 
BRANCH  21  22
ATOM     22  O   UNL     1       6.347   3.069  12.747  0.00  0.00    +0.000 OA
ATOM     23  H   UNL     1       7.280   2.917  12.980  0.00  0.00    +0.000 HD
ENDBRANCH  21  22
ENDBRANCH  20  21
ENDBRANCH  15  20
ENDBRANCH  14  17
ENDBRANCH   1  14
TORSDOF 5
ENDMDL
MODEL 4
REMARK VINA RESULT:      -7.4      3.512      5.277
REMARK  Name = 
REMARK  5 active torsions:
REMARK  status: ('A' for Active; 'I' for Inactive)
REMARK    1  A    between atoms: O_1  and  C_2
REMARK    2  A    between atoms: C_2  and  C_3
REMARK    3  A    between atoms: C_3  and  C_4
REMARK    4  A    between atoms: N_6  and  C_7
REMARK    5  A    between atoms: C_7  and  C_8
REMARK                            x       y       z     vdW  Elec       q    Type
REMARK                         _______ _______ _______ _____ _____    ______ ____
ROOT
ATOM      1  C   UNL     1       2.491   6.608  19.056  0.00  0.00    +0.000 C 
ATOM      2  C   UNL     1       1.897   6.993  20.421  0.00  0.00    +0.000 C 
ATOM      3  C   UNL     1       1.391   8.356  20.126  0.00  0.00    +0.000 A 
ATOM      4  C   UNL     1       1.742   8.706  18.834  0.00  0.00    +0.000 A 
ATOM      5  C   UNL     1       1.472   9.952  18.311  0.00  0.00    +0.000 A 
ATOM      6  C   UNL     1       0.806  10.873  19.121  0.00  0.00    +0.000 A 
ATOM      7  C   UNL     1       0.407  10.536  20.433  0.00  0.00    +0.000 A 
ATOM      8  C   UNL     1      -0.274  11.462  21.240  0.00  0.00    +0.000 A 
ATOM      9  C   UNL     1      -0.666  11.130  22.537  0.00  0.00    +0.000 A 
ATOM     10  C   UNL     1      -0.381   9.866  23.049  0.00  0.00    +0.000 A 
ATOM     11  C   UNL     1       0.298   8.933  22.264  0.00  0.00    +0.000 A 
ATOM     12  C   UNL     1       0.701   9.249  20.953  0.00  0.00    +0.000 A 
ATOM     13  O   UNL     1       2.401   7.729  18.137  0.00  0.00    +0.000 OA
ENDROOT
BRANCH   1  14
ATOM     14  C   UNL     1       3.932   6.090  19.097  0.00  0.00    +0.000 C 
BRANCH  14  17
ATOM     15  C   UNL     1       5.290   5.380  15.859  0.00  0.00    +0.000 A 
ATOM     16  C   UNL     1       4.506   4.961  16.908  0.00  0.00    +0.000 A 
ATOM     17  N   UNL     1       4.577   5.982  17.807  0.00  0.00    +0.000 N 
ATOM     18  N   UNL     1       5.424   6.938  17.387  0.00  0.00    +0.000 NA
ATOM     19  N   UNL     1       5.860   6.585  16.184  0.00  0.00    +0.000 NA
BRANCH  15  20
ATOM     20  C   UNL     1       5.536   4.725  14.555  0.00  0.00    +0.000 C 
BRANCH  20  21
ATOM     21  C   UNL     1       7.003   4.366  14.350  0.00  0.00    +0.000 C 
BRANCH  21  22
ATOM     22  O   UNL     1       7.784   5.557  14.311  0.00  0.00    +0.000 OA
ATOM     23  H   UNL     1       8.332   5.561  15.116  0.00  0.00    +0.000 HD
ENDBRANCH  21  22
ENDBRANCH  20  21
ENDBRANCH  15  20
ENDBRANCH  14  17
ENDBRANCH   1  14
TORSDOF 5
ENDMDL
MODEL 5
REMARK VINA RESULT:      -7.3      4.087      5.535
REMARK  Name = 
REMARK  5 active torsions:
REMARK  status: ('A' for Active; 'I' for Inactive)
REMARK    1  A    between atoms: O_1  and  C_2
REMARK    2  A    between atoms: C_2  and  C_3
REMARK    3  A    between atoms: C_3  and  C_4
REMARK    4  A    between atoms: N_6  and  C_7
REMARK    5  A    between atoms: C_7  and  C_8
REMARK                            x       y       z     vdW  Elec       q    Type
REMARK                         _______ _______ _______ _____ _____    ______ ____
ROOT
ATOM      1  C   UNL     1       2.648   4.637  19.218  0.00  0.00    +0.000 C 
ATOM      2  C   UNL     1       2.164   5.494  20.400  0.00  0.00    +0.000 C 
ATOM      3  C   UNL     1       1.973   6.803  19.730  0.00  0.00    +0.000 A 
ATOM      4  C   UNL     1       2.387   6.709  18.413  0.00  0.00    +0.000 A 
ATOM      5  C   UNL     1       2.399   7.797  17.567  0.00  0.00    +0.000 A 
ATOM      6  C   UNL     1       1.961   9.023  18.068  0.00  0.00    +0.000 A 
ATOM      7  C   UNL     1       1.504   9.146  19.399  0.00  0.00    +0.000 A 
ATOM      8  C   UNL     1       1.052  10.379  19.895  0.00  0.00    +0.000 A 
ATOM      9  C   UNL     1       0.602  10.501  21.210  0.00  0.00    +0.000 A 
ATOM     10  C   UNL     1       0.600   9.390  22.051  0.00  0.00    +0.000 A 
ATOM     11  C   UNL     1       1.049   8.156  21.578  0.00  0.00    +0.000 A 
ATOM     12  C   UNL     1       1.505   8.014  20.254  0.00  0.00    +0.000 A 
ATOM     13  O   UNL     1       2.806   5.463  18.034  0.00  0.00    +0.000 OA
ENDROOT
BRANCH   1  14
ATOM     14  C   UNL     1       3.937   3.849  19.474  0.00  0.00    +0.000 C 
BRANCH  14  17
ATOM     15  C   UNL     1       6.873   5.678  18.542  0.00  0.00    +0.000 A 
ATOM     16  C   UNL     1       5.807   5.550  19.400  0.00  0.00    +0.000 A 
ATOM     17  N   UNL     1       5.137   4.457  18.942  0.00  0.00    +0.000 N 
ATOM     18  N   UNL     1       5.697   3.986  17.814  0.00  0.00    +0.000 NA
ATOM     19  N   UNL     1       6.773   4.721  17.564  0.00  0.00    +0.000 NA
BRANCH  15  20
ATOM     20  C   UNL     1       7.996   6.642  18.581  0.00  0.00    +0.000 C 
BRANCH  20  21
ATOM     21  C   UNL     1       7.777   7.832  17.655  0.00  0.00    +0.000 C 
BRANCH  21  22
ATOM     22  O   UNL     1       6.761   7.518  16.707  0.00  0.00    +0.000 OA
ATOM     23  H   UNL     1       6.366   6.673  16.985  0.00  0.00    +0.000 HD
ENDBRANCH  21  22
ENDBRANCH  20  21
ENDBRANCH  15  20
ENDBRANCH  14  17
ENDBRANCH   1  14
TORSDOF 5
ENDMDL
MODEL 6
REMARK VINA RESULT:      -7.3      3.101      5.122
REMARK  Name = 
REMARK  5 active torsions:
REMARK  status: ('A' for Active; 'I' for Inactive)
REMARK    1  A    between atoms: O_1  and  C_2
REMARK    2  A    between atoms: C_2  and  C_3
REMARK    3  A    between atoms: C_3  and  C_4
REMARK    4  A    between atoms: N_6  and  C_7
REMARK    5  A    between atoms: C_7  and  C_8
REMARK                            x       y       z     vdW  Elec       q    Type
REMARK                         _______ _______ _______ _____ _____    ______ ____
ROOT
ATOM      1  C   UNL     1       2.522   4.824  19.384  0.00  0.00    +0.000 C 
ATOM      2  C   UNL     1       1.933   5.715  20.491  0.00  0.00    +0.000 C 
ATOM      3  C   UNL     1       1.866   7.019  19.788  0.00  0.00    +0.000 A 
ATOM      4  C   UNL     1       2.427   6.891  18.530  0.00  0.00    +0.000 A 
ATOM      5  C   UNL     1       2.574   7.965  17.678  0.00  0.00    +0.000 A 
ATOM      6  C   UNL     1       2.122   9.212  18.111  0.00  0.00    +0.000 A 
ATOM      7  C   UNL     1       1.518   9.370  19.377  0.00  0.00    +0.000 A 
ATOM      8  C   UNL     1       1.053  10.624  19.803  0.00  0.00    +0.000 A 
ATOM      9  C   UNL     1       0.459  10.781  21.056  0.00  0.00    +0.000 A 
ATOM     10  C   UNL     1       0.321   9.684  21.903  0.00  0.00    +0.000 A 
ATOM     11  C   UNL     1       0.780   8.429  21.500  0.00  0.00    +0.000 A 
ATOM     12  C   UNL     1       1.382   8.252  20.240  0.00  0.00    +0.000 A 
ATOM     13  O   UNL     1       2.845   5.626  18.217  0.00  0.00    +0.000 OA
ENDROOT
BRANCH   1  14
ATOM     14  C   UNL     1       3.745   4.000  19.798  0.00  0.00    +0.000 C 
BRANCH  14  17
ATOM     15  C   UNL     1       6.613   4.626  17.744  0.00  0.00    +0.000 A 
ATOM     16  C   UNL     1       5.394   4.004  17.880  0.00  0.00    +0.000 A 
ATOM     17  N   UNL     1       4.976   4.358  19.127  0.00  0.00    +0.000 N 
ATOM     18  N   UNL     1       5.914   5.079  19.764  0.00  0.00    +0.000 NA
ATOM     19  N   UNL     1       6.921   5.261  18.919  0.00  0.00    +0.000 NA
BRANCH  15  20
ATOM     20  C   UNL     1       7.514   4.672  16.570  0.00  0.00    +0.000 C 
BRANCH  20  21
ATOM     21  C   UNL     1       6.754   4.789  15.254  0.00  0.00    +0.000 C 
BRANCH  21  22
ATOM     22  O   UNL     1       7.578   5.426  14.282  0.00  0.00    +0.000 OA
ATOM     23  H   UNL     1       8.499   5.209  14.507  0.00  0.00    +0.000 HD
ENDBRANCH  21  22
ENDBRANCH  20  21
ENDBRANCH  15  20
ENDBRANCH  14  17
ENDBRANCH   1  14
TORSDOF 5
ENDMDL
MODEL 7
REMARK VINA RESULT:      -7.3      3.175      5.156
REMARK  Name = 
REMARK  5 active torsions:
REMARK  status: ('A' for Active; 'I' for Inactive)
REMARK    1  A    between atoms: O_1  and  C_2
REMARK    2  A    between atoms: C_2  and  C_3
REMARK    3  A    between atoms: C_3  and  C_4
REMARK    4  A    between atoms: N_6  and  C_7
REMARK    5  A    between atoms: C_7  and  C_8
REMARK                            x       y       z     vdW  Elec       q    Type
REMARK                         _______ _______ _______ _____ _____    ______ ____
ROOT
ATOM      1  C   UNL     1       2.694   5.729  19.352  0.00  0.00    +0.000 C 
ATOM      2  C   UNL     1       1.960   6.409  20.520  0.00  0.00    +0.000 C 
ATOM      3  C   UNL     1       1.665   7.735  19.924  0.00  0.00    +0.000 A 
ATOM      4  C   UNL     1       2.238   7.811  18.667  0.00  0.00    +0.000 A 
ATOM      5  C   UNL     1       2.195   8.960  17.908  0.00  0.00    +0.000 A 
ATOM      6  C   UNL     1       1.532  10.070  18.434  0.00  0.00    +0.000 A 
ATOM      7  C   UNL     1       0.911  10.015  19.701  0.00  0.00    +0.000 A 
ATOM      8  C   UNL     1       0.235  11.130  20.222  0.00  0.00    +0.000 A 
ATOM      9  C   UNL     1      -0.377  11.077  21.474  0.00  0.00    +0.000 A 
ATOM     10  C   UNL     1      -0.319   9.907  22.228  0.00  0.00    +0.000 A 
ATOM     11  C   UNL     1       0.351   8.789  21.730  0.00  0.00    +0.000 A 
ATOM     12  C   UNL     1       0.973   8.823  20.469  0.00  0.00    +0.000 A 
ATOM     13  O   UNL     1       2.871   6.668  18.258  0.00  0.00    +0.000 OA
ENDROOT
BRANCH   1  14
ATOM     14  C   UNL     1       4.043   5.099  19.713  0.00  0.00    +0.000 C 
BRANCH  14  17
ATOM     15  C   UNL     1       5.675   4.212  16.650  0.00  0.00    +0.000 A 
ATOM     16  C   UNL     1       4.493   4.432  17.315  0.00  0.00    +0.000 A 
ATOM     17  N   UNL     1       4.876   4.754  18.582  0.00  0.00    +0.000 N 
ATOM     18  N   UNL     1       6.209   4.653  18.723  0.00  0.00    +0.000 NA
ATOM     19  N   UNL     1       6.713   4.332  17.538  0.00  0.00    +0.000 NA
BRANCH  15  20
ATOM     20  C   UNL     1       5.901   3.902  15.220  0.00  0.00    +0.000 C 
BRANCH  20  21
ATOM     21  C   UNL     1       7.147   4.580  14.665  0.00  0.00    +0.000 C 
BRANCH  21  22
ATOM     22  O   UNL     1       7.319   5.849  15.290  0.00  0.00    +0.000 OA
ATOM     23  H   UNL     1       8.251   6.099  15.170  0.00  0.00    +0.000 HD
ENDBRANCH  21  22
ENDBRANCH  20  21
ENDBRANCH  15  20
ENDBRANCH  14  17
ENDBRANCH   1  14
TORSDOF 5
ENDMDL
MODEL 8
REMARK VINA RESULT:      -7.3      3.612      5.481
REMARK  Name = 
REMARK  5 active torsions:
REMARK  status: ('A' for Active; 'I' for Inactive)
REMARK    1  A    between atoms: O_1  and  C_2
REMARK    2  A    between atoms: C_2  and  C_3
REMARK    3  A    between atoms: C_3  and  C_4
REMARK    4  A    between atoms: N_6  and  C_7
REMARK    5  A    between atoms: C_7  and  C_8
REMARK                            x       y       z     vdW  Elec       q    Type
REMARK                         _______ _______ _______ _____ _____    ______ ____
ROOT
ATOM      1  C   UNL     1       2.484   6.404  19.259  0.00  0.00    +0.000 C 
ATOM      2  C   UNL     1       1.855   6.897  20.573  0.00  0.00    +0.000 C 
ATOM      3  C   UNL     1       1.419   8.258  20.176  0.00  0.00    +0.000 A 
ATOM      4  C   UNL     1       1.835   8.513  18.881  0.00  0.00    +0.000 A 
ATOM      5  C   UNL     1       1.638   9.734  18.273  0.00  0.00    +0.000 A 
ATOM      6  C   UNL     1       0.981  10.729  18.998  0.00  0.00    +0.000 A 
ATOM      7  C   UNL     1       0.517  10.490  20.310  0.00  0.00    +0.000 A 
ATOM      8  C   UNL     1      -0.155  11.491  21.031  0.00  0.00    +0.000 A 
ATOM      9  C   UNL     1      -0.611  11.256  22.328  0.00  0.00    +0.000 A 
ATOM     10  C   UNL     1      -0.401  10.015  22.926  0.00  0.00    +0.000 A 
ATOM     11  C   UNL     1       0.269   9.009  22.228  0.00  0.00    +0.000 A 
ATOM     12  C   UNL     1       0.736   9.228  20.919  0.00  0.00    +0.000 A 
ATOM     13  O   UNL     1       2.478   7.470  18.272  0.00  0.00    +0.000 OA
ENDROOT
BRANCH   1  14
ATOM     14  C   UNL     1       3.899   5.833  19.392  0.00  0.00    +0.000 C 
BRANCH  14  17
ATOM     15  C   UNL     1       5.209   4.079  16.556  0.00  0.00    +0.000 A 
ATOM     16  C   UNL     1       5.162   5.246  17.281  0.00  0.00    +0.000 A 
ATOM     17  N   UNL     1       4.311   4.969  18.307  0.00  0.00    +0.000 N 
ATOM     18  N   UNL     1       3.788   3.737  18.180  0.00  0.00    +0.000 NA
ATOM     19  N   UNL     1       4.342   3.175  17.114  0.00  0.00    +0.000 NA
BRANCH  15  20
ATOM     20  C   UNL     1       6.027   3.748  15.367  0.00  0.00    +0.000 C 
BRANCH  20  21
ATOM     21  C   UNL     1       6.377   4.977  14.538  0.00  0.00    +0.000 C 
BRANCH  21  22
ATOM     22  O   UNL     1       7.710   5.386  14.830  0.00  0.00    +0.000 OA
ATOM     23  H   UNL     1       7.932   6.096  14.202  0.00  0.00    +0.000 HD
ENDBRANCH  21  22
ENDBRANCH  20  21
ENDBRANCH  15  20
ENDBRANCH  14  17
ENDBRANCH   1  14
TORSDOF 5
ENDMDL
MODEL 9
REMARK VINA RESULT:      -7.3      3.322      5.285
REMARK  Name = 
REMARK  5 active torsions:
REMARK  status: ('A' for Active; 'I' for Inactive)
REMARK    1  A    between atoms: O_1  and  C_2
REMARK    2  A    between atoms: C_2  and  C_3
REMARK    3  A    between atoms: C_3  and  C_4
REMARK    4  A    between atoms: N_6  and  C_7
REMARK    5  A    between atoms: C_7  and  C_8
REMARK                            x       y       z     vdW  Elec       q    Type
REMARK                         _______ _______ _______ _____ _____    ______ ____
ROOT
ATOM      1  C   UNL     1       5.322   5.856  16.642  0.00  0.00    +0.000 C 
ATOM      2  C   UNL     1       4.599   4.508  16.804  0.00  0.00    +0.000 C 
ATOM      3  C   UNL     1       3.616   4.848  17.861  0.00  0.00    +0.000 A 
ATOM      4  C   UNL     1       3.833   6.146  18.288  0.00  0.00    +0.000 A 
ATOM      5  C   UNL     1       3.117   6.708  19.323  0.00  0.00    +0.000 A 
ATOM      6  C   UNL     1       2.134   5.932  19.938  0.00  0.00    +0.000 A 
ATOM      7  C   UNL     1       1.868   4.615  19.505  0.00  0.00    +0.000 A 
ATOM      8  C   UNL     1       0.869   3.842  20.119  0.00  0.00    +0.000 A 
ATOM      9  C   UNL     1       0.607   2.540  19.693  0.00  0.00    +0.000 A 
ATOM     10  C   UNL     1       1.343   1.988  18.647  0.00  0.00    +0.000 A 
ATOM     11  C   UNL     1       2.343   2.739  18.026  0.00  0.00    +0.000 A 
ATOM     12  C   UNL     1       2.621   4.054  18.442  0.00  0.00    +0.000 A 
ATOM     13  O   UNL     1       4.828   6.808  17.622  0.00  0.00    +0.000 OA
ENDROOT
BRANCH   1  14
ATOM     14  C   UNL     1       6.850   5.785  16.716  0.00  0.00    +0.000 C 
BRANCH  14  17
ATOM     15  C   UNL     1       8.261   8.782  18.081  0.00  0.00    +0.000 A 
ATOM     16  C   UNL     1       7.609   8.177  17.033  0.00  0.00    +0.000 A 
ATOM     17  N   UNL     1       7.477   6.880  17.425  0.00  0.00    +0.000 N 
ATOM     18  N   UNL     1       8.089   6.667  18.604  0.00  0.00    +0.000 NA
ATOM     19  N   UNL     1       8.564   7.832  19.023  0.00  0.00    +0.000 NA
BRANCH  15  20
ATOM     20  C   UNL     1       8.616  10.207  18.265  0.00  0.00    +0.000 C 
BRANCH  20  21
ATOM     21  C   UNL     1       9.721  10.406  19.294  0.00  0.00    +0.000 C 
BRANCH  21  22
ATOM     22  O   UNL     1       9.174  10.312  20.606  0.00  0.00    +0.000 OA
ATOM     23  H   UNL     1       8.845   9.402  20.711  0.00  0.00    +0.000 HD
ENDBRANCH  21  22
ENDBRANCH  20  21
ENDBRANCH  15  20
ENDBRANCH  14  17
ENDBRANCH   1  14
TORSDOF 5
ENDMDL
