MODEL 1
REMARK VINA RESULT:      -6.9      0.000      0.000
REMARK  Name = 
REMARK  8 active torsions:
REMARK  status: ('A' for Active; 'I' for Inactive)
REMARK    1  A    between atoms: C_1  and  N_2
REMARK    2  A    between atoms: C_8  and  C_9
REMARK    3  A    between atoms: C_11  and  C_12
REMARK    4  A    between atoms: C_12  and  C_13
REMARK    5  A    between atoms: N_17  and  C_18
REMARK    6  A    between atoms: C_18  and  C_19
REMARK    7  A    between atoms: C_19  and  C_20
REMARK    8  A    between atoms: C_20  and  O_21
REMARK                            x       y       z     vdW  Elec       q    Type
REMARK                         _______ _______ _______ _____ _____    ______ ____
ROOT
ATOM      1  C   UNL     1       4.693   4.759  18.105  0.00  0.00    +0.000 A 
ATOM      2  N   UNL     1       4.466   4.320  16.878  0.00  0.00    +0.000 NA
ATOM      3  C   UNL     1       5.700   4.111  16.343  0.00  0.00    +0.000 A 
ATOM      4  N   UNL     1       6.704   4.397  17.168  0.00  0.00    +0.000 NA
ATOM      5  N   UNL     1       6.060   4.889  18.251  0.00  0.00    +0.000 N 
ENDROOT
BRANCH   1  13
ATOM      6  C   UNL     1       2.322   6.851  18.151  0.00  0.00    +0.000 C 
ATOM      7  N   UNL     1       2.311   5.481  18.666  0.00  0.00    +0.000 NA
ATOM      8  C   UNL     1       1.630   4.578  17.730  0.00  0.00    +0.000 C 
ATOM      9  C   UNL     1       1.309   3.180  18.269  0.00  0.00    +0.000 C 
ATOM     10  C   UNL     1       2.517   2.264  18.425  0.00  0.00    +0.000 C 
ATOM     11  C   UNL     1       3.373   2.507  19.661  0.00  0.00    +0.000 C 
ATOM     12  C   UNL     1       3.461   3.935  20.188  0.00  0.00    +0.000 C 
ATOM     13  C   UNL     1       3.648   5.065  19.162  0.00  0.00    +0.000 C 
ENDBRANCH   1  13
BRANCH   3  14
ATOM     14  C   UNL     1       5.909   3.614  14.964  0.00  0.00    +0.000 C 
BRANCH  14  15
ATOM     15  C   UNL     1       6.796   4.497  14.112  0.00  0.00    +0.000 C 
ATOM     16  N   UNL     1       7.447   5.536  14.702  0.00  0.00    +0.000 N 
ATOM     17  O   UNL     1       6.873   4.355  12.891  0.00  0.00    +0.000 OA
ATOM     18  H   UNL     1       7.497   5.645  15.707  0.00  0.00    +0.000 HD
ATOM     19  H   UNL     1       8.052   6.104  14.119  0.00  0.00    +0.000 HD
ENDBRANCH  14  15
ENDBRANCH   3  14
BRANCH   5  20
ATOM     20  C   UNL     1       6.838   5.494  19.324  0.00  0.00    +0.000 C 
BRANCH  20  21
ATOM     21  C   UNL     1       8.120   6.190  18.828  0.00  0.00    +0.000 C 
BRANCH  21  22
ATOM     22  C   UNL     1       7.866   7.545  18.195  0.00  0.00    +0.000 C 
BRANCH  22  23
ATOM     23  O   UNL     1       7.634   7.395  16.803  0.00  0.00    +0.000 OA
ATOM     24  H   UNL     1       8.499   7.434  16.357  0.00  0.00    +0.000 HD
ENDBRANCH  22  23
ENDBRANCH  21  22
ENDBRANCH  20  21
ENDBRANCH   5  20
TORSDOF 7
ENDMDL
MODEL 2
REMARK VINA RESULT:      -6.7      2.877      5.817
REMARK  Name = 
REMARK  8 active torsions:
REMARK  status: ('A' for Active; 'I' for Inactive)
REMARK    1  A    between atoms: C_1  and  N_2
REMARK    2  A    between atoms: C_8  and  C_9
REMARK    3  A    between atoms: C_11  and  C_12
REMARK    4  A    between atoms: C_12  and  C_13
REMARK    5  A    between atoms: N_17  and  C_18
REMARK    6  A    between atoms: C_18  and  C_19
REMARK    7  A    between atoms: C_19  and  C_20
REMARK    8  A    between atoms: C_20  and  O_21
REMARK                            x       y       z     vdW  Elec       q    Type
REMARK                         _______ _______ _______ _____ _____    ______ ____
ROOT
ATOM      1  C   UNL     1       4.767   5.609  18.680  0.00  0.00    +0.000 A 
ATOM      2  N   UNL     1       4.765   4.325  18.997  0.00  0.00    +0.000 NA
ATOM      3  C   UNL     1       3.478   4.048  19.346  0.00  0.00    +0.000 A 
ATOM      4  N   UNL     1       2.659   5.094  19.269  0.00  0.00    +0.000 NA
ATOM      5  N   UNL     1       3.500   6.099  18.931  0.00  0.00    +0.000 N 
ENDROOT
BRANCH   1  13
ATOM      6  C   UNL     1       7.808   5.686  19.543  0.00  0.00    +0.000 C 
ATOM      7  N   UNL     1       7.267   5.735  18.184  0.00  0.00    +0.000 NA
ATOM      8  C   UNL     1       7.380   4.425  17.531  0.00  0.00    +0.000 C 
ATOM      9  C   UNL     1       7.106   4.408  16.023  0.00  0.00    +0.000 C 
ATOM     10  C   UNL     1       5.640   4.579  15.641  0.00  0.00    +0.000 C 
ATOM     11  C   UNL     1       5.109   6.006  15.687  0.00  0.00    +0.000 C 
ATOM     12  C   UNL     1       5.714   6.951  16.721  0.00  0.00    +0.000 C 
ATOM     13  C   UNL     1       5.941   6.404  18.141  0.00  0.00    +0.000 C 
ENDBRANCH   1  13
BRANCH   3  14
ATOM     14  C   UNL     1       3.030   2.704  19.777  0.00  0.00    +0.000 C 
BRANCH  14  15
ATOM     15  C   UNL     1       2.051   2.717  20.932  0.00  0.00    +0.000 C 
ATOM     16  N   UNL     1       0.744   2.997  20.680  0.00  0.00    +0.000 N 
ATOM     17  O   UNL     1       2.420   2.571  22.098  0.00  0.00    +0.000 OA
ATOM     18  H   UNL     1       0.367   3.033  19.741  0.00  0.00    +0.000 HD
ATOM     19  H   UNL     1       0.100   2.982  21.463  0.00  0.00    +0.000 HD
ENDBRANCH  14  15
ENDBRANCH   3  14
BRANCH   5  20
ATOM     20  C   UNL     1       3.003   7.468  18.929  0.00  0.00    +0.000 C 
BRANCH  20  21
ATOM     21  C   UNL     1       2.164   7.810  17.683  0.00  0.00    +0.000 C 
BRANCH  21  22
ATOM     22  C   UNL     1       1.341   9.074  17.838  0.00  0.00    +0.000 C 
BRANCH  22  23
ATOM     23  O   UNL     1       2.117  10.206  17.476  0.00  0.00    +0.000 OA
ATOM     24  H   UNL     1       3.047   9.998  17.675  0.00  0.00    +0.000 HD
ENDBRANCH  22  23
ENDBRANCH  21  22
ENDBRANCH  20  21
ENDBRANCH   5  20
TORSDOF 7
ENDMDL
MODEL 3
REMARK VINA RESULT:      -6.6      1.490      3.937
REMARK  Name = 
REMARK  8 active torsions:
REMARK  status: ('A' for Active; 'I' for Inactive)
REMARK    1  A    between atoms: C_1  and  N_2
REMARK    2  A    between atoms: C_8  and  C_9
REMARK    3  A    between atoms: C_11  and  C_12
REMARK    4  A    between atoms: C_12  and  C_13
REMARK    5  A    between atoms: N_17  and  C_18
REMARK    6  A    between atoms: C_18  and  C_19
REMARK    7  A    between atoms: C_19  and  C_20
REMARK    8  A    between atoms: C_20  and  O_21
REMARK                            x       y       z     vdW  Elec       q    Type
REMARK                         _______ _______ _______ _____ _____    ______ ____
ROOT
ATOM      1  C   UNL     1       5.114   4.029  18.130  0.00  0.00    +0.000 A 
ATOM      2  N   UNL     1       5.826   4.700  19.021  0.00  0.00    +0.000 NA
ATOM      3  C   UNL     1       6.795   5.327  18.299  0.00  0.00    +0.000 A 
ATOM      4  N   UNL     1       6.738   5.087  16.992  0.00  0.00    +0.000 NA
ATOM      5  N   UNL     1       5.725   4.195  16.902  0.00  0.00    +0.000 N 
ENDROOT
BRANCH   1  13
ATOM      6  C   UNL     1       4.380   2.029  20.467  0.00  0.00    +0.000 C 
ATOM      7  N   UNL     1       3.503   3.011  19.827  0.00  0.00    +0.000 NA
ATOM      8  C   UNL     1       3.360   4.206  20.668  0.00  0.00    +0.000 C 
ATOM      9  C   UNL     1       2.260   5.187  20.249  0.00  0.00    +0.000 C 
ATOM     10  C   UNL     1       2.571   5.991  18.992  0.00  0.00    +0.000 C 
ATOM     11  C   UNL     1       2.372   5.256  17.672  0.00  0.00    +0.000 C 
ATOM     12  C   UNL     1       2.616   3.750  17.660  0.00  0.00    +0.000 C 
ATOM     13  C   UNL     1       3.857   3.223  18.400  0.00  0.00    +0.000 C 
ENDBRANCH   1  13
BRANCH   3  14
ATOM     14  C   UNL     1       7.825   6.195  18.915  0.00  0.00    +0.000 C 
BRANCH  14  15
ATOM     15  C   UNL     1       7.976   7.547  18.251  0.00  0.00    +0.000 C 
ATOM     16  N   UNL     1       7.360   7.764  17.057  0.00  0.00    +0.000 N 
ATOM     17  O   UNL     1       8.713   8.420  18.714  0.00  0.00    +0.000 OA
ATOM     18  H   UNL     1       6.672   7.125  16.677  0.00  0.00    +0.000 HD
ATOM     19  H   UNL     1       7.457   8.682  16.638  0.00  0.00    +0.000 HD
ENDBRANCH  14  15
ENDBRANCH   3  14
BRANCH   5  20
ATOM     20  C   UNL     1       5.469   3.540  15.627  0.00  0.00    +0.000 C 
BRANCH  20  21
ATOM     21  C   UNL     1       5.567   4.493  14.421  0.00  0.00    +0.000 C 
BRANCH  21  22
ATOM     22  C   UNL     1       6.889   4.400  13.684  0.00  0.00    +0.000 C 
BRANCH  22  23
ATOM     23  O   UNL     1       7.755   5.443  14.107  0.00  0.00    +0.000 OA
ATOM     24  H   UNL     1       8.641   5.057  14.225  0.00  0.00    +0.000 HD
ENDBRANCH  22  23
ENDBRANCH  21  22
ENDBRANCH  20  21
ENDBRANCH   5  20
TORSDOF 7
ENDMDL
MODEL 4
REMARK VINA RESULT:      -6.6      2.751      5.438
REMARK  Name = 
REMARK  8 active torsions:
REMARK  status: ('A' for Active; 'I' for Inactive)
REMARK    1  A    between atoms: C_1  and  N_2
REMARK    2  A    between atoms: C_8  and  C_9
REMARK    3  A    between atoms: C_11  and  C_12
REMARK    4  A    between atoms: C_12  and  C_13
REMARK    5  A    between atoms: N_17  and  C_18
REMARK    6  A    between atoms: C_18  and  C_19
REMARK    7  A    between atoms: C_19  and  C_20
REMARK    8  A    between atoms: C_20  and  O_21
REMARK                            x       y       z     vdW  Elec       q    Type
REMARK                         _______ _______ _______ _____ _____    ______ ____
ROOT
ATOM      1  C   UNL     1       4.799   5.955  18.052  0.00  0.00    +0.000 A 
ATOM      2  N   UNL     1       4.896   4.817  18.719  0.00  0.00    +0.000 NA
ATOM      3  C   UNL     1       3.655   4.602  19.235  0.00  0.00    +0.000 A 
ATOM      4  N   UNL     1       2.771   5.549  18.932  0.00  0.00    +0.000 NA
ATOM      5  N   UNL     1       3.524   6.446  18.256  0.00  0.00    +0.000 N 
ENDROOT
BRANCH   1  13
ATOM      6  C   UNL     1       7.836   6.569  18.685  0.00  0.00    +0.000 C 
ATOM      7  N   UNL     1       7.267   6.103  17.420  0.00  0.00    +0.000 NA
ATOM      8  C   UNL     1       7.488   4.662  17.248  0.00  0.00    +0.000 C 
ATOM      9  C   UNL     1       7.189   4.104  15.853  0.00  0.00    +0.000 C 
ATOM     10  C   UNL     1       5.706   4.015  15.508  0.00  0.00    +0.000 C 
ATOM     11  C   UNL     1       5.046   5.323  15.090  0.00  0.00    +0.000 C 
ATOM     12  C   UNL     1       5.581   6.611  15.708  0.00  0.00    +0.000 C 
ATOM     13  C   UNL     1       5.884   6.607  17.216  0.00  0.00    +0.000 C 
ENDBRANCH   1  13
BRANCH   3  14
ATOM     14  C   UNL     1       3.319   3.422  20.065  0.00  0.00    +0.000 C 
BRANCH  14  15
ATOM     15  C   UNL     1       4.207   2.220  19.824  0.00  0.00    +0.000 C 
ATOM     16  N   UNL     1       4.063   1.519  18.667  0.00  0.00    +0.000 N 
ATOM     17  O   UNL     1       4.989   1.807  20.683  0.00  0.00    +0.000 OA
ATOM     18  H   UNL     1       3.510   1.860  17.891  0.00  0.00    +0.000 HD
ATOM     19  H   UNL     1       4.681   0.729  18.515  0.00  0.00    +0.000 HD
ENDBRANCH  14  15
ENDBRANCH   3  14
BRANCH   5  20
ATOM     20  C   UNL     1       2.946   7.736  17.907  0.00  0.00    +0.000 C 
BRANCH  20  21
ATOM     21  C   UNL     1       1.918   8.242  18.937  0.00  0.00    +0.000 C 
BRANCH  21  22
ATOM     22  C   UNL     1       1.238   9.535  18.527  0.00  0.00    +0.000 C 
BRANCH  22  23
ATOM     23  O   UNL     1       1.889  10.087  17.394  0.00  0.00    +0.000 OA
ATOM     24  H   UNL     1       2.573  10.699  17.719  0.00  0.00    +0.000 HD
ENDBRANCH  22  23
ENDBRANCH  21  22
ENDBRANCH  20  21
ENDBRANCH   5  20
TORSDOF 7
ENDMDL
MODEL 5
REMARK VINA RESULT:      -6.5      2.850      5.671
REMARK  Name = 
REMARK  8 active torsions:
REMARK  status: ('A' for Active; 'I' for Inactive)
REMARK    1  A    between atoms: C_1  and  N_2
REMARK    2  A    between atoms: C_8  and  C_9
REMARK    3  A    between atoms: C_11  and  C_12
REMARK    4  A    between atoms: C_12  and  C_13
REMARK    5  A    between atoms: N_17  and  C_18
REMARK    6  A    between atoms: C_18  and  C_19
REMARK    7  A    between atoms: C_19  and  C_20
REMARK    8  A    between atoms: C_20  and  O_21
REMARK                            x       y       z     vdW  Elec       q    Type
REMARK                         _______ _______ _______ _____ _____    ______ ____
ROOT
ATOM      1  C   UNL     1       4.741   5.765  18.267  0.00  0.00    +0.000 A 
ATOM      2  N   UNL     1       4.713   4.565  18.824  0.00  0.00    +0.000 NA
ATOM      3  C   UNL     1       3.398   4.325  19.082  0.00  0.00    +0.000 A 
ATOM      4  N   UNL     1       2.585   5.313  18.720  0.00  0.00    +0.000 NA
ATOM      5  N   UNL     1       3.451   6.258  18.284  0.00  0.00    +0.000 N 
ENDROOT
BRANCH   1  13
ATOM      6  C   UNL     1       7.739   5.854  19.267  0.00  0.00    +0.000 C 
ATOM      7  N   UNL     1       7.263   5.782  17.885  0.00  0.00    +0.000 NA
ATOM      8  C   UNL     1       7.370   4.411  17.369  0.00  0.00    +0.000 C 
ATOM      9  C   UNL     1       7.166   4.251  15.859  0.00  0.00    +0.000 C 
ATOM     10  C   UNL     1       5.725   4.418  15.390  0.00  0.00    +0.000 C 
ATOM     11  C   UNL     1       5.233   5.855  15.270  0.00  0.00    +0.000 C 
ATOM     12  C   UNL     1       5.816   6.883  16.235  0.00  0.00    +0.000 C 
ATOM     13  C   UNL     1       5.961   6.474  17.711  0.00  0.00    +0.000 C 
ENDBRANCH   1  13
BRANCH   3  14
ATOM     14  C   UNL     1       2.916   3.076  19.716  0.00  0.00    +0.000 C 
BRANCH  14  15
ATOM     15  C   UNL     1       1.432   2.827  19.546  0.00  0.00    +0.000 C 
ATOM     16  N   UNL     1       0.568   3.371  20.446  0.00  0.00    +0.000 N 
ATOM     17  O   UNL     1       0.995   2.074  18.674  0.00  0.00    +0.000 OA
ATOM     18  H   UNL     1       0.856   4.069  21.121  0.00  0.00    +0.000 HD
ATOM     19  H   UNL     1      -0.422   3.209  20.304  0.00  0.00    +0.000 HD
ENDBRANCH  14  15
ENDBRANCH   3  14
BRANCH   5  20
ATOM     20  C   UNL     1       2.947   7.587  17.965  0.00  0.00    +0.000 C 
BRANCH  20  21
ATOM     21  C   UNL     1       1.954   8.129  19.012  0.00  0.00    +0.000 C 
BRANCH  21  22
ATOM     22  C   UNL     1       1.424   9.511  18.682  0.00  0.00    +0.000 C 
BRANCH  22  23
ATOM     23  O   UNL     1       1.835   9.890  17.378  0.00  0.00    +0.000 OA
ATOM     24  H   UNL     1       2.808   9.852  17.355  0.00  0.00    +0.000 HD
ENDBRANCH  22  23
ENDBRANCH  21  22
ENDBRANCH  20  21
ENDBRANCH   5  20
TORSDOF 7
ENDMDL
MODEL 6
REMARK VINA RESULT:      -6.4      1.293      1.343
REMARK  Name = 
REMARK  8 active torsions:
REMARK  status: ('A' for Active; 'I' for Inactive)
REMARK    1  A    between atoms: C_1  and  N_2
REMARK    2  A    between atoms: C_8  and  C_9
REMARK    3  A    between atoms: C_11  and  C_12
REMARK    4  A    between atoms: C_12  and  C_13
REMARK    5  A    between atoms: N_17  and  C_18
REMARK    6  A    between atoms: C_18  and  C_19
REMARK    7  A    between atoms: C_19  and  C_20
REMARK    8  A    between atoms: C_20  and  O_21
REMARK                            x       y       z     vdW  Elec       q    Type
REMARK                         _______ _______ _______ _____ _____    ______ ____
ROOT
ATOM      1  C   UNL     1       5.095   4.524  17.330  0.00  0.00    +0.000 A 
ATOM      2  N   UNL     1       4.477   4.441  16.163  0.00  0.00    +0.000 NA
ATOM      3  C   UNL     1       5.468   4.249  15.250  0.00  0.00    +0.000 A 
ATOM      4  N   UNL     1       6.690   4.208  15.776  0.00  0.00    +0.000 NA
ATOM      5  N   UNL     1       6.453   4.469  17.083  0.00  0.00    +0.000 N 
ENDROOT
BRANCH   1  13
ATOM      6  C   UNL     1       3.178   6.740  18.518  0.00  0.00    +0.000 C 
ATOM      7  N   UNL     1       3.099   5.293  18.720  0.00  0.00    +0.000 NA
ATOM      8  C   UNL     1       2.057   4.705  17.868  0.00  0.00    +0.000 C 
ATOM      9  C   UNL     1       1.685   3.252  18.179  0.00  0.00    +0.000 C 
ATOM     10  C   UNL     1       2.734   2.224  17.771  0.00  0.00    +0.000 C 
ATOM     11  C   UNL     1       3.923   2.086  18.713  0.00  0.00    +0.000 C 
ATOM     12  C   UNL     1       4.370   3.332  19.472  0.00  0.00    +0.000 C 
ATOM     13  C   UNL     1       4.440   4.655  18.692  0.00  0.00    +0.000 C 
ENDBRANCH   1  13
BRANCH   3  14
ATOM     14  C   UNL     1       5.212   4.104  13.799  0.00  0.00    +0.000 C 
BRANCH  14  15
ATOM     15  C   UNL     1       6.460   3.923  12.962  0.00  0.00    +0.000 C 
ATOM     16  N   UNL     1       6.647   2.743  12.310  0.00  0.00    +0.000 N 
ATOM     17  O   UNL     1       7.350   4.774  12.929  0.00  0.00    +0.000 OA
ATOM     18  H   UNL     1       5.915   2.049  12.223  0.00  0.00    +0.000 HD
ATOM     19  H   UNL     1       7.479   2.648  11.739  0.00  0.00    +0.000 HD
ENDBRANCH  14  15
ENDBRANCH   3  14
BRANCH   5  20
ATOM     20  C   UNL     1       7.582   4.694  17.975  0.00  0.00    +0.000 C 
BRANCH  20  21
ATOM     21  C   UNL     1       7.616   6.116  18.568  0.00  0.00    +0.000 C 
BRANCH  21  22
ATOM     22  C   UNL     1       7.518   7.209  17.521  0.00  0.00    +0.000 C 
BRANCH  22  23
ATOM     23  O   UNL     1       8.133   8.396  17.999  0.00  0.00    +0.000 OA
ATOM     24  H   UNL     1       7.468   9.105  17.959  0.00  0.00    +0.000 HD
ENDBRANCH  22  23
ENDBRANCH  21  22
ENDBRANCH  20  21
ENDBRANCH   5  20
TORSDOF 7
ENDMDL
MODEL 7
REMARK VINA RESULT:      -6.4      2.492      4.212
REMARK  Name = 
REMARK  8 active torsions:
REMARK  status: ('A' for Active; 'I' for Inactive)
REMARK    1  A    between atoms: C_1  and  N_2
REMARK    2  A    between atoms: C_8  and  C_9
REMARK    3  A    between atoms: C_11  and  C_12
REMARK    4  A    between atoms: C_12  and  C_13
REMARK    5  A    between atoms: N_17  and  C_18
REMARK    6  A    between atoms: C_18  and  C_19
REMARK    7  A    between atoms: C_19  and  C_20
REMARK    8  A    between atoms: C_20  and  O_21
REMARK                            x       y       z     vdW  Elec       q    Type
REMARK                         _______ _______ _______ _____ _____    ______ ____
ROOT
ATOM      1  C   UNL     1       3.703   4.461  18.580  0.00  0.00    +0.000 A 
ATOM      2  N   UNL     1       4.978   4.210  18.828  0.00  0.00    +0.000 NA
ATOM      3  C   UNL     1       5.595   5.423  18.775  0.00  0.00    +0.000 A 
ATOM      4  N   UNL     1       4.776   6.436  18.503  0.00  0.00    +0.000 NA
ATOM      5  N   UNL     1       3.595   5.809  18.295  0.00  0.00    +0.000 N 
ENDROOT
BRANCH   1  13
ATOM      6  C   UNL     1       3.688   1.313  18.289  0.00  0.00    +0.000 C 
ATOM      7  N   UNL     1       2.869   2.128  19.187  0.00  0.00    +0.000 NA
ATOM      8  C   UNL     1       3.408   2.100  20.552  0.00  0.00    +0.000 C 
ATOM      9  C   UNL     1       2.498   2.682  21.639  0.00  0.00    +0.000 C 
ATOM     10  C   UNL     1       2.372   4.201  21.617  0.00  0.00    +0.000 C 
ATOM     11  C   UNL     1       1.424   4.769  20.567  0.00  0.00    +0.000 C 
ATOM     12  C   UNL     1       1.281   4.000  19.257  0.00  0.00    +0.000 C 
ATOM     13  C   UNL     1       2.564   3.459  18.603  0.00  0.00    +0.000 C 
ENDBRANCH   1  13
BRANCH   3  14
ATOM     14  C   UNL     1       7.048   5.599  18.995  0.00  0.00    +0.000 C 
BRANCH  14  15
ATOM     15  C   UNL     1       7.676   6.689  18.153  0.00  0.00    +0.000 C 
ATOM     16  N   UNL     1       7.496   6.663  16.805  0.00  0.00    +0.000 N 
ATOM     17  O   UNL     1       8.418   7.543  18.644  0.00  0.00    +0.000 OA
ATOM     18  H   UNL     1       6.827   6.048  16.359  0.00  0.00    +0.000 HD
ATOM     19  H   UNL     1       7.908   7.412  16.261  0.00  0.00    +0.000 HD
ENDBRANCH  14  15
ENDBRANCH   3  14
BRANCH   5  20
ATOM     20  C   UNL     1       2.467   6.575  17.785  0.00  0.00    +0.000 C 
BRANCH  20  21
ATOM     21  C   UNL     1       2.777   8.074  17.610  0.00  0.00    +0.000 C 
BRANCH  21  22
ATOM     22  C   UNL     1       1.654   8.982  18.071  0.00  0.00    +0.000 C 
BRANCH  22  23
ATOM     23  O   UNL     1       1.739  10.235  17.410  0.00  0.00    +0.000 OA
ATOM     24  H   UNL     1       1.812  10.922  18.096  0.00  0.00    +0.000 HD
ENDBRANCH  22  23
ENDBRANCH  21  22
ENDBRANCH  20  21
ENDBRANCH   5  20
TORSDOF 7
ENDMDL
MODEL 8
REMARK VINA RESULT:      -6.3      2.765      5.416
REMARK  Name = 
REMARK  8 active torsions:
REMARK  status: ('A' for Active; 'I' for Inactive)
REMARK    1  A    between atoms: C_1  and  N_2
REMARK    2  A    between atoms: C_8  and  C_9
REMARK    3  A    between atoms: C_11  and  C_12
REMARK    4  A    between atoms: C_12  and  C_13
REMARK    5  A    between atoms: N_17  and  C_18
REMARK    6  A    between atoms: C_18  and  C_19
REMARK    7  A    between atoms: C_19  and  C_20
REMARK    8  A    between atoms: C_20  and  O_21
REMARK                            x       y       z     vdW  Elec       q    Type
REMARK                         _______ _______ _______ _____ _____    ______ ____
ROOT
ATOM      1  C   UNL     1       4.810   5.940  18.093  0.00  0.00    +0.000 A 
ATOM      2  N   UNL     1       4.805   4.757  18.686  0.00  0.00    +0.000 NA
ATOM      3  C   UNL     1       3.523   4.576  19.105  0.00  0.00    +0.000 A 
ATOM      4  N   UNL     1       2.709   5.586  18.809  0.00  0.00    +0.000 NA
ATOM      5  N   UNL     1       3.550   6.484  18.246  0.00  0.00    +0.000 N 
ENDROOT
BRANCH   1  13
ATOM      6  C   UNL     1       7.846   6.258  18.917  0.00  0.00    +0.000 C 
ATOM      7  N   UNL     1       7.311   5.960  17.588  0.00  0.00    +0.000 NA
ATOM      8  C   UNL     1       7.439   4.530  17.283  0.00  0.00    +0.000 C 
ATOM      9  C   UNL     1       7.172   4.133  15.828  0.00  0.00    +0.000 C 
ATOM     10  C   UNL     1       5.707   4.190  15.410  0.00  0.00    +0.000 C 
ATOM     11  C   UNL     1       5.164   5.578  15.096  0.00  0.00    +0.000 C 
ATOM     12  C   UNL     1       5.756   6.757  15.862  0.00  0.00    +0.000 C 
ATOM     13  C   UNL     1       5.980   6.585  17.374  0.00  0.00    +0.000 C 
ENDBRANCH   1  13
BRANCH   3  14
ATOM     14  C   UNL     1       3.074   3.365  19.829  0.00  0.00    +0.000 C 
BRANCH  14  15
ATOM     15  C   UNL     1       3.842   2.109  19.476  0.00  0.00    +0.000 C 
ATOM     16  N   UNL     1       5.020   1.860  20.111  0.00  0.00    +0.000 N 
ATOM     17  O   UNL     1       3.477   1.358  18.571  0.00  0.00    +0.000 OA
ATOM     18  H   UNL     1       5.321   2.386  20.922  0.00  0.00    +0.000 HD
ATOM     19  H   UNL     1       5.509   1.005  19.875  0.00  0.00    +0.000 HD
ENDBRANCH  14  15
ENDBRANCH   3  14
BRANCH   5  20
ATOM     20  C   UNL     1       3.060   7.823  17.947  0.00  0.00    +0.000 C 
BRANCH  20  21
ATOM     21  C   UNL     1       1.624   8.072  18.447  0.00  0.00    +0.000 C 
BRANCH  21  22
ATOM     22  C   UNL     1       1.566   8.743  19.805  0.00  0.00    +0.000 C 
BRANCH  22  23
ATOM     23  O   UNL     1       1.867   7.803  20.825  0.00  0.00    +0.000 OA
ATOM     24  H   UNL     1       1.338   8.041  21.607  0.00  0.00    +0.000 HD
ENDBRANCH  22  23
ENDBRANCH  21  22
ENDBRANCH  20  21
ENDBRANCH   5  20
TORSDOF 7
ENDMDL
MODEL 9
REMARK VINA RESULT:      -6.3      3.172      5.853
REMARK  Name = 
REMARK  8 active torsions:
REMARK  status: ('A' for Active; 'I' for Inactive)
REMARK    1  A    between atoms: C_1  and  N_2
REMARK    2  A    between atoms: C_8  and  C_9
REMARK    3  A    between atoms: C_11  and  C_12
REMARK    4  A    between atoms: C_12  and  C_13
REMARK    5  A    between atoms: N_17  and  C_18
REMARK    6  A    between atoms: C_18  and  C_19
REMARK    7  A    between atoms: C_19  and  C_20
REMARK    8  A    between atoms: C_20  and  O_21
REMARK                            x       y       z     vdW  Elec       q    Type
REMARK                         _______ _______ _______ _____ _____    ______ ____
ROOT
ATOM      1  C   UNL     1       4.594   5.441  18.410  0.00  0.00    +0.000 A 
ATOM      2  N   UNL     1       4.696   4.254  18.986  0.00  0.00    +0.000 NA
ATOM      3  C   UNL     1       3.414   3.828  19.149  0.00  0.00    +0.000 A 
ATOM      4  N   UNL     1       2.497   4.685  18.708  0.00  0.00    +0.000 NA
ATOM      5  N   UNL     1       3.249   5.742  18.320  0.00  0.00    +0.000 N 
ENDROOT
BRANCH   1  13
ATOM      6  C   UNL     1       7.546   5.786  19.491  0.00  0.00    +0.000 C 
ATOM      7  N   UNL     1       7.106   5.757  18.095  0.00  0.00    +0.000 NA
ATOM      8  C   UNL     1       7.372   4.445  17.492  0.00  0.00    +0.000 C 
ATOM      9  C   UNL     1       7.215   4.368  15.970  0.00  0.00    +0.000 C 
ATOM     10  C   UNL     1       5.773   4.409  15.476  0.00  0.00    +0.000 C 
ATOM     11  C   UNL     1       5.129   5.789  15.439  0.00  0.00    +0.000 C 
ATOM     12  C   UNL     1       5.577   6.805  16.485  0.00  0.00    +0.000 C 
ATOM     13  C   UNL     1       5.739   6.315  17.934  0.00  0.00    +0.000 C 
ENDBRANCH   1  13
BRANCH   3  14
ATOM     14  C   UNL     1       3.068   2.528  19.768  0.00  0.00    +0.000 C 
BRANCH  14  15
ATOM     15  C   UNL     1       2.189   2.638  20.995  0.00  0.00    +0.000 C 
ATOM     16  N   UNL     1       0.875   2.955  20.835  0.00  0.00    +0.000 N 
ATOM     17  O   UNL     1       2.648   2.538  22.134  0.00  0.00    +0.000 OA
ATOM     18  H   UNL     1       0.424   2.956  19.928  0.00  0.00    +0.000 HD
ATOM     19  H   UNL     1       0.298   3.005  21.667  0.00  0.00    +0.000 HD
ENDBRANCH  14  15
ENDBRANCH   3  14
BRANCH   5  20
ATOM     20  C   UNL     1       2.586   6.981  17.940  0.00  0.00    +0.000 C 
BRANCH  20  21
ATOM     21  C   UNL     1       2.335   7.928  19.129  0.00  0.00    +0.000 C 
BRANCH  21  22
ATOM     22  C   UNL     1       1.706   7.241  20.326  0.00  0.00    +0.000 C 
BRANCH  22  23
ATOM     23  O   UNL     1       1.932   8.006  21.500  0.00  0.00    +0.000 OA
ATOM     24  H   UNL     1       1.758   8.938  21.278  0.00  0.00    +0.000 HD
ENDBRANCH  22  23
ENDBRANCH  21  22
ENDBRANCH  20  21
ENDBRANCH   5  20
TORSDOF 7
ENDMDL
