MODEL 1
REMARK VINA RESULT:      -8.1      0.000      0.000
REMARK  Name = 
REMARK  6 active torsions:
REMARK  status: ('A' for Active; 'I' for Inactive)
REMARK    1  A    between atoms: N_1  and  S_2
REMARK    2  A    between atoms: S_2  and  C_5
REMARK    3  A    between atoms: C_8  and  N_9
REMARK    4  A    between atoms: C_12  and  C_13
REMARK    5  A    between atoms: C_13  and  O_15
REMARK    6  A    between atoms: C_16  and  C_17
REMARK                            x       y       z     vdW  Elec       q    Type
REMARK                         _______ _______ _______ _____ _____    ______ ____
ROOT
ATOM      1  N   UNL     1       2.889   4.787  19.895  0.00  0.00    +0.000 N 
ATOM      2  N   UNL     1       2.461   4.192  21.034  0.00  0.00    +0.000 NA
ATOM      3  N   UNL     1       2.911   2.952  21.057  0.00  0.00    +0.000 NA
ATOM      4  C   UNL     1       3.778   2.793  20.004  0.00  0.00    +0.000 A 
ATOM      5  C   UNL     1       3.799   3.954  19.227  0.00  0.00    +0.000 A 
ENDROOT
BRANCH   5   6
ATOM      6  C   UNL     1       4.645   4.319  18.075  0.00  0.00    +0.000 A 
ATOM      7  C   UNL     1       4.309   3.918  16.774  0.00  0.00    +0.000 A 
ATOM      8  C   UNL     1       5.163   4.174  15.694  0.00  0.00    +0.000 A 
ATOM      9  C   UNL     1       6.331   4.899  15.891  0.00  0.00    +0.000 A 
ATOM     10 CL   UNL     1       7.386   5.212  14.570  0.00  0.00    +0.000 Cl
ATOM     11  C   UNL     1       6.662   5.354  17.160  0.00  0.00    +0.000 A 
ATOM     12  C   UNL     1       5.845   5.030  18.247  0.00  0.00    +0.000 A 
ENDBRANCH   5   6
BRANCH   1  16
ATOM     13  C   UNL     1       1.751   8.730  18.977  0.00  0.00    +0.000 A 
ATOM     14  C   UNL     1       1.542   8.235  20.268  0.00  0.00    +0.000 A 
ATOM     15  C   UNL     1       1.862   6.900  20.557  0.00  0.00    +0.000 A 
ATOM     16  C   UNL     1       2.417   6.082  19.556  0.00  0.00    +0.000 A 
ATOM     17  C   UNL     1       2.555   6.571  18.251  0.00  0.00    +0.000 A 
ATOM     18  C   UNL     1       2.228   7.896  17.963  0.00  0.00    +0.000 A 
BRANCH  13  19
ATOM     19  S   UNL     1       1.335  10.408  18.581  0.00  0.00    +0.000 S 
ATOM     20  O   UNL     1       2.260  10.897  17.586  0.00  0.00    +0.000 OA
ATOM     21  O   UNL     1       1.050  11.121  19.802  0.00  0.00    +0.000 OA
BRANCH  19  22
ATOM     22  N   UNL     1      -0.147  10.239  17.799  0.00  0.00    +0.000 NA
ATOM     23  H   UNL     1       0.005  10.257  16.789  0.00  0.00    +0.000 HD
ATOM     24  H   UNL     1      -0.789  10.966  18.117  0.00  0.00    +0.000 HD
ENDBRANCH  19  22
ENDBRANCH  13  19
ENDBRANCH   1  16
BRANCH   4  25
ATOM     25  C   UNL     1       4.533   1.557  19.874  0.00  0.00    +0.000 C 
ATOM     26  O   UNL     1       5.378   1.153  20.665  0.00  0.00    +0.000 OA
BRANCH  25  27
ATOM     27  O   UNL     1       4.235   0.857  18.744  0.00  0.00    +0.000 OA
ATOM     28  H   UNL     1       3.476   0.261  18.904  0.00  0.00    +0.000 HD
ENDBRANCH  25  27
ENDBRANCH   4  25
TORSDOF 6
ENDMDL
MODEL 2
REMARK VINA RESULT:      -8.0      0.716      1.309
REMARK  Name = 
REMARK  6 active torsions:
REMARK  status: ('A' for Active; 'I' for Inactive)
REMARK    1  A    between atoms: N_1  and  S_2
REMARK    2  A    between atoms: S_2  and  C_5
REMARK    3  A    between atoms: C_8  and  N_9
REMARK    4  A    between atoms: C_12  and  C_13
REMARK    5  A    between atoms: C_13  and  O_15
REMARK    6  A    between atoms: C_16  and  C_17
REMARK                            x       y       z     vdW  Elec       q    Type
REMARK                         _______ _______ _______ _____ _____    ______ ____
ROOT
ATOM      1  N   UNL     1       3.055   4.768  19.952  0.00  0.00    +0.000 N 
ATOM      2  N   UNL     1       2.612   4.149  21.072  0.00  0.00    +0.000 NA
ATOM      3  N   UNL     1       2.989   2.885  21.033  0.00  0.00    +0.000 NA
ATOM      4  C   UNL     1       3.827   2.723  19.958  0.00  0.00    +0.000 A 
ATOM      5  C   UNL     1       3.903   3.913  19.231  0.00  0.00    +0.000 A 
ENDROOT
BRANCH   5   6
ATOM      6  C   UNL     1       4.750   4.279  18.080  0.00  0.00    +0.000 A 
ATOM      7  C   UNL     1       4.346   4.000  16.766  0.00  0.00    +0.000 A 
ATOM      8  C   UNL     1       5.192   4.252  15.679  0.00  0.00    +0.000 A 
ATOM      9  C   UNL     1       6.427   4.853  15.887  0.00  0.00    +0.000 A 
ATOM     10 CL   UNL     1       7.472   5.160  14.557  0.00  0.00    +0.000 Cl
ATOM     11  C   UNL     1       6.831   5.188  17.173  0.00  0.00    +0.000 A 
ATOM     12  C   UNL     1       6.014   4.865  18.260  0.00  0.00    +0.000 A 
ENDBRANCH   5   6
BRANCH   1  16
ATOM     13  C   UNL     1       1.621   8.613  19.035  0.00  0.00    +0.000 A 
ATOM     14  C   UNL     1       2.311   7.885  18.062  0.00  0.00    +0.000 A 
ATOM     15  C   UNL     1       2.846   6.630  18.387  0.00  0.00    +0.000 A 
ATOM     16  C   UNL     1       2.656   6.102  19.678  0.00  0.00    +0.000 A 
ATOM     17  C   UNL     1       2.023   6.872  20.661  0.00  0.00    +0.000 A 
ATOM     18  C   UNL     1       1.500   8.124  20.339  0.00  0.00    +0.000 A 
BRANCH  13  19
ATOM     19  S   UNL     1       0.954  10.212  18.655  0.00  0.00    +0.000 S 
ATOM     20  O   UNL     1       1.034  11.045  19.833  0.00  0.00    +0.000 OA
ATOM     21  O   UNL     1      -0.261  10.045  17.896  0.00  0.00    +0.000 OA
BRANCH  19  22
ATOM     22  N   UNL     1       2.085  10.827  17.570  0.00  0.00    +0.000 NA
ATOM     23  H   UNL     1       1.952  11.837  17.486  0.00  0.00    +0.000 HD
ATOM     24  H   UNL     1       2.006  10.341  16.676  0.00  0.00    +0.000 HD
ENDBRANCH  19  22
ENDBRANCH  13  19
ENDBRANCH   1  16
BRANCH   4  25
ATOM     25  C   UNL     1       4.505   1.452  19.759  0.00  0.00    +0.000 C 
ATOM     26  O   UNL     1       5.349   0.971  20.509  0.00  0.00    +0.000 OA
BRANCH  25  27
ATOM     27  O   UNL     1       4.134   0.812  18.616  0.00  0.00    +0.000 OA
ATOM     28  H   UNL     1       4.632  -0.025  18.518  0.00  0.00    +0.000 HD
ENDBRANCH  25  27
ENDBRANCH   4  25
TORSDOF 6
ENDMDL
MODEL 3
REMARK VINA RESULT:      -7.7      0.386      1.220
REMARK  Name = 
REMARK  6 active torsions:
REMARK  status: ('A' for Active; 'I' for Inactive)
REMARK    1  A    between atoms: N_1  and  S_2
REMARK    2  A    between atoms: S_2  and  C_5
REMARK    3  A    between atoms: C_8  and  N_9
REMARK    4  A    between atoms: C_12  and  C_13
REMARK    5  A    between atoms: C_13  and  O_15
REMARK    6  A    between atoms: C_16  and  C_17
REMARK                            x       y       z     vdW  Elec       q    Type
REMARK                         _______ _______ _______ _____ _____    ______ ____
ROOT
ATOM      1  N   UNL     1       2.856   5.035  19.845  0.00  0.00    +0.000 N 
ATOM      2  N   UNL     1       2.385   4.391  20.939  0.00  0.00    +0.000 NA
ATOM      3  N   UNL     1       2.716   3.117  20.855  0.00  0.00    +0.000 NA
ATOM      4  C   UNL     1       3.555   2.965  19.779  0.00  0.00    +0.000 A 
ATOM      5  C   UNL     1       3.677   4.178  19.098  0.00  0.00    +0.000 A 
ENDROOT
BRANCH   5   6
ATOM      6  C   UNL     1       4.544   4.555  17.965  0.00  0.00    +0.000 A 
ATOM      7  C   UNL     1       4.258   4.127  16.660  0.00  0.00    +0.000 A 
ATOM      8  C   UNL     1       5.133   4.396  15.601  0.00  0.00    +0.000 A 
ATOM      9  C   UNL     1       6.272   5.162  15.820  0.00  0.00    +0.000 A 
ATOM     10 CL   UNL     1       7.353   5.492  14.525  0.00  0.00    +0.000 Cl
ATOM     11  C   UNL     1       6.552   5.644  17.092  0.00  0.00    +0.000 A 
ATOM     12  C   UNL     1       5.715   5.307  18.160  0.00  0.00    +0.000 A 
ENDBRANCH   5   6
BRANCH   1  16
ATOM     13  C   UNL     1       1.557   8.961  19.083  0.00  0.00    +0.000 A 
ATOM     14  C   UNL     1       2.155   8.222  18.059  0.00  0.00    +0.000 A 
ATOM     15  C   UNL     1       2.647   6.936  18.329  0.00  0.00    +0.000 A 
ATOM     16  C   UNL     1       2.506   6.392  19.619  0.00  0.00    +0.000 A 
ATOM     17  C   UNL     1       1.969   7.170  20.651  0.00  0.00    +0.000 A 
ATOM     18  C   UNL     1       1.488   8.451  20.383  0.00  0.00    +0.000 A 
BRANCH  13  19
ATOM     19  S   UNL     1       0.947  10.597  18.771  0.00  0.00    +0.000 S 
ATOM     20  O   UNL     1       1.976  11.361  18.104  0.00  0.00    +0.000 OA
ATOM     21  O   UNL     1       0.258  11.073  19.945  0.00  0.00    +0.000 OA
BRANCH  19  22
ATOM     22  N   UNL     1      -0.252  10.323  17.622  0.00  0.00    +0.000 NA
ATOM     23  H   UNL     1      -0.345  11.153  17.032  0.00  0.00    +0.000 HD
ATOM     24  H   UNL     1      -1.124  10.068  18.087  0.00  0.00    +0.000 HD
ENDBRANCH  19  22
ENDBRANCH  13  19
ENDBRANCH   1  16
BRANCH   4  25
ATOM     25  C   UNL     1       4.189   1.679  19.537  0.00  0.00    +0.000 C 
ATOM     26  O   UNL     1       3.829   0.855  18.702  0.00  0.00    +0.000 OA
BRANCH  25  27
ATOM     27  O   UNL     1       5.248   1.433  20.355  0.00  0.00    +0.000 OA
ATOM     28  H   UNL     1       5.058   1.748  21.262  0.00  0.00    +0.000 HD
ENDBRANCH  25  27
ENDBRANCH   4  25
TORSDOF 6
ENDMDL
MODEL 4
REMARK VINA RESULT:      -7.5      0.268      1.391
REMARK  Name = 
REMARK  6 active torsions:
REMARK  status: ('A' for Active; 'I' for Inactive)
REMARK    1  A    between atoms: N_1  and  S_2
REMARK    2  A    between atoms: S_2  and  C_5
REMARK    3  A    between atoms: C_8  and  N_9
REMARK    4  A    between atoms: C_12  and  C_13
REMARK    5  A    between atoms: C_13  and  O_15
REMARK    6  A    between atoms: C_16  and  C_17
REMARK                            x       y       z     vdW  Elec       q    Type
REMARK                         _______ _______ _______ _____ _____    ______ ____
ROOT
ATOM      1  N   UNL     1       3.139   4.741  19.850  0.00  0.00    +0.000 N 
ATOM      2  N   UNL     1       2.651   4.150  20.966  0.00  0.00    +0.000 NA
ATOM      3  N   UNL     1       2.994   2.876  20.953  0.00  0.00    +0.000 NA
ATOM      4  C   UNL     1       3.855   2.676  19.902  0.00  0.00    +0.000 A 
ATOM      5  C   UNL     1       3.982   3.855  19.162  0.00  0.00    +0.000 A 
ENDROOT
BRANCH   5   6
ATOM      6  C   UNL     1       4.867   4.182  18.029  0.00  0.00    +0.000 A 
ATOM      7  C   UNL     1       6.098   4.821  18.233  0.00  0.00    +0.000 A 
ATOM      8  C   UNL     1       6.893   5.226  17.153  0.00  0.00    +0.000 A 
ATOM      9  C   UNL     1       6.498   4.930  15.853  0.00  0.00    +0.000 A 
ATOM     10 CL   UNL     1       7.466   5.428  14.523  0.00  0.00    +0.000 Cl
ATOM     11  C   UNL     1       5.309   4.251  15.625  0.00  0.00    +0.000 A 
ATOM     12  C   UNL     1       4.484   3.917  16.703  0.00  0.00    +0.000 A 
ENDBRANCH   5   6
BRANCH   1  16
ATOM     13  C   UNL     1       1.827   8.613  18.863  0.00  0.00    +0.000 A 
ATOM     14  C   UNL     1       2.461   7.832  17.892  0.00  0.00    +0.000 A 
ATOM     15  C   UNL     1       2.956   6.566  18.239  0.00  0.00    +0.000 A 
ATOM     16  C   UNL     1       2.783   6.082  19.549  0.00  0.00    +0.000 A 
ATOM     17  C   UNL     1       2.210   6.903  20.526  0.00  0.00    +0.000 A 
ATOM     18  C   UNL     1       1.726   8.165  20.183  0.00  0.00    +0.000 A 
BRANCH  13  19
ATOM     19  S   UNL     1       1.212  10.226  18.455  0.00  0.00    +0.000 S 
ATOM     20  O   UNL     1       2.121  10.852  17.523  0.00  0.00    +0.000 OA
ATOM     21  O   UNL     1       0.759  10.874  19.661  0.00  0.00    +0.000 OA
BRANCH  19  22
ATOM     22  N   UNL     1      -0.183   9.870  17.581  0.00  0.00    +0.000 NA
ATOM     23  H   UNL     1      -0.288   8.856  17.518  0.00  0.00    +0.000 HD
ATOM     24  H   UNL     1      -0.140  10.322  16.666  0.00  0.00    +0.000 HD
ENDBRANCH  19  22
ENDBRANCH  13  19
ENDBRANCH   1  16
BRANCH   4  25
ATOM     25  C   UNL     1       4.503   1.385  19.737  0.00  0.00    +0.000 C 
ATOM     26  O   UNL     1       5.323   0.898  20.507  0.00  0.00    +0.000 OA
BRANCH  25  27
ATOM     27  O   UNL     1       4.131   0.733  18.601  0.00  0.00    +0.000 OA
ATOM     28  H   UNL     1       3.312   0.220  18.755  0.00  0.00    +0.000 HD
ENDBRANCH  25  27
ENDBRANCH   4  25
TORSDOF 6
ENDMDL
MODEL 5
REMARK VINA RESULT:      -7.5      1.725      2.296
REMARK  Name = 
REMARK  6 active torsions:
REMARK  status: ('A' for Active; 'I' for Inactive)
REMARK    1  A    between atoms: N_1  and  S_2
REMARK    2  A    between atoms: S_2  and  C_5
REMARK    3  A    between atoms: C_8  and  N_9
REMARK    4  A    between atoms: C_12  and  C_13
REMARK    5  A    between atoms: C_13  and  O_15
REMARK    6  A    between atoms: C_16  and  C_17
REMARK                            x       y       z     vdW  Elec       q    Type
REMARK                         _______ _______ _______ _____ _____    ______ ____
ROOT
ATOM      1  N   UNL     1       2.291   5.408  19.799  0.00  0.00    +0.000 N 
ATOM      2  N   UNL     1       1.483   4.499  20.394  0.00  0.00    +0.000 NA
ATOM      3  N   UNL     1       1.895   3.289  20.066  0.00  0.00    +0.000 NA
ATOM      4  C   UNL     1       3.082   3.412  19.388  0.00  0.00    +0.000 A 
ATOM      5  C   UNL     1       3.380   4.763  19.194  0.00  0.00    +0.000 A 
ENDROOT
BRANCH   5   6
ATOM      6  C   UNL     1       4.583   5.407  18.633  0.00  0.00    +0.000 A 
ATOM      7  C   UNL     1       5.811   5.360  19.309  0.00  0.00    +0.000 A 
ATOM      8  C   UNL     1       6.928   6.056  18.832  0.00  0.00    +0.000 A 
ATOM      9  C   UNL     1       6.851   6.751  17.631  0.00  0.00    +0.000 A 
ATOM     10 CL   UNL     1       8.217   7.612  17.042  0.00  0.00    +0.000 Cl
ATOM     11  C   UNL     1       5.662   6.771  16.914  0.00  0.00    +0.000 A 
ATOM     12  C   UNL     1       4.529   6.137  17.434  0.00  0.00    +0.000 A 
ENDBRANCH   5   6
BRANCH   1  16
ATOM     13  C   UNL     1       1.079   9.433  19.922  0.00  0.00    +0.000 A 
ATOM     14  C   UNL     1       1.599   8.906  18.736  0.00  0.00    +0.000 A 
ATOM     15  C   UNL     1       2.064   7.582  18.713  0.00  0.00    +0.000 A 
ATOM     16  C   UNL     1       1.972   6.790  19.872  0.00  0.00    +0.000 A 
ATOM     17  C   UNL     1       1.514   7.352  21.069  0.00  0.00    +0.000 A 
ATOM     18  C   UNL     1       1.061   8.671  21.093  0.00  0.00    +0.000 A 
BRANCH  13  19
ATOM     19  S   UNL     1       0.506  11.110  19.982  0.00  0.00    +0.000 S 
ATOM     20  O   UNL     1       1.191  11.801  21.050  0.00  0.00    +0.000 OA
ATOM     21  O   UNL     1      -0.929  11.121  19.837  0.00  0.00    +0.000 OA
BRANCH  19  22
ATOM     22  N   UNL     1       1.111  11.752  18.548  0.00  0.00    +0.000 NA
ATOM     23  H   UNL     1       1.516  10.998  17.990  0.00  0.00    +0.000 HD
ATOM     24  H   UNL     1       1.781  12.493  18.758  0.00  0.00    +0.000 HD
ENDBRANCH  19  22
ENDBRANCH  13  19
ENDBRANCH   1  16
BRANCH   4  25
ATOM     25  C   UNL     1       3.834   2.220  19.030  0.00  0.00    +0.000 C 
ATOM     26  O   UNL     1       3.526   1.423  18.150  0.00  0.00    +0.000 OA
BRANCH  25  27
ATOM     27  O   UNL     1       4.947   2.032  19.791  0.00  0.00    +0.000 OA
ATOM     28  H   UNL     1       5.662   1.630  19.256  0.00  0.00    +0.000 HD
ENDBRANCH  25  27
ENDBRANCH   4  25
TORSDOF 6
ENDMDL
MODEL 6
REMARK VINA RESULT:      -7.2      1.579      1.866
REMARK  Name = 
REMARK  6 active torsions:
REMARK  status: ('A' for Active; 'I' for Inactive)
REMARK    1  A    between atoms: N_1  and  S_2
REMARK    2  A    between atoms: S_2  and  C_5
REMARK    3  A    between atoms: C_8  and  N_9
REMARK    4  A    between atoms: C_12  and  C_13
REMARK    5  A    between atoms: C_13  and  O_15
REMARK    6  A    between atoms: C_16  and  C_17
REMARK                            x       y       z     vdW  Elec       q    Type
REMARK                         _______ _______ _______ _____ _____    ______ ____
ROOT
ATOM      1  N   UNL     1       2.399   5.315  19.829  0.00  0.00    +0.000 N 
ATOM      2  N   UNL     1       1.649   4.432  20.529  0.00  0.00    +0.000 NA
ATOM      3  N   UNL     1       2.194   3.235  20.420  0.00  0.00    +0.000 NA
ATOM      4  C   UNL     1       3.402   3.373  19.783  0.00  0.00    +0.000 A 
ATOM      5  C   UNL     1       3.579   4.700  19.385  0.00  0.00    +0.000 A 
ENDROOT
BRANCH   5   6
ATOM      6  C   UNL     1       4.747   5.369  18.779  0.00  0.00    +0.000 A 
ATOM      7  C   UNL     1       6.007   5.319  19.391  0.00  0.00    +0.000 A 
ATOM      8  C   UNL     1       7.092   6.039  18.874  0.00  0.00    +0.000 A 
ATOM      9  C   UNL     1       6.947   6.761  17.696  0.00  0.00    +0.000 A 
ATOM     10 CL   UNL     1       8.273   7.650  17.060  0.00  0.00    +0.000 Cl
ATOM     11  C   UNL     1       5.723   6.785  17.041  0.00  0.00    +0.000 A 
ATOM     12  C   UNL     1       4.625   6.127  17.602  0.00  0.00    +0.000 A 
ENDBRANCH   5   6
BRANCH   1  16
ATOM     13  C   UNL     1       1.326   9.359  19.408  0.00  0.00    +0.000 A 
ATOM     14  C   UNL     1       1.219   8.744  20.659  0.00  0.00    +0.000 A 
ATOM     15  C   UNL     1       1.515   7.379  20.786  0.00  0.00    +0.000 A 
ATOM     16  C   UNL     1       1.946   6.650  19.663  0.00  0.00    +0.000 A 
ATOM     17  C   UNL     1       1.981   7.262  18.405  0.00  0.00    +0.000 A 
ATOM     18  C   UNL     1       1.678   8.617  18.278  0.00  0.00    +0.000 A 
BRANCH  13  19
ATOM     19  S   UNL     1       0.936  11.079  19.217  0.00  0.00    +0.000 S 
ATOM     20  O   UNL     1       1.285  11.775  20.434  0.00  0.00    +0.000 OA
ATOM     21  O   UNL     1      -0.356  11.200  18.590  0.00  0.00    +0.000 OA
BRANCH  19  22
ATOM     22  N   UNL     1       2.051  11.576  18.058  0.00  0.00    +0.000 NA
ATOM     23  H   UNL     1       1.608  11.556  17.138  0.00  0.00    +0.000 HD
ATOM     24  H   UNL     1       2.886  10.990  18.109  0.00  0.00    +0.000 HD
ENDBRANCH  19  22
ENDBRANCH  13  19
ENDBRANCH   1  16
BRANCH   4  25
ATOM     25  C   UNL     1       4.284   2.225  19.656  0.00  0.00    +0.000 C 
ATOM     26  O   UNL     1       5.114   1.870  20.487  0.00  0.00    +0.000 OA
BRANCH  25  27
ATOM     27  O   UNL     1       4.132   1.550  18.483  0.00  0.00    +0.000 OA
ATOM     28  H   UNL     1       3.490   0.819  18.592  0.00  0.00    +0.000 HD
ENDBRANCH  25  27
ENDBRANCH   4  25
TORSDOF 6
ENDMDL
MODEL 7
REMARK VINA RESULT:      -7.2      1.520      1.899
REMARK  Name = 
REMARK  6 active torsions:
REMARK  status: ('A' for Active; 'I' for Inactive)
REMARK    1  A    between atoms: N_1  and  S_2
REMARK    2  A    between atoms: S_2  and  C_5
REMARK    3  A    between atoms: C_8  and  N_9
REMARK    4  A    between atoms: C_12  and  C_13
REMARK    5  A    between atoms: C_13  and  O_15
REMARK    6  A    between atoms: C_16  and  C_17
REMARK                            x       y       z     vdW  Elec       q    Type
REMARK                         _______ _______ _______ _____ _____    ______ ____
ROOT
ATOM      1  N   UNL     1       2.196   5.212  19.764  0.00  0.00    +0.000 N 
ATOM      2  N   UNL     1       1.425   4.285  20.381  0.00  0.00    +0.000 NA
ATOM      3  N   UNL     1       1.905   3.087  20.105  0.00  0.00    +0.000 NA
ATOM      4  C   UNL     1       3.096   3.246  19.442  0.00  0.00    +0.000 A 
ATOM      5  C   UNL     1       3.328   4.602  19.202  0.00  0.00    +0.000 A 
ENDROOT
BRANCH   5   6
ATOM      6  C   UNL     1       4.506   5.286  18.636  0.00  0.00    +0.000 A 
ATOM      7  C   UNL     1       5.735   5.290  19.312  0.00  0.00    +0.000 A 
ATOM      8  C   UNL     1       6.825   6.024  18.829  0.00  0.00    +0.000 A 
ATOM      9  C   UNL     1       6.722   6.707  17.623  0.00  0.00    +0.000 A 
ATOM     10 CL   UNL     1       8.055   7.614  17.028  0.00  0.00    +0.000 Cl
ATOM     11  C   UNL     1       5.533   6.677  16.907  0.00  0.00    +0.000 A 
ATOM     12  C   UNL     1       4.425   6.006  17.431  0.00  0.00    +0.000 A 
ENDBRANCH   5   6
BRANCH   1  16
ATOM     13  C   UNL     1       1.310   9.321  19.900  0.00  0.00    +0.000 A 
ATOM     14  C   UNL     1       1.131   8.539  21.045  0.00  0.00    +0.000 A 
ATOM     15  C   UNL     1       1.365   7.157  20.982  0.00  0.00    +0.000 A 
ATOM     16  C   UNL     1       1.806   6.577  19.779  0.00  0.00    +0.000 A 
ATOM     17  C   UNL     1       1.913   7.360  18.624  0.00  0.00    +0.000 A 
ATOM     18  C   UNL     1       1.672   8.733  18.686  0.00  0.00    +0.000 A 
BRANCH  13  19
ATOM     19  S   UNL     1       1.000  11.066  19.949  0.00  0.00    +0.000 S 
ATOM     20  O   UNL     1       1.591  11.679  18.781  0.00  0.00    +0.000 OA
ATOM     21  O   UNL     1       1.235  11.547  21.288  0.00  0.00    +0.000 OA
BRANCH  19  22
ATOM     22  N   UNL     1      -0.666  11.145  19.725  0.00  0.00    +0.000 NA
ATOM     23  H   UNL     1      -1.133  10.857  20.587  0.00  0.00    +0.000 HD
ATOM     24  H   UNL     1      -0.933  10.575  18.920  0.00  0.00    +0.000 HD
ENDBRANCH  19  22
ENDBRANCH  13  19
ENDBRANCH   1  16
BRANCH   4  25
ATOM     25  C   UNL     1       3.914   2.082  19.142  0.00  0.00    +0.000 C 
ATOM     26  O   UNL     1       3.676   1.251  18.272  0.00  0.00    +0.000 OA
BRANCH  25  27
ATOM     27  O   UNL     1       5.006   1.964  19.947  0.00  0.00    +0.000 OA
ATOM     28  H   UNL     1       5.138   2.785  20.464  0.00  0.00    +0.000 HD
ENDBRANCH  25  27
ENDBRANCH   4  25
TORSDOF 6
ENDMDL
MODEL 8
REMARK VINA RESULT:      -7.1      1.318      1.762
REMARK  Name = 
REMARK  6 active torsions:
REMARK  status: ('A' for Active; 'I' for Inactive)
REMARK    1  A    between atoms: N_1  and  S_2
REMARK    2  A    between atoms: S_2  and  C_5
REMARK    3  A    between atoms: C_8  and  N_9
REMARK    4  A    between atoms: C_12  and  C_13
REMARK    5  A    between atoms: C_13  and  O_15
REMARK    6  A    between atoms: C_16  and  C_17
REMARK                            x       y       z     vdW  Elec       q    Type
REMARK                         _______ _______ _______ _____ _____    ______ ____
ROOT
ATOM      1  N   UNL     1       2.088   5.603  19.848  0.00  0.00    +0.000 N 
ATOM      2  N   UNL     1       1.335   4.961  20.772  0.00  0.00    +0.000 NA
ATOM      3  N   UNL     1       1.520   3.661  20.639  0.00  0.00    +0.000 NA
ATOM      4  C   UNL     1       2.530   3.466  19.731  0.00  0.00    +0.000 A 
ATOM      5  C   UNL     1       2.931   4.692  19.195  0.00  0.00    +0.000 A 
ENDROOT
BRANCH   5   6
ATOM      6  C   UNL     1       4.044   5.019  18.284  0.00  0.00    +0.000 A 
ATOM      7  C   UNL     1       3.975   4.713  16.917  0.00  0.00    +0.000 A 
ATOM      8  C   UNL     1       5.069   4.929  16.070  0.00  0.00    +0.000 A 
ATOM      9  C   UNL     1       6.224   5.521  16.566  0.00  0.00    +0.000 A 
ATOM     10 CL   UNL     1       7.572   5.784  15.533  0.00  0.00    +0.000 Cl
ATOM     11  C   UNL     1       6.300   5.883  17.904  0.00  0.00    +0.000 A 
ATOM     12  C   UNL     1       5.234   5.596  18.761  0.00  0.00    +0.000 A 
ENDBRANCH   5   6
BRANCH   1  16
ATOM     13  C   UNL     1       1.426   9.713  19.254  0.00  0.00    +0.000 A 
ATOM     14  C   UNL     1       1.928   8.937  18.205  0.00  0.00    +0.000 A 
ATOM     15  C   UNL     1       2.210   7.580  18.422  0.00  0.00    +0.000 A 
ATOM     16  C   UNL     1       1.956   7.007  19.681  0.00  0.00    +0.000 A 
ATOM     17  C   UNL     1       1.520   7.811  20.740  0.00  0.00    +0.000 A 
ATOM     18  C   UNL     1       1.248   9.162  20.525  0.00  0.00    +0.000 A 
BRANCH  13  19
ATOM     19  S   UNL     1       1.083  11.436  19.010  0.00  0.00    +0.000 S 
ATOM     20  O   UNL     1       1.518  12.170  20.177  0.00  0.00    +0.000 OA
ATOM     21  O   UNL     1      -0.237  11.576  18.446  0.00  0.00    +0.000 OA
BRANCH  19  22
ATOM     22  N   UNL     1       2.150  11.847  17.775  0.00  0.00    +0.000 NA
ATOM     23  H   UNL     1       1.899  12.768  17.409  0.00  0.00    +0.000 HD
ATOM     24  H   UNL     1       2.143  11.121  17.057  0.00  0.00    +0.000 HD
ENDBRANCH  19  22
ENDBRANCH  13  19
ENDBRANCH   1  16
BRANCH   4  25
ATOM     25  C   UNL     1       3.040   2.124  19.499  0.00  0.00    +0.000 C 
ATOM     26  O   UNL     1       4.176   1.740  19.758  0.00  0.00    +0.000 OA
BRANCH  25  27
ATOM     27  O   UNL     1       2.129   1.289  18.927  0.00  0.00    +0.000 OA
ATOM     28  H   UNL     1       2.415   0.357  19.019  0.00  0.00    +0.000 HD
ENDBRANCH  25  27
ENDBRANCH   4  25
TORSDOF 6
ENDMDL
MODEL 9
REMARK VINA RESULT:      -7.0      3.155      4.170
REMARK  Name = 
REMARK  6 active torsions:
REMARK  status: ('A' for Active; 'I' for Inactive)
REMARK    1  A    between atoms: N_1  and  S_2
REMARK    2  A    between atoms: S_2  and  C_5
REMARK    3  A    between atoms: C_8  and  N_9
REMARK    4  A    between atoms: C_12  and  C_13
REMARK    5  A    between atoms: C_13  and  O_15
REMARK    6  A    between atoms: C_16  and  C_17
REMARK                            x       y       z     vdW  Elec       q    Type
REMARK                         _______ _______ _______ _____ _____    ______ ____
ROOT
ATOM      1  N   UNL     1       4.248   6.858  17.519  0.00  0.00    +0.000 N 
ATOM      2  N   UNL     1       5.089   7.589  16.750  0.00  0.00    +0.000 NA
ATOM      3  N   UNL     1       6.084   6.816  16.360  0.00  0.00    +0.000 NA
ATOM      4  C   UNL     1       5.799   5.528  16.741  0.00  0.00    +0.000 A 
ATOM      5  C   UNL     1       4.620   5.505  17.490  0.00  0.00    +0.000 A 
ENDROOT
BRANCH   5   6
ATOM      6  C   UNL     1       3.843   4.367  18.018  0.00  0.00    +0.000 A 
ATOM      7  C   UNL     1       2.622   3.993  17.437  0.00  0.00    +0.000 A 
ATOM      8  C   UNL     1       1.834   2.981  17.998  0.00  0.00    +0.000 A 
ATOM      9  C   UNL     1       2.291   2.280  19.107  0.00  0.00    +0.000 A 
ATOM     10 CL   UNL     1       1.325   1.040  19.803  0.00  0.00    +0.000 Cl
ATOM     11  C   UNL     1       3.521   2.594  19.670  0.00  0.00    +0.000 A 
ATOM     12  C   UNL     1       4.268   3.656  19.152  0.00  0.00    +0.000 A 
ENDBRANCH   5   6
BRANCH   1  16
ATOM     13  C   UNL     1       1.253   8.908  19.644  0.00  0.00    +0.000 A 
ATOM     14  C   UNL     1       1.831   7.763  20.200  0.00  0.00    +0.000 A 
ATOM     15  C   UNL     1       2.784   7.042  19.463  0.00  0.00    +0.000 A 
ATOM     16  C   UNL     1       3.170   7.495  18.189  0.00  0.00    +0.000 A 
ATOM     17  C   UNL     1       2.532   8.602  17.618  0.00  0.00    +0.000 A 
ATOM     18  C   UNL     1       1.579   9.313  18.347  0.00  0.00    +0.000 A 
BRANCH  13  19
ATOM     19  S   UNL     1       0.031   9.823  20.546  0.00  0.00    +0.000 S 
ATOM     20  O   UNL     1      -0.513   8.980  21.586  0.00  0.00    +0.000 OA
ATOM     21  O   UNL     1      -0.796  10.547  19.613  0.00  0.00    +0.000 OA
BRANCH  19  22
ATOM     22  N   UNL     1       0.958  10.990  21.329  0.00  0.00    +0.000 NA
ATOM     23  H   UNL     1       0.464  11.303  22.166  0.00  0.00    +0.000 HD
ATOM     24  H   UNL     1       1.168  11.754  20.684  0.00  0.00    +0.000 HD
ENDBRANCH  19  22
ENDBRANCH  13  19
ENDBRANCH   1  16
BRANCH   4  25
ATOM     25  C   UNL     1       6.664   4.441  16.312  0.00  0.00    +0.000 C 
ATOM     26  O   UNL     1       7.886   4.424  16.411  0.00  0.00    +0.000 OA
BRANCH  25  27
ATOM     27  O   UNL     1       5.990   3.402  15.747  0.00  0.00    +0.000 OA
ATOM     28  H   UNL     1       5.384   3.728  15.050  0.00  0.00    +0.000 HD
ENDBRANCH  25  27
ENDBRANCH   4  25
TORSDOF 6
ENDMDL
