MODEL 1
REMARK VINA RESULT:      -7.9      0.000      0.000
REMARK  Name = 
REMARK  12 active torsions:
REMARK  status: ('A' for Active; 'I' for Inactive)
REMARK    1  A    between atoms: C_1  and  N_2
REMARK    2  A    between atoms: N_2  and  C_3
REMARK    3  A    between atoms: N_2  and  C_27
REMARK    4  A    between atoms: C_3  and  C_4
REMARK    5  A    between atoms: C_4  and  C_5
REMARK    6  A    between atoms: C_5  and  N_6
REMARK    7  A    between atoms: C_7  and  C_9
REMARK    8  A    between atoms: N_11  and  C_12
REMARK    9  A    between atoms: C_16  and  S_17
REMARK   10  A    between atoms: S_17  and  N_20
REMARK   11  A    between atoms: N_20  and  C_21
REMARK   12  A    between atoms: N_20  and  C_22
REMARK                            x       y       z     vdW  Elec       q    Type
REMARK                         _______ _______ _______ _____ _____    ______ ____
ROOT
ATOM      1  C   UNL     1      -1.302  10.588  18.434  0.00  0.00    +0.000 A 
ATOM      2  C   UNL     1      -1.785  10.267  17.220  0.00  0.00    +0.000 A 
ATOM      3  N   UNL     1      -3.001  10.664  16.684  0.00  0.00    +0.000 N 
ATOM      4  C   UNL     1      -3.428  10.239  15.349  0.00  0.00    +0.000 C 
ATOM      5  C   UNL     1      -3.885  11.434  17.472  0.00  0.00    +0.000 A 
ATOM      6  C   UNL     1      -5.170  11.816  17.050  0.00  0.00    +0.000 A 
ATOM      7  C   UNL     1      -6.021  12.554  17.883  0.00  0.00    +0.000 A 
ATOM      8  C   UNL     1      -5.583  12.950  19.149  0.00  0.00    +0.000 A 
ATOM      9  C   UNL     1      -4.322  12.588  19.603  0.00  0.00    +0.000 A 
ATOM     10  C   UNL     1      -3.486  11.840  18.765  0.00  0.00    +0.000 A 
ATOM     11  C   UNL     1      -2.149  11.464  19.274  0.00  0.00    +0.000 A 
ATOM     12  O   UNL     1      -1.770  11.869  20.371  0.00  0.00    +0.000 OA
ENDROOT
BRANCH   1  14
ATOM     13  N   UNL     1       0.873   9.757  17.815  0.00  0.00    +0.000 N 
ATOM     14  C   UNL     1       0.025  10.056  18.850  0.00  0.00    +0.000 C 
ATOM     15  O   UNL     1       0.321   9.903  20.032  0.00  0.00    +0.000 OA
ATOM     16  H   UNL     1       0.569   9.984  16.866  0.00  0.00    +0.000 HD
BRANCH  13  17
ATOM     17  C   UNL     1       2.215   9.254  18.003  0.00  0.00    +0.000 C 
BRANCH  17  18
ATOM     18  C   UNL     1       2.248   7.740  17.836  0.00  0.00    +0.000 C 
BRANCH  18  19
ATOM     19  C   UNL     1       3.686   7.229  17.752  0.00  0.00    +0.000 C 
BRANCH  19  21
ATOM     20  C   UNL     1       4.471   5.037  16.814  0.00  0.00    +0.000 C 
ATOM     21  N   UNL     1       3.740   5.766  17.843  0.00  0.00    +0.000 N 
BRANCH  21  22
ATOM     22  C   UNL     1       2.849   5.083  18.667  0.00  0.00    +0.000 A 
ATOM     23  C   UNL     1       2.866   5.262  20.059  0.00  0.00    +0.000 A 
ATOM     24  C   UNL     1       2.009   4.547  20.906  0.00  0.00    +0.000 A 
ATOM     25  C   UNL     1       1.095   3.644  20.375  0.00  0.00    +0.000 A 
ATOM     26  C   UNL     1       1.039   3.462  18.999  0.00  0.00    +0.000 A 
ATOM     27  C   UNL     1       1.911   4.170  18.162  0.00  0.00    +0.000 A 
ENDBRANCH  21  22
ENDBRANCH  19  21
ENDBRANCH  18  19
ENDBRANCH  17  18
ENDBRANCH  13  17
ENDBRANCH   1  14
BRANCH   8  28
ATOM     28  S   UNL     1      -6.663  13.883  20.216  0.00  0.00    +0.000 S 
ATOM     29  O   UNL     1      -6.631  15.256  19.749  0.00  0.00    +0.000 OA
ATOM     30  O   UNL     1      -7.909  13.156  20.322  0.00  0.00    +0.000 OA
BRANCH  28  31
ATOM     31  N   UNL     1      -5.857  13.811  21.713  0.00  0.00    +0.000 NA
ATOM     32  C   UNL     1      -5.359  15.084  22.263  0.00  0.00    +0.000 C 
ATOM     33  C   UNL     1      -6.453  12.929  22.733  0.00  0.00    +0.000 C 
ENDBRANCH  28  31
ENDBRANCH   8  28
TORSDOF 8
ENDMDL
MODEL 2
REMARK VINA RESULT:      -7.9      1.072      1.336
REMARK  Name = 
REMARK  12 active torsions:
REMARK  status: ('A' for Active; 'I' for Inactive)
REMARK    1  A    between atoms: C_1  and  N_2
REMARK    2  A    between atoms: N_2  and  C_3
REMARK    3  A    between atoms: N_2  and  C_27
REMARK    4  A    between atoms: C_3  and  C_4
REMARK    5  A    between atoms: C_4  and  C_5
REMARK    6  A    between atoms: C_5  and  N_6
REMARK    7  A    between atoms: C_7  and  C_9
REMARK    8  A    between atoms: N_11  and  C_12
REMARK    9  A    between atoms: C_16  and  S_17
REMARK   10  A    between atoms: S_17  and  N_20
REMARK   11  A    between atoms: N_20  and  C_21
REMARK   12  A    between atoms: N_20  and  C_22
REMARK                            x       y       z     vdW  Elec       q    Type
REMARK                         _______ _______ _______ _____ _____    ______ ____
ROOT
ATOM      1  C   UNL     1      -1.090  10.568  18.323  0.00  0.00    +0.000 A 
ATOM      2  C   UNL     1      -1.577  10.166  17.135  0.00  0.00    +0.000 A 
ATOM      3  N   UNL     1      -2.827  10.462  16.613  0.00  0.00    +0.000 N 
ATOM      4  C   UNL     1      -3.254   9.954  15.308  0.00  0.00    +0.000 C 
ATOM      5  C   UNL     1      -3.742  11.207  17.390  0.00  0.00    +0.000 A 
ATOM      6  C   UNL     1      -5.058  11.488  16.984  0.00  0.00    +0.000 A 
ATOM      7  C   UNL     1      -5.937  12.205  17.807  0.00  0.00    +0.000 A 
ATOM      8  C   UNL     1      -5.498  12.681  19.044  0.00  0.00    +0.000 A 
ATOM      9  C   UNL     1      -4.207  12.420  19.481  0.00  0.00    +0.000 A 
ATOM     10  C   UNL     1      -3.342  11.692  18.655  0.00  0.00    +0.000 A 
ATOM     11  C   UNL     1      -1.973  11.423  19.147  0.00  0.00    +0.000 A 
ATOM     12  O   UNL     1      -1.598  11.898  20.217  0.00  0.00    +0.000 OA
ENDROOT
BRANCH   1  14
ATOM     13  N   UNL     1       0.989   9.492  17.752  0.00  0.00    +0.000 N 
ATOM     14  C   UNL     1       0.277  10.140  18.728  0.00  0.00    +0.000 C 
ATOM     15  O   UNL     1       0.719  10.358  19.854  0.00  0.00    +0.000 OA
ATOM     16  H   UNL     1       0.570   9.420  16.822  0.00  0.00    +0.000 HD
BRANCH  13  17
ATOM     17  C   UNL     1       2.343   9.020  17.932  0.00  0.00    +0.000 C 
BRANCH  17  18
ATOM     18  C   UNL     1       2.346   7.629  18.556  0.00  0.00    +0.000 C 
BRANCH  18  19
ATOM     19  C   UNL     1       3.441   6.756  17.945  0.00  0.00    +0.000 C 
BRANCH  19  21
ATOM     20  C   UNL     1       5.121   5.361  19.183  0.00  0.00    +0.000 C 
ATOM     21  N   UNL     1       3.736   5.596  18.793  0.00  0.00    +0.000 N 
BRANCH  21  22
ATOM     22  C   UNL     1       2.801   4.574  18.930  0.00  0.00    +0.000 A 
ATOM     23  C   UNL     1       1.915   4.542  20.019  0.00  0.00    +0.000 A 
ATOM     24  C   UNL     1       1.001   3.495  20.196  0.00  0.00    +0.000 A 
ATOM     25  C   UNL     1       0.936   2.460  19.272  0.00  0.00    +0.000 A 
ATOM     26  C   UNL     1       1.783   2.476  18.172  0.00  0.00    +0.000 A 
ATOM     27  C   UNL     1       2.705   3.517  18.011  0.00  0.00    +0.000 A 
ENDBRANCH  21  22
ENDBRANCH  19  21
ENDBRANCH  18  19
ENDBRANCH  17  18
ENDBRANCH  13  17
ENDBRANCH   1  14
BRANCH   8  28
ATOM     28  S   UNL     1      -6.613  13.588  20.097  0.00  0.00    +0.000 S 
ATOM     29  O   UNL     1      -7.911  13.571  19.449  0.00  0.00    +0.000 OA
ATOM     30  O   UNL     1      -6.442  13.094  21.445  0.00  0.00    +0.000 OA
BRANCH  28  31
ATOM     31  N   UNL     1      -5.997  15.172  20.012  0.00  0.00    +0.000 NA
ATOM     32  C   UNL     1      -6.523  16.036  18.940  0.00  0.00    +0.000 C 
ATOM     33  C   UNL     1      -5.827  15.876  21.296  0.00  0.00    +0.000 C 
ENDBRANCH  28  31
ENDBRANCH   8  28
TORSDOF 8
ENDMDL
MODEL 3
REMARK VINA RESULT:      -7.9      2.382      3.699
REMARK  Name = 
REMARK  12 active torsions:
REMARK  status: ('A' for Active; 'I' for Inactive)
REMARK    1  A    between atoms: C_1  and  N_2
REMARK    2  A    between atoms: N_2  and  C_3
REMARK    3  A    between atoms: N_2  and  C_27
REMARK    4  A    between atoms: C_3  and  C_4
REMARK    5  A    between atoms: C_4  and  C_5
REMARK    6  A    between atoms: C_5  and  N_6
REMARK    7  A    between atoms: C_7  and  C_9
REMARK    8  A    between atoms: N_11  and  C_12
REMARK    9  A    between atoms: C_16  and  S_17
REMARK   10  A    between atoms: S_17  and  N_20
REMARK   11  A    between atoms: N_20  and  C_21
REMARK   12  A    between atoms: N_20  and  C_22
REMARK                            x       y       z     vdW  Elec       q    Type
REMARK                         _______ _______ _______ _____ _____    ______ ____
ROOT
ATOM      1  C   UNL     1       0.184  10.209  18.706  0.00  0.00    +0.000 A 
ATOM      2  C   UNL     1      -0.741  10.405  17.749  0.00  0.00    +0.000 A 
ATOM      3  N   UNL     1      -1.935  11.096  17.886  0.00  0.00    +0.000 N 
ATOM      4  C   UNL     1      -2.875  11.233  16.771  0.00  0.00    +0.000 C 
ATOM      5  C   UNL     1      -2.292  11.617  19.150  0.00  0.00    +0.000 A 
ATOM      6  C   UNL     1      -3.515  12.260  19.408  0.00  0.00    +0.000 A 
ATOM      7  C   UNL     1      -3.833  12.731  20.689  0.00  0.00    +0.000 A 
ATOM      8  C   UNL     1      -2.914  12.591  21.730  0.00  0.00    +0.000 A 
ATOM      9  C   UNL     1      -1.697  11.957  21.514  0.00  0.00    +0.000 A 
ATOM     10  C   UNL     1      -1.396  11.480  20.233  0.00  0.00    +0.000 A 
ATOM     11  C   UNL     1      -0.095  10.804  20.031  0.00  0.00    +0.000 A 
ATOM     12  O   UNL     1       0.716  10.740  20.953  0.00  0.00    +0.000 OA
ENDROOT
BRANCH   1  14
ATOM     13  N   UNL     1       1.655   8.371  19.223  0.00  0.00    +0.000 N 
ATOM     14  C   UNL     1       1.407   9.424  18.381  0.00  0.00    +0.000 C 
ATOM     15  O   UNL     1       2.128   9.710  17.428  0.00  0.00    +0.000 OA
ATOM     16  H   UNL     1       0.961   8.164  19.946  0.00  0.00    +0.000 HD
BRANCH  13  17
ATOM     17  C   UNL     1       2.774   7.470  19.067  0.00  0.00    +0.000 C 
BRANCH  17  18
ATOM     18  C   UNL     1       2.369   6.252  18.246  0.00  0.00    +0.000 C 
BRANCH  18  19
ATOM     19  C   UNL     1       3.256   5.051  18.573  0.00  0.00    +0.000 C 
BRANCH  19  21
ATOM     20  C   UNL     1       4.317   3.862  16.634  0.00  0.00    +0.000 C 
ATOM     21  N   UNL     1       4.367   4.932  17.622  0.00  0.00    +0.000 N 
BRANCH  21  22
ATOM     22  C   UNL     1       5.572   5.583  17.869  0.00  0.00    +0.000 A 
ATOM     23  C   UNL     1       6.433   5.153  18.892  0.00  0.00    +0.000 A 
ATOM     24  C   UNL     1       7.626   5.826  19.185  0.00  0.00    +0.000 A 
ATOM     25  C   UNL     1       7.999   6.941  18.443  0.00  0.00    +0.000 A 
ATOM     26  C   UNL     1       7.181   7.376  17.409  0.00  0.00    +0.000 A 
ATOM     27  C   UNL     1       5.982   6.707  17.135  0.00  0.00    +0.000 A 
ENDBRANCH  21  22
ENDBRANCH  19  21
ENDBRANCH  18  19
ENDBRANCH  17  18
ENDBRANCH  13  17
ENDBRANCH   1  14
BRANCH   8  28
ATOM     28  S   UNL     1      -3.316  13.182  23.362  0.00  0.00    +0.000 S 
ATOM     29  O   UNL     1      -3.802  12.041  24.114  0.00  0.00    +0.000 OA
ATOM     30  O   UNL     1      -2.196  13.967  23.832  0.00  0.00    +0.000 OA
BRANCH  28  31
ATOM     31  N   UNL     1      -4.629  14.223  23.066  0.00  0.00    +0.000 NA
ATOM     32  C   UNL     1      -5.931  13.832  23.634  0.00  0.00    +0.000 C 
ATOM     33  C   UNL     1      -4.355  15.667  23.178  0.00  0.00    +0.000 C 
ENDBRANCH  28  31
ENDBRANCH   8  28
TORSDOF 8
ENDMDL
MODEL 4
REMARK VINA RESULT:      -7.8      1.024      1.249
REMARK  Name = 
REMARK  12 active torsions:
REMARK  status: ('A' for Active; 'I' for Inactive)
REMARK    1  A    between atoms: C_1  and  N_2
REMARK    2  A    between atoms: N_2  and  C_3
REMARK    3  A    between atoms: N_2  and  C_27
REMARK    4  A    between atoms: C_3  and  C_4
REMARK    5  A    between atoms: C_4  and  C_5
REMARK    6  A    between atoms: C_5  and  N_6
REMARK    7  A    between atoms: C_7  and  C_9
REMARK    8  A    between atoms: N_11  and  C_12
REMARK    9  A    between atoms: C_16  and  S_17
REMARK   10  A    between atoms: S_17  and  N_20
REMARK   11  A    between atoms: N_20  and  C_21
REMARK   12  A    between atoms: N_20  and  C_22
REMARK                            x       y       z     vdW  Elec       q    Type
REMARK                         _______ _______ _______ _____ _____    ______ ____
ROOT
ATOM      1  C   UNL     1      -1.027  11.056  18.393  0.00  0.00    +0.000 A 
ATOM      2  C   UNL     1      -1.611  10.846  17.200  0.00  0.00    +0.000 A 
ATOM      3  N   UNL     1      -2.925  11.130  16.862  0.00  0.00    +0.000 N 
ATOM      4  C   UNL     1      -3.455  10.844  15.528  0.00  0.00    +0.000 C 
ATOM      5  C   UNL     1      -3.798  11.637  17.851  0.00  0.00    +0.000 A 
ATOM      6  C   UNL     1      -5.165  11.880  17.630  0.00  0.00    +0.000 A 
ATOM      7  C   UNL     1      -5.996  12.354  18.654  0.00  0.00    +0.000 A 
ATOM      8  C   UNL     1      -5.460  12.624  19.915  0.00  0.00    +0.000 A 
ATOM      9  C   UNL     1      -4.115  12.393  20.173  0.00  0.00    +0.000 A 
ATOM     10  C   UNL     1      -3.299  11.907  19.144  0.00  0.00    +0.000 A 
ATOM     11  C   UNL     1      -1.870  11.665  19.446  0.00  0.00    +0.000 A 
ATOM     12  O   UNL     1      -1.415  11.959  20.550  0.00  0.00    +0.000 OA
ENDROOT
BRANCH   1  14
ATOM     13  N   UNL     1       0.812   9.607  17.824  0.00  0.00    +0.000 N 
ATOM     14  C   UNL     1       0.400  10.674  18.580  0.00  0.00    +0.000 C 
ATOM     15  O   UNL     1       1.138  11.278  19.355  0.00  0.00    +0.000 OA
ATOM     16  H   UNL     1       0.150   9.212  17.152  0.00  0.00    +0.000 HD
BRANCH  13  17
ATOM     17  C   UNL     1       2.164   9.095  17.837  0.00  0.00    +0.000 C 
BRANCH  17  18
ATOM     18  C   UNL     1       2.184   7.652  18.326  0.00  0.00    +0.000 C 
BRANCH  18  19
ATOM     19  C   UNL     1       3.506   6.972  17.974  0.00  0.00    +0.000 C 
BRANCH  19  21
ATOM     20  C   UNL     1       5.151   5.457  19.115  0.00  0.00    +0.000 C 
ATOM     21  N   UNL     1       3.765   5.821  18.846  0.00  0.00    +0.000 N 
BRANCH  21  22
ATOM     22  C   UNL     1       2.750   4.909  19.122  0.00  0.00    +0.000 A 
ATOM     23  C   UNL     1       2.211   4.791  20.413  0.00  0.00    +0.000 A 
ATOM     24  C   UNL     1       1.223   3.845  20.717  0.00  0.00    +0.000 A 
ATOM     25  C   UNL     1       0.733   3.004  19.726  0.00  0.00    +0.000 A 
ATOM     26  C   UNL     1       1.229   3.113  18.433  0.00  0.00    +0.000 A 
ATOM     27  C   UNL     1       2.228   4.050  18.142  0.00  0.00    +0.000 A 
ENDBRANCH  21  22
ENDBRANCH  19  21
ENDBRANCH  18  19
ENDBRANCH  17  18
ENDBRANCH  13  17
ENDBRANCH   1  14
BRANCH   8  28
ATOM     28  S   UNL     1      -6.512  13.221  21.223  0.00  0.00    +0.000 S 
ATOM     29  O   UNL     1      -7.861  13.259  20.693  0.00  0.00    +0.000 OA
ATOM     30  O   UNL     1      -6.197  12.468  22.417  0.00  0.00    +0.000 OA
BRANCH  28  31
ATOM     31  N   UNL     1      -5.975  14.823  21.428  0.00  0.00    +0.000 NA
ATOM     32  C   UNL     1      -4.919  15.049  22.430  0.00  0.00    +0.000 C 
ATOM     33  C   UNL     1      -5.788  15.610  20.196  0.00  0.00    +0.000 C 
ENDBRANCH  28  31
ENDBRANCH   8  28
TORSDOF 8
ENDMDL
MODEL 5
REMARK VINA RESULT:      -7.7      2.457      3.875
REMARK  Name = 
REMARK  12 active torsions:
REMARK  status: ('A' for Active; 'I' for Inactive)
REMARK    1  A    between atoms: C_1  and  N_2
REMARK    2  A    between atoms: N_2  and  C_3
REMARK    3  A    between atoms: N_2  and  C_27
REMARK    4  A    between atoms: C_3  and  C_4
REMARK    5  A    between atoms: C_4  and  C_5
REMARK    6  A    between atoms: C_5  and  N_6
REMARK    7  A    between atoms: C_7  and  C_9
REMARK    8  A    between atoms: N_11  and  C_12
REMARK    9  A    between atoms: C_16  and  S_17
REMARK   10  A    between atoms: S_17  and  N_20
REMARK   11  A    between atoms: N_20  and  C_21
REMARK   12  A    between atoms: N_20  and  C_22
REMARK                            x       y       z     vdW  Elec       q    Type
REMARK                         _______ _______ _______ _____ _____    ______ ____
ROOT
ATOM      1  C   UNL     1       0.463   9.963  18.884  0.00  0.00    +0.000 A 
ATOM      2  C   UNL     1      -0.410  10.219  17.893  0.00  0.00    +0.000 A 
ATOM      3  N   UNL     1      -1.559  10.989  17.985  0.00  0.00    +0.000 N 
ATOM      4  C   UNL     1      -2.445  11.187  16.836  0.00  0.00    +0.000 C 
ATOM      5  C   UNL     1      -1.927  11.535  19.235  0.00  0.00    +0.000 A 
ATOM      6  C   UNL     1      -3.113  12.260  19.447  0.00  0.00    +0.000 A 
ATOM      7  C   UNL     1      -3.447  12.755  20.715  0.00  0.00    +0.000 A 
ATOM      8  C   UNL     1      -2.579  12.555  21.790  0.00  0.00    +0.000 A 
ATOM      9  C   UNL     1      -1.401  11.840  21.620  0.00  0.00    +0.000 A 
ATOM     10  C   UNL     1      -1.084  11.341  20.351  0.00  0.00    +0.000 A 
ATOM     11  C   UNL     1       0.175  10.579  20.198  0.00  0.00    +0.000 A 
ATOM     12  O   UNL     1       0.944  10.462  21.150  0.00  0.00    +0.000 OA
ENDROOT
BRANCH   1  14
ATOM     13  N   UNL     1       1.792   8.038  19.463  0.00  0.00    +0.000 N 
ATOM     14  C   UNL     1       1.642   9.097  18.605  0.00  0.00    +0.000 C 
ATOM     15  O   UNL     1       2.411   9.327  17.675  0.00  0.00    +0.000 OA
ATOM     16  H   UNL     1       1.063   7.883  20.163  0.00  0.00    +0.000 HD
BRANCH  13  17
ATOM     17  C   UNL     1       2.854   7.064  19.350  0.00  0.00    +0.000 C 
BRANCH  17  18
ATOM     18  C   UNL     1       2.353   5.679  19.741  0.00  0.00    +0.000 C 
BRANCH  18  19
ATOM     19  C   UNL     1       3.455   4.632  19.579  0.00  0.00    +0.000 C 
BRANCH  19  21
ATOM     20  C   UNL     1       2.551   3.371  17.606  0.00  0.00    +0.000 C 
ATOM     21  N   UNL     1       3.593   4.213  18.180  0.00  0.00    +0.000 N 
BRANCH  21  22
ATOM     22  C   UNL     1       4.823   4.319  17.537  0.00  0.00    +0.000 A 
ATOM     23  C   UNL     1       4.932   4.155  16.147  0.00  0.00    +0.000 A 
ATOM     24  C   UNL     1       6.169   4.211  15.491  0.00  0.00    +0.000 A 
ATOM     25  C   UNL     1       7.331   4.453  16.212  0.00  0.00    +0.000 A 
ATOM     26  C   UNL     1       7.254   4.642  17.586  0.00  0.00    +0.000 A 
ATOM     27  C   UNL     1       6.015   4.568  18.235  0.00  0.00    +0.000 A 
ENDBRANCH  21  22
ENDBRANCH  19  21
ENDBRANCH  18  19
ENDBRANCH  17  18
ENDBRANCH  13  17
ENDBRANCH   1  14
BRANCH   8  28
ATOM     28  S   UNL     1      -3.002  13.175  23.406  0.00  0.00    +0.000 S 
ATOM     29  O   UNL     1      -3.629  12.082  24.124  0.00  0.00    +0.000 OA
ATOM     30  O   UNL     1      -1.837  13.850  23.935  0.00  0.00    +0.000 OA
BRANCH  28  31
ATOM     31  N   UNL     1      -4.196  14.337  23.056  0.00  0.00    +0.000 NA
ATOM     32  C   UNL     1      -5.559  14.059  23.544  0.00  0.00    +0.000 C 
ATOM     33  C   UNL     1      -3.798  15.747  23.209  0.00  0.00    +0.000 C 
ENDBRANCH  28  31
ENDBRANCH   8  28
TORSDOF 8
ENDMDL
MODEL 6
REMARK VINA RESULT:      -7.7      2.308      3.695
REMARK  Name = 
REMARK  12 active torsions:
REMARK  status: ('A' for Active; 'I' for Inactive)
REMARK    1  A    between atoms: C_1  and  N_2
REMARK    2  A    between atoms: N_2  and  C_3
REMARK    3  A    between atoms: N_2  and  C_27
REMARK    4  A    between atoms: C_3  and  C_4
REMARK    5  A    between atoms: C_4  and  C_5
REMARK    6  A    between atoms: C_5  and  N_6
REMARK    7  A    between atoms: C_7  and  C_9
REMARK    8  A    between atoms: N_11  and  C_12
REMARK    9  A    between atoms: C_16  and  S_17
REMARK   10  A    between atoms: S_17  and  N_20
REMARK   11  A    between atoms: N_20  and  C_21
REMARK   12  A    between atoms: N_20  and  C_22
REMARK                            x       y       z     vdW  Elec       q    Type
REMARK                         _______ _______ _______ _____ _____    ______ ____
ROOT
ATOM      1  C   UNL     1       0.292   9.979  18.463  0.00  0.00    +0.000 A 
ATOM      2  C   UNL     1      -0.783   9.905  17.657  0.00  0.00    +0.000 A 
ATOM      3  N   UNL     1      -1.975  10.597  17.805  0.00  0.00    +0.000 N 
ATOM      4  C   UNL     1      -3.085  10.424  16.866  0.00  0.00    +0.000 C 
ATOM      5  C   UNL     1      -2.153  11.434  18.929  0.00  0.00    +0.000 A 
ATOM      6  C   UNL     1      -3.352  12.112  19.211  0.00  0.00    +0.000 A 
ATOM      7  C   UNL     1      -3.488  12.906  20.358  0.00  0.00    +0.000 A 
ATOM      8  C   UNL     1      -2.409  13.056  21.231  0.00  0.00    +0.000 A 
ATOM      9  C   UNL     1      -1.210  12.398  20.989  0.00  0.00    +0.000 A 
ATOM     10  C   UNL     1      -1.091  11.599  19.845  0.00  0.00    +0.000 A 
ATOM     11  C   UNL     1       0.195  10.905  19.613  0.00  0.00    +0.000 A 
ATOM     12  O   UNL     1       1.144  11.096  20.371  0.00  0.00    +0.000 OA
ENDROOT
BRANCH   1  14
ATOM     13  N   UNL     1       1.719   8.126  19.041  0.00  0.00    +0.000 N 
ATOM     14  C   UNL     1       1.487   9.147  18.156  0.00  0.00    +0.000 C 
ATOM     15  O   UNL     1       2.201   9.370  17.181  0.00  0.00    +0.000 OA
ATOM     16  H   UNL     1       1.032   7.970  19.782  0.00  0.00    +0.000 HD
BRANCH  13  17
ATOM     17  C   UNL     1       2.810   7.187  18.909  0.00  0.00    +0.000 C 
BRANCH  17  18
ATOM     18  C   UNL     1       2.376   5.972  18.099  0.00  0.00    +0.000 C 
BRANCH  18  19
ATOM     19  C   UNL     1       2.574   4.683  18.896  0.00  0.00    +0.000 C 
BRANCH  19  21
ATOM     20  C   UNL     1       2.973   2.294  18.235  0.00  0.00    +0.000 C 
ATOM     21  N   UNL     1       3.352   3.699  18.135  0.00  0.00    +0.000 N 
BRANCH  21  22
ATOM     22  C   UNL     1       4.601   4.039  17.624  0.00  0.00    +0.000 A 
ATOM     23  C   UNL     1       4.858   3.992  16.245  0.00  0.00    +0.000 A 
ATOM     24  C   UNL     1       6.124   4.285  15.719  0.00  0.00    +0.000 A 
ATOM     25  C   UNL     1       7.163   4.653  16.565  0.00  0.00    +0.000 A 
ATOM     26  C   UNL     1       6.934   4.730  17.932  0.00  0.00    +0.000 A 
ATOM     27  C   UNL     1       5.670   4.420  18.450  0.00  0.00    +0.000 A 
ENDBRANCH  21  22
ENDBRANCH  19  21
ENDBRANCH  18  19
ENDBRANCH  17  18
ENDBRANCH  13  17
ENDBRANCH   1  14
BRANCH   8  28
ATOM     28  S   UNL     1      -2.577  14.058  22.694  0.00  0.00    +0.000 S 
ATOM     29  O   UNL     1      -1.545  13.630  23.618  0.00  0.00    +0.000 OA
ATOM     30  O   UNL     1      -2.680  15.437  22.272  0.00  0.00    +0.000 OA
BRANCH  28  31
ATOM     31  N   UNL     1      -4.084  13.561  23.312  0.00  0.00    +0.000 NA
ATOM     32  C   UNL     1      -4.063  12.553  24.386  0.00  0.00    +0.000 C 
ATOM     33  C   UNL     1      -5.083  14.623  23.528  0.00  0.00    +0.000 C 
ENDBRANCH  28  31
ENDBRANCH   8  28
TORSDOF 8
ENDMDL
MODEL 7
REMARK VINA RESULT:      -7.6      4.204     10.861
REMARK  Name = 
REMARK  12 active torsions:
REMARK  status: ('A' for Active; 'I' for Inactive)
REMARK    1  A    between atoms: C_1  and  N_2
REMARK    2  A    between atoms: N_2  and  C_3
REMARK    3  A    between atoms: N_2  and  C_27
REMARK    4  A    between atoms: C_3  and  C_4
REMARK    5  A    between atoms: C_4  and  C_5
REMARK    6  A    between atoms: C_5  and  N_6
REMARK    7  A    between atoms: C_7  and  C_9
REMARK    8  A    between atoms: N_11  and  C_12
REMARK    9  A    between atoms: C_16  and  S_17
REMARK   10  A    between atoms: S_17  and  N_20
REMARK   11  A    between atoms: N_20  and  C_21
REMARK   12  A    between atoms: N_20  and  C_22
REMARK                            x       y       z     vdW  Elec       q    Type
REMARK                         _______ _______ _______ _____ _____    ______ ____
ROOT
ATOM      1  C   UNL     1       1.539   7.400  20.271  0.00  0.00    +0.000 A 
ATOM      2  C   UNL     1       1.373   6.220  20.895  0.00  0.00    +0.000 A 
ATOM      3  N   UNL     1       2.032   5.034  20.609  0.00  0.00    +0.000 N 
ATOM      4  C   UNL     1       1.756   3.803  21.351  0.00  0.00    +0.000 C 
ATOM      5  C   UNL     1       2.937   4.992  19.524  0.00  0.00    +0.000 A 
ATOM      6  C   UNL     1       3.592   3.821  19.104  0.00  0.00    +0.000 A 
ATOM      7  C   UNL     1       4.457   3.826  18.002  0.00  0.00    +0.000 A 
ATOM      8  C   UNL     1       4.704   5.017  17.318  0.00  0.00    +0.000 A 
ATOM      9  C   UNL     1       4.073   6.193  17.700  0.00  0.00    +0.000 A 
ATOM     10  C   UNL     1       3.201   6.172  18.796  0.00  0.00    +0.000 A 
ATOM     11  C   UNL     1       2.537   7.438  19.180  0.00  0.00    +0.000 A 
ATOM     12  O   UNL     1       2.813   8.482  18.591  0.00  0.00    +0.000 OA
ENDROOT
BRANCH   1  14
ATOM     13  N   UNL     1       0.642   9.583  19.786  0.00  0.00    +0.000 N 
ATOM     14  C   UNL     1       0.729   8.571  20.706  0.00  0.00    +0.000 C 
ATOM     15  O   UNL     1       0.186   8.611  21.808  0.00  0.00    +0.000 OA
ATOM     16  H   UNL     1       1.065   9.432  18.867  0.00  0.00    +0.000 HD
BRANCH  13  17
ATOM     17  C   UNL     1      -0.117  10.795  20.001  0.00  0.00    +0.000 C 
BRANCH  17  18
ATOM     18  C   UNL     1      -1.461  10.718  19.286  0.00  0.00    +0.000 C 
BRANCH  18  19
ATOM     19  C   UNL     1      -1.942  12.108  18.873  0.00  0.00    +0.000 C 
BRANCH  19  21
ATOM     20  C   UNL     1      -2.754  13.084  21.038  0.00  0.00    +0.000 C 
ATOM     21  N   UNL     1      -3.057  12.559  19.712  0.00  0.00    +0.000 N 
BRANCH  21  22
ATOM     22  C   UNL     1      -4.362  12.183  19.404  0.00  0.00    +0.000 A 
ATOM     23  C   UNL     1      -5.377  12.226  20.372  0.00  0.00    +0.000 A 
ATOM     24  C   UNL     1      -6.684  11.805  20.090  0.00  0.00    +0.000 A 
ATOM     25  C   UNL     1      -7.012  11.348  18.820  0.00  0.00    +0.000 A 
ATOM     26  C   UNL     1      -6.034  11.316  17.834  0.00  0.00    +0.000 A 
ATOM     27  C   UNL     1      -4.727  11.723  18.129  0.00  0.00    +0.000 A 
ENDBRANCH  21  22
ENDBRANCH  19  21
ENDBRANCH  18  19
ENDBRANCH  17  18
ENDBRANCH  13  17
ENDBRANCH   1  14
BRANCH   8  28
ATOM     28  S   UNL     1       5.798   5.028  15.911  0.00  0.00    +0.000 S 
ATOM     29  O   UNL     1       5.892   3.659  15.441  0.00  0.00    +0.000 OA
ATOM     30  O   UNL     1       5.371   6.094  15.032  0.00  0.00    +0.000 OA
BRANCH  28  31
ATOM     31  N   UNL     1       7.292   5.456  16.606  0.00  0.00    +0.000 NA
ATOM     32  C   UNL     1       7.466   6.866  16.997  0.00  0.00    +0.000 C 
ATOM     33  C   UNL     1       7.850   4.507  17.586  0.00  0.00    +0.000 C 
ENDBRANCH  28  31
ENDBRANCH   8  28
TORSDOF 8
ENDMDL
MODEL 8
REMARK VINA RESULT:      -7.6      2.865      3.995
REMARK  Name = 
REMARK  12 active torsions:
REMARK  status: ('A' for Active; 'I' for Inactive)
REMARK    1  A    between atoms: C_1  and  N_2
REMARK    2  A    between atoms: N_2  and  C_3
REMARK    3  A    between atoms: N_2  and  C_27
REMARK    4  A    between atoms: C_3  and  C_4
REMARK    5  A    between atoms: C_4  and  C_5
REMARK    6  A    between atoms: C_5  and  N_6
REMARK    7  A    between atoms: C_7  and  C_9
REMARK    8  A    between atoms: N_11  and  C_12
REMARK    9  A    between atoms: C_16  and  S_17
REMARK   10  A    between atoms: S_17  and  N_20
REMARK   11  A    between atoms: N_20  and  C_21
REMARK   12  A    between atoms: N_20  and  C_22
REMARK                            x       y       z     vdW  Elec       q    Type
REMARK                         _______ _______ _______ _____ _____    ______ ____
ROOT
ATOM      1  C   UNL     1       0.246   9.915  20.952  0.00  0.00    +0.000 A 
ATOM      2  C   UNL     1      -0.136  10.420  19.765  0.00  0.00    +0.000 A 
ATOM      3  N   UNL     1      -1.092  11.402  19.555  0.00  0.00    +0.000 N 
ATOM      4  C   UNL     1      -1.436  11.864  18.209  0.00  0.00    +0.000 C 
ATOM      5  C   UNL     1      -1.807  11.917  20.660  0.00  0.00    +0.000 A 
ATOM      6  C   UNL     1      -2.849  12.854  20.542  0.00  0.00    +0.000 A 
ATOM      7  C   UNL     1      -3.549  13.310  21.667  0.00  0.00    +0.000 A 
ATOM      8  C   UNL     1      -3.193  12.855  22.938  0.00  0.00    +0.000 A 
ATOM      9  C   UNL     1      -2.172  11.927  23.094  0.00  0.00    +0.000 A 
ATOM     10  C   UNL     1      -1.489  11.470  21.960  0.00  0.00    +0.000 A 
ATOM     11  C   UNL     1      -0.409  10.477  22.153  0.00  0.00    +0.000 A 
ATOM     12  O   UNL     1      -0.083  10.133  23.288  0.00  0.00    +0.000 OA
ENDROOT
BRANCH   1  14
ATOM     13  N   UNL     1       1.599   8.315  19.762  0.00  0.00    +0.000 N 
ATOM     14  C   UNL     1       1.284   8.848  20.985  0.00  0.00    +0.000 C 
ATOM     15  O   UNL     1       1.808   8.484  22.035  0.00  0.00    +0.000 OA
ATOM     16  H   UNL     1       1.165   8.729  18.934  0.00  0.00    +0.000 HD
BRANCH  13  17
ATOM     17  C   UNL     1       2.598   7.287  19.572  0.00  0.00    +0.000 C 
BRANCH  17  18
ATOM     18  C   UNL     1       1.977   5.903  19.722  0.00  0.00    +0.000 C 
BRANCH  18  19
ATOM     19  C   UNL     1       2.268   5.037  18.497  0.00  0.00    +0.000 C 
BRANCH  19  21
ATOM     20  C   UNL     1       3.301   3.274  19.956  0.00  0.00    +0.000 C 
ATOM     21  N   UNL     1       3.366   4.098  18.755  0.00  0.00    +0.000 N 
BRANCH  21  22
ATOM     22  C   UNL     1       4.575   4.234  18.079  0.00  0.00    +0.000 A 
ATOM     23  C   UNL     1       5.724   4.703  18.734  0.00  0.00    +0.000 A 
ATOM     24  C   UNL     1       6.936   4.891  18.056  0.00  0.00    +0.000 A 
ATOM     25  C   UNL     1       7.033   4.591  16.703  0.00  0.00    +0.000 A 
ATOM     26  C   UNL     1       5.920   4.103  16.032  0.00  0.00    +0.000 A 
ATOM     27  C   UNL     1       4.708   3.934  16.714  0.00  0.00    +0.000 A 
ENDBRANCH  21  22
ENDBRANCH  19  21
ENDBRANCH  18  19
ENDBRANCH  17  18
ENDBRANCH  13  17
ENDBRANCH   1  14
BRANCH   8  28
ATOM     28  S   UNL     1      -4.084  13.426  24.372  0.00  0.00    +0.000 S 
ATOM     29  O   UNL     1      -4.371  12.258  25.182  0.00  0.00    +0.000 OA
ATOM     30  O   UNL     1      -3.362  14.555  24.915  0.00  0.00    +0.000 OA
BRANCH  28  31
ATOM     31  N   UNL     1      -5.547  13.982  23.702  0.00  0.00    +0.000 NA
ATOM     32  C   UNL     1      -6.732  13.126  23.887  0.00  0.00    +0.000 C 
ATOM     33  C   UNL     1      -5.834  15.418  23.865  0.00  0.00    +0.000 C 
ENDBRANCH  28  31
ENDBRANCH   8  28
TORSDOF 8
ENDMDL
MODEL 9
REMARK VINA RESULT:      -7.5      2.906      4.040
REMARK  Name = 
REMARK  12 active torsions:
REMARK  status: ('A' for Active; 'I' for Inactive)
REMARK    1  A    between atoms: C_1  and  N_2
REMARK    2  A    between atoms: N_2  and  C_3
REMARK    3  A    between atoms: N_2  and  C_27
REMARK    4  A    between atoms: C_3  and  C_4
REMARK    5  A    between atoms: C_4  and  C_5
REMARK    6  A    between atoms: C_5  and  N_6
REMARK    7  A    between atoms: C_7  and  C_9
REMARK    8  A    between atoms: N_11  and  C_12
REMARK    9  A    between atoms: C_16  and  S_17
REMARK   10  A    between atoms: S_17  and  N_20
REMARK   11  A    between atoms: N_20  and  C_21
REMARK   12  A    between atoms: N_20  and  C_22
REMARK                            x       y       z     vdW  Elec       q    Type
REMARK                         _______ _______ _______ _____ _____    ______ ____
ROOT
ATOM      1  C   UNL     1       0.221   9.927  21.027  0.00  0.00    +0.000 A 
ATOM      2  C   UNL     1      -0.159  10.404  19.829  0.00  0.00    +0.000 A 
ATOM      3  N   UNL     1      -1.120  11.376  19.594  0.00  0.00    +0.000 N 
ATOM      4  C   UNL     1      -1.460  11.807  18.237  0.00  0.00    +0.000 C 
ATOM      5  C   UNL     1      -1.844  11.909  20.684  0.00  0.00    +0.000 A 
ATOM      6  C   UNL     1      -2.891  12.836  20.542  0.00  0.00    +0.000 A 
ATOM      7  C   UNL     1      -3.599  13.311  21.654  0.00  0.00    +0.000 A 
ATOM      8  C   UNL     1      -3.247  12.885  22.936  0.00  0.00    +0.000 A 
ATOM      9  C   UNL     1      -2.221  11.967  23.116  0.00  0.00    +0.000 A 
ATOM     10  C   UNL     1      -1.529  11.490  21.995  0.00  0.00    +0.000 A 
ATOM     11  C   UNL     1      -0.444  10.509  22.214  0.00  0.00    +0.000 A 
ATOM     12  O   UNL     1      -0.121  10.190  23.357  0.00  0.00    +0.000 OA
ENDROOT
BRANCH   1  14
ATOM     13  N   UNL     1       1.515   8.238  19.895  0.00  0.00    +0.000 N 
ATOM     14  C   UNL     1       1.265   8.867  21.088  0.00  0.00    +0.000 C 
ATOM     15  O   UNL     1       1.848   8.589  22.133  0.00  0.00    +0.000 OA
ATOM     16  H   UNL     1       1.034   8.585  19.062  0.00  0.00    +0.000 HD
BRANCH  13  17
ATOM     17  C   UNL     1       2.508   7.200  19.733  0.00  0.00    +0.000 C 
BRANCH  17  18
ATOM     18  C   UNL     1       2.767   6.935  18.255  0.00  0.00    +0.000 C 
BRANCH  18  19
ATOM     19  C   UNL     1       2.436   5.489  17.891  0.00  0.00    +0.000 C 
BRANCH  19  21
ATOM     20  C   UNL     1       3.531   3.250  17.590  0.00  0.00    +0.000 C 
ATOM     21  N   UNL     1       3.653   4.700  17.668  0.00  0.00    +0.000 N 
BRANCH  21  22
ATOM     22  C   UNL     1       4.905   5.275  17.870  0.00  0.00    +0.000 A 
ATOM     23  C   UNL     1       5.488   6.104  16.899  0.00  0.00    +0.000 A 
ATOM     24  C   UNL     1       6.768   6.650  17.067  0.00  0.00    +0.000 A 
ATOM     25  C   UNL     1       7.490   6.395  18.226  0.00  0.00    +0.000 A 
ATOM     26  C   UNL     1       6.929   5.597  19.216  0.00  0.00    +0.000 A 
ATOM     27  C   UNL     1       5.657   5.042  19.032  0.00  0.00    +0.000 A 
ENDBRANCH  21  22
ENDBRANCH  19  21
ENDBRANCH  18  19
ENDBRANCH  17  18
ENDBRANCH  13  17
ENDBRANCH   1  14
BRANCH   8  28
ATOM     28  S   UNL     1      -4.148  13.480  24.353  0.00  0.00    +0.000 S 
ATOM     29  O   UNL     1      -4.400  12.332  25.203  0.00  0.00    +0.000 OA
ATOM     30  O   UNL     1      -3.455  14.646  24.855  0.00  0.00    +0.000 OA
BRANCH  28  31
ATOM     31  N   UNL     1      -5.627  13.973  23.671  0.00  0.00    +0.000 NA
ATOM     32  C   UNL     1      -6.797  13.113  23.925  0.00  0.00    +0.000 C 
ATOM     33  C   UNL     1      -5.934  15.412  23.750  0.00  0.00    +0.000 C 
ENDBRANCH  28  31
ENDBRANCH   8  28
TORSDOF 8
ENDMDL
