MODEL 1
REMARK VINA RESULT:      -8.3      0.000      0.000
REMARK  Name = 
REMARK  4 active torsions:
REMARK  status: ('A' for Active; 'I' for Inactive)
REMARK    1  A    between atoms: C_1  and  N_2
REMARK    2  A    between atoms: C_4  and  C_5
REMARK    3  A    between atoms: C_5  and  C_6
REMARK    4  A    between atoms: N_8  and  C_9
REMARK                            x       y       z     vdW  Elec       q    Type
REMARK                         _______ _______ _______ _____ _____    ______ ____
ROOT
ATOM      1  C   UNL     1       7.973   6.641  18.450  0.00  0.00    +0.000 C 
ENDROOT
BRANCH   1   5
ATOM      2  C   UNL     1       7.399   5.151  13.945  0.00  0.00    +0.000 C 
ATOM      3  N   UNL     1       6.811   5.234  15.269  0.00  0.00    +0.000 N 
ATOM      4  N   UNL     1       7.543   5.882  16.226  0.00  0.00    +0.000 NA
ATOM      5  C   UNL     1       7.077   5.965  17.436  0.00  0.00    +0.000 A 
ATOM      6  C   UNL     1       5.743   5.454  17.823  0.00  0.00    +0.000 A 
ATOM      7  C   UNL     1       5.185   5.638  19.094  0.00  0.00    +0.000 A 
ATOM      8  C   UNL     1       3.909   5.133  19.373  0.00  0.00    +0.000 A 
ATOM      9  C   UNL     1       3.193   4.443  18.400  0.00  0.00    +0.000 A 
ATOM     10  C   UNL     1       3.742   4.263  17.132  0.00  0.00    +0.000 A 
ATOM     11  C   UNL     1       5.017   4.780  16.848  0.00  0.00    +0.000 A 
ATOM     12  C   UNL     1       5.577   4.627  15.489  0.00  0.00    +0.000 A 
ATOM     13  O   UNL     1       4.950   4.017  14.632  0.00  0.00    +0.000 OA
ENDBRANCH   1   5
BRANCH   1  14
ATOM     14  C   UNL     1       8.123   8.133  18.271  0.00  0.00    +0.000 C 
ATOM     15  O   UNL     1       7.461   8.730  17.423  0.00  0.00    +0.000 OA
ATOM     16  N   UNL     1       9.024   8.730  19.134  0.00  0.00    +0.000 N 
ATOM     17  H   UNL     1       9.766   8.136  19.497  0.00  0.00    +0.000 HD
BRANCH  16  18
ATOM     18  C   UNL     1       9.229  10.121  19.177  0.00  0.00    +0.000 A 
ATOM     19  C   UNL     1       9.170  10.767  20.416  0.00  0.00    +0.000 A 
ATOM     20  C   UNL     1       9.348  12.153  20.498  0.00  0.00    +0.000 A 
ATOM     21  C   UNL     1       9.522  12.899  19.333  0.00  0.00    +0.000 A 
ATOM     22 CL   UNL     1       9.671  14.611  19.442  0.00  0.00    +0.000 Cl
ATOM     23  C   UNL     1       9.557  12.256  18.098  0.00  0.00    +0.000 A 
ATOM     24  F   UNL     1       9.686  12.962  16.965  0.00  0.00    +0.000 F 
ATOM     25  C   UNL     1       9.437  10.869  18.015  0.00  0.00    +0.000 A 
ENDBRANCH  16  18
ENDBRANCH   1  14
TORSDOF 3
ENDMDL
MODEL 2
REMARK VINA RESULT:      -8.3      0.943      1.362
REMARK  Name = 
REMARK  4 active torsions:
REMARK  status: ('A' for Active; 'I' for Inactive)
REMARK    1  A    between atoms: C_1  and  N_2
REMARK    2  A    between atoms: C_4  and  C_5
REMARK    3  A    between atoms: C_5  and  C_6
REMARK    4  A    between atoms: N_8  and  C_9
REMARK                            x       y       z     vdW  Elec       q    Type
REMARK                         _______ _______ _______ _____ _____    ______ ____
ROOT
ATOM      1  C   UNL     1       7.926   6.589  18.431  0.00  0.00    +0.000 C 
ENDROOT
BRANCH   1   5
ATOM      2  C   UNL     1       7.418   5.122  13.909  0.00  0.00    +0.000 C 
ATOM      3  N   UNL     1       6.817   5.186  15.229  0.00  0.00    +0.000 N 
ATOM      4  N   UNL     1       7.529   5.839  16.197  0.00  0.00    +0.000 NA
ATOM      5  C   UNL     1       7.050   5.905  17.403  0.00  0.00    +0.000 A 
ATOM      6  C   UNL     1       5.722   5.369  17.774  0.00  0.00    +0.000 A 
ATOM      7  C   UNL     1       5.149   5.534  19.040  0.00  0.00    +0.000 A 
ATOM      8  C   UNL     1       3.879   5.006  19.305  0.00  0.00    +0.000 A 
ATOM      9  C   UNL     1       3.184   4.311  18.320  0.00  0.00    +0.000 A 
ATOM     10  C   UNL     1       3.748   4.149  17.056  0.00  0.00    +0.000 A 
ATOM     11  C   UNL     1       5.017   4.690  16.788  0.00  0.00    +0.000 A 
ATOM     12  C   UNL     1       5.592   4.556  15.433  0.00  0.00    +0.000 A 
ATOM     13  O   UNL     1       4.983   3.941  14.566  0.00  0.00    +0.000 OA
ENDBRANCH   1   5
BRANCH   1  14
ATOM     14  C   UNL     1       8.081   8.080  18.241  0.00  0.00    +0.000 C 
ATOM     15  O   UNL     1       7.425   8.673  17.385  0.00  0.00    +0.000 OA
ATOM     16  N   UNL     1       8.980   8.679  19.105  0.00  0.00    +0.000 N 
ATOM     17  H   UNL     1       9.718   8.086  19.476  0.00  0.00    +0.000 HD
BRANCH  16  18
ATOM     18  C   UNL     1       9.189  10.070  19.139  0.00  0.00    +0.000 A 
ATOM     19  C   UNL     1       9.342  10.753  17.929  0.00  0.00    +0.000 A 
ATOM     20  C   UNL     1       9.572  12.133  17.921  0.00  0.00    +0.000 A 
ATOM     21  C   UNL     1       9.712  12.819  19.127  0.00  0.00    +0.000 A 
ATOM     22 CL   UNL     1      10.063  14.504  19.104  0.00  0.00    +0.000 Cl
ATOM     23  C   UNL     1       9.583  12.132  20.332  0.00  0.00    +0.000 A 
ATOM     24  F   UNL     1       9.751  12.768  21.501  0.00  0.00    +0.000 F 
ATOM     25  C   UNL     1       9.297  10.767  20.345  0.00  0.00    +0.000 A 
ENDBRANCH  16  18
ENDBRANCH   1  14
TORSDOF 3
ENDMDL
MODEL 3
REMARK VINA RESULT:      -8.2      5.436      7.063
REMARK  Name = 
REMARK  4 active torsions:
REMARK  status: ('A' for Active; 'I' for Inactive)
REMARK    1  A    between atoms: C_1  and  N_2
REMARK    2  A    between atoms: C_4  and  C_5
REMARK    3  A    between atoms: C_5  and  C_6
REMARK    4  A    between atoms: N_8  and  C_9
REMARK                            x       y       z     vdW  Elec       q    Type
REMARK                         _______ _______ _______ _____ _____    ______ ____
ROOT
ATOM      1  C   UNL     1       2.898   7.509  17.146  0.00  0.00    +0.000 C 
ENDROOT
BRANCH   1   5
ATOM      2  C   UNL     1       2.288   3.511  19.695  0.00  0.00    +0.000 C 
ATOM      3  N   UNL     1       3.247   4.425  19.099  0.00  0.00    +0.000 N 
ATOM      4  N   UNL     1       2.734   5.520  18.460  0.00  0.00    +0.000 NA
ATOM      5  C   UNL     1       3.544   6.358  17.886  0.00  0.00    +0.000 A 
ATOM      6  C   UNL     1       5.017   6.230  17.954  0.00  0.00    +0.000 A 
ATOM      7  C   UNL     1       5.899   7.188  17.438  0.00  0.00    +0.000 A 
ATOM      8  C   UNL     1       7.282   6.996  17.556  0.00  0.00    +0.000 A 
ATOM      9  C   UNL     1       7.787   5.857  18.176  0.00  0.00    +0.000 A 
ATOM     10  C   UNL     1       6.912   4.905  18.697  0.00  0.00    +0.000 A 
ATOM     11  C   UNL     1       5.526   5.104  18.589  0.00  0.00    +0.000 A 
ATOM     12  C   UNL     1       4.601   4.115  19.182  0.00  0.00    +0.000 A 
ATOM     13  O   UNL     1       5.044   3.111  19.726  0.00  0.00    +0.000 OA
ENDBRANCH   1   5
BRANCH   1  14
ATOM     14  C   UNL     1       2.272   8.561  18.030  0.00  0.00    +0.000 C 
ATOM     15  O   UNL     1       2.205   9.732  17.657  0.00  0.00    +0.000 OA
ATOM     16  N   UNL     1       1.786   8.087  19.235  0.00  0.00    +0.000 N 
ATOM     17  H   UNL     1       2.221   7.242  19.598  0.00  0.00    +0.000 HD
BRANCH  16  18
ATOM     18  C   UNL     1       1.090   8.900  20.148  0.00  0.00    +0.000 A 
ATOM     19  C   UNL     1       1.261   8.668  21.516  0.00  0.00    +0.000 A 
ATOM     20  C   UNL     1       0.570   9.442  22.455  0.00  0.00    +0.000 A 
ATOM     21  C   UNL     1      -0.339  10.406  22.023  0.00  0.00    +0.000 A 
ATOM     22 CL   UNL     1      -1.234  11.304  23.188  0.00  0.00    +0.000 Cl
ATOM     23  C   UNL     1      -0.526  10.619  20.659  0.00  0.00    +0.000 A 
ATOM     24  F   UNL     1      -1.424  11.516  20.226  0.00  0.00    +0.000 F 
ATOM     25  C   UNL     1       0.202   9.891  19.719  0.00  0.00    +0.000 A 
ENDBRANCH  16  18
ENDBRANCH   1  14
TORSDOF 3
ENDMDL
MODEL 4
REMARK VINA RESULT:      -8.1      5.463      7.111
REMARK  Name = 
REMARK  4 active torsions:
REMARK  status: ('A' for Active; 'I' for Inactive)
REMARK    1  A    between atoms: C_1  and  N_2
REMARK    2  A    between atoms: C_4  and  C_5
REMARK    3  A    between atoms: C_5  and  C_6
REMARK    4  A    between atoms: N_8  and  C_9
REMARK                            x       y       z     vdW  Elec       q    Type
REMARK                         _______ _______ _______ _____ _____    ______ ____
ROOT
ATOM      1  C   UNL     1       2.902   7.618  17.158  0.00  0.00    +0.000 C 
ENDROOT
BRANCH   1   5
ATOM      2  C   UNL     1       2.231   3.604  19.665  0.00  0.00    +0.000 C 
ATOM      3  N   UNL     1       3.203   4.502  19.069  0.00  0.00    +0.000 N 
ATOM      4  N   UNL     1       2.708   5.617  18.449  0.00  0.00    +0.000 NA
ATOM      5  C   UNL     1       3.531   6.444  17.877  0.00  0.00    +0.000 A 
ATOM      6  C   UNL     1       5.001   6.281  17.925  0.00  0.00    +0.000 A 
ATOM      7  C   UNL     1       5.899   7.225  17.410  0.00  0.00    +0.000 A 
ATOM      8  C   UNL     1       7.278   7.000  17.510  0.00  0.00    +0.000 A 
ATOM      9  C   UNL     1       7.764   5.843  18.110  0.00  0.00    +0.000 A 
ATOM     10  C   UNL     1       6.874   4.904  18.630  0.00  0.00    +0.000 A 
ATOM     11  C   UNL     1       5.491   5.136  18.540  0.00  0.00    +0.000 A 
ATOM     12  C   UNL     1       4.551   4.161  19.132  0.00  0.00    +0.000 A 
ATOM     13  O   UNL     1       4.977   3.140  19.658  0.00  0.00    +0.000 OA
ENDBRANCH   1   5
BRANCH   1  14
ATOM     14  C   UNL     1       2.255   8.642  18.060  0.00  0.00    +0.000 C 
ATOM     15  O   UNL     1       2.189   9.822  17.719  0.00  0.00    +0.000 OA
ATOM     16  N   UNL     1       1.750   8.131  19.242  0.00  0.00    +0.000 N 
ATOM     17  H   UNL     1       2.182   7.278  19.589  0.00  0.00    +0.000 HD
BRANCH  16  18
ATOM     18  C   UNL     1       1.033   8.915  20.164  0.00  0.00    +0.000 A 
ATOM     19  C   UNL     1       0.228   9.950  19.678  0.00  0.00    +0.000 A 
ATOM     20  C   UNL     1      -0.485  10.765  20.565  0.00  0.00    +0.000 A 
ATOM     21  C   UNL     1      -0.342  10.584  21.940  0.00  0.00    +0.000 A 
ATOM     22 CL   UNL     1      -1.171  11.637  23.020  0.00  0.00    +0.000 Cl
ATOM     23  C   UNL     1       0.479   9.567  22.422  0.00  0.00    +0.000 A 
ATOM     24  F   UNL     1       0.658   9.402  23.741  0.00  0.00    +0.000 F 
ATOM     25  C   UNL     1       1.147   8.715  21.543  0.00  0.00    +0.000 A 
ENDBRANCH  16  18
ENDBRANCH   1  14
TORSDOF 3
ENDMDL
MODEL 5
REMARK VINA RESULT:      -8.1      1.700      3.042
REMARK  Name = 
REMARK  4 active torsions:
REMARK  status: ('A' for Active; 'I' for Inactive)
REMARK    1  A    between atoms: C_1  and  N_2
REMARK    2  A    between atoms: C_4  and  C_5
REMARK    3  A    between atoms: C_5  and  C_6
REMARK    4  A    between atoms: N_8  and  C_9
REMARK                            x       y       z     vdW  Elec       q    Type
REMARK                         _______ _______ _______ _____ _____    ______ ____
ROOT
ATOM      1  C   UNL     1       7.974   6.397  18.498  0.00  0.00    +0.000 C 
ENDROOT
BRANCH   1   5
ATOM      2  C   UNL     1       3.546   5.233  19.872  0.00  0.00    +0.000 C 
ATOM      3  N   UNL     1       4.505   5.240  18.783  0.00  0.00    +0.000 N 
ATOM      4  N   UNL     1       5.750   5.730  19.066  0.00  0.00    +0.000 NA
ATOM      5  C   UNL     1       6.642   5.783  18.122  0.00  0.00    +0.000 A 
ATOM      6  C   UNL     1       6.403   5.264  16.757  0.00  0.00    +0.000 A 
ATOM      7  C   UNL     1       7.392   5.213  15.767  0.00  0.00    +0.000 A 
ATOM      8  C   UNL     1       7.085   4.694  14.503  0.00  0.00    +0.000 A 
ATOM      9  C   UNL     1       5.803   4.233  14.220  0.00  0.00    +0.000 A 
ATOM     10  C   UNL     1       4.817   4.277  15.205  0.00  0.00    +0.000 A 
ATOM     11  C   UNL     1       5.129   4.787  16.476  0.00  0.00    +0.000 A 
ATOM     12  C   UNL     1       4.094   4.790  17.532  0.00  0.00    +0.000 A 
ATOM     13  O   UNL     1       2.964   4.388  17.283  0.00  0.00    +0.000 OA
ENDBRANCH   1   5
BRANCH   1  14
ATOM     14  C   UNL     1       8.072   7.887  18.272  0.00  0.00    +0.000 C 
ATOM     15  O   UNL     1       7.404   8.432  17.394  0.00  0.00    +0.000 OA
ATOM     16  N   UNL     1       8.935   8.544  19.130  0.00  0.00    +0.000 N 
ATOM     17  H   UNL     1       9.691   7.990  19.525  0.00  0.00    +0.000 HD
BRANCH  16  18
ATOM     18  C   UNL     1       9.088   9.943  19.131  0.00  0.00    +0.000 A 
ATOM     19  C   UNL     1       9.085  10.616  17.906  0.00  0.00    +0.000 A 
ATOM     20  C   UNL     1       9.255  12.004  17.863  0.00  0.00    +0.000 A 
ATOM     21  C   UNL     1       9.491  12.710  19.043  0.00  0.00    +0.000 A 
ATOM     22 CL   UNL     1       9.767  14.408  18.969  0.00  0.00    +0.000 Cl
ATOM     23  C   UNL     1       9.518  12.033  20.260  0.00  0.00    +0.000 A 
ATOM     24  F   UNL     1       9.781  12.690  21.400  0.00  0.00    +0.000 F 
ATOM     25  C   UNL     1       9.292  10.658  20.314  0.00  0.00    +0.000 A 
ENDBRANCH  16  18
ENDBRANCH   1  14
TORSDOF 3
ENDMDL
MODEL 6
REMARK VINA RESULT:      -8.1      6.134      7.473
REMARK  Name = 
REMARK  4 active torsions:
REMARK  status: ('A' for Active; 'I' for Inactive)
REMARK    1  A    between atoms: C_1  and  N_2
REMARK    2  A    between atoms: C_4  and  C_5
REMARK    3  A    between atoms: C_5  and  C_6
REMARK    4  A    between atoms: N_8  and  C_9
REMARK                            x       y       z     vdW  Elec       q    Type
REMARK                         _______ _______ _______ _____ _____    ______ ____
ROOT
ATOM      1  C   UNL     1       2.840   8.280  17.700  0.00  0.00    +0.000 C 
ENDROOT
BRANCH   1   5
ATOM      2  C   UNL     1       1.572   4.637  20.523  0.00  0.00    +0.000 C 
ATOM      3  N   UNL     1       2.401   5.067  19.412  0.00  0.00    +0.000 N 
ATOM      4  N   UNL     1       2.325   6.387  19.064  0.00  0.00    +0.000 NA
ATOM      5  C   UNL     1       3.027   6.823  18.061  0.00  0.00    +0.000 A 
ATOM      6  C   UNL     1       3.975   5.970  17.311  0.00  0.00    +0.000 A 
ATOM      7  C   UNL     1       4.819   6.455  16.303  0.00  0.00    +0.000 A 
ATOM      8  C   UNL     1       5.698   5.582  15.651  0.00  0.00    +0.000 A 
ATOM      9  C   UNL     1       5.736   4.233  15.991  0.00  0.00    +0.000 A 
ATOM     10  C   UNL     1       4.903   3.747  16.997  0.00  0.00    +0.000 A 
ATOM     11  C   UNL     1       4.030   4.626  17.659  0.00  0.00    +0.000 A 
ATOM     12  C   UNL     1       3.180   4.117  18.757  0.00  0.00    +0.000 A 
ATOM     13  O   UNL     1       3.210   2.929  19.054  0.00  0.00    +0.000 OA
ENDBRANCH   1   5
BRANCH   1  14
ATOM     14  C   UNL     1       1.702   8.971  18.415  0.00  0.00    +0.000 C 
ATOM     15  O   UNL     1       0.681   9.287  17.806  0.00  0.00    +0.000 OA
ATOM     16  N   UNL     1       1.914   9.179  19.766  0.00  0.00    +0.000 N 
ATOM     17  H   UNL     1       2.882   9.243  20.069  0.00  0.00    +0.000 HD
BRANCH  16  18
ATOM     18  C   UNL     1       0.932   9.724  20.614  0.00  0.00    +0.000 A 
ATOM     19  C   UNL     1       0.168  10.798  20.148  0.00  0.00    +0.000 A 
ATOM     20  C   UNL     1      -0.803  11.382  20.968  0.00  0.00    +0.000 A 
ATOM     21  C   UNL     1      -0.967  10.930  22.277  0.00  0.00    +0.000 A 
ATOM     22 CL   UNL     1      -2.118  11.702  23.298  0.00  0.00    +0.000 Cl
ATOM     23  C   UNL     1      -0.188   9.876  22.747  0.00  0.00    +0.000 A 
ATOM     24  F   UNL     1      -0.305   9.453  24.015  0.00  0.00    +0.000 F 
ATOM     25  C   UNL     1       0.742   9.253  21.916  0.00  0.00    +0.000 A 
ENDBRANCH  16  18
ENDBRANCH   1  14
TORSDOF 3
ENDMDL
MODEL 7
REMARK VINA RESULT:      -8.1      6.068      7.409
REMARK  Name = 
REMARK  4 active torsions:
REMARK  status: ('A' for Active; 'I' for Inactive)
REMARK    1  A    between atoms: C_1  and  N_2
REMARK    2  A    between atoms: C_4  and  C_5
REMARK    3  A    between atoms: C_5  and  C_6
REMARK    4  A    between atoms: N_8  and  C_9
REMARK                            x       y       z     vdW  Elec       q    Type
REMARK                         _______ _______ _______ _____ _____    ______ ____
ROOT
ATOM      1  C   UNL     1       2.703   8.407  17.723  0.00  0.00    +0.000 C 
ENDROOT
BRANCH   1   5
ATOM      2  C   UNL     1       1.533   4.834  20.676  0.00  0.00    +0.000 C 
ATOM      3  N   UNL     1       2.345   5.244  19.545  0.00  0.00    +0.000 N 
ATOM      4  N   UNL     1       2.238   6.551  19.154  0.00  0.00    +0.000 NA
ATOM      5  C   UNL     1       2.923   6.967  18.132  0.00  0.00    +0.000 A 
ATOM      6  C   UNL     1       3.884   6.109  17.402  0.00  0.00    +0.000 A 
ATOM      7  C   UNL     1       4.709   6.578  16.372  0.00  0.00    +0.000 A 
ATOM      8  C   UNL     1       5.602   5.702  15.742  0.00  0.00    +0.000 A 
ATOM      9  C   UNL     1       5.671   4.367  16.126  0.00  0.00    +0.000 A 
ATOM     10  C   UNL     1       4.856   3.897  17.155  0.00  0.00    +0.000 A 
ATOM     11  C   UNL     1       3.969   4.780  17.795  0.00  0.00    +0.000 A 
ATOM     12  C   UNL     1       3.139   4.289  18.915  0.00  0.00    +0.000 A 
ATOM     13  O   UNL     1       3.197   3.113  19.252  0.00  0.00    +0.000 OA
ENDBRANCH   1   5
BRANCH   1  14
ATOM     14  C   UNL     1       1.602   9.118  18.475  0.00  0.00    +0.000 C 
ATOM     15  O   UNL     1       0.554   9.425  17.906  0.00  0.00    +0.000 OA
ATOM     16  N   UNL     1       1.876   9.357  19.809  0.00  0.00    +0.000 N 
ATOM     17  H   UNL     1       2.858   9.424  20.066  0.00  0.00    +0.000 HD
BRANCH  16  18
ATOM     18  C   UNL     1       0.937   9.925  20.689  0.00  0.00    +0.000 A 
ATOM     19  C   UNL     1       0.379   9.117  21.684  0.00  0.00    +0.000 A 
ATOM     20  C   UNL     1      -0.574   9.639  22.565  0.00  0.00    +0.000 A 
ATOM     21  C   UNL     1      -1.014  10.953  22.411  0.00  0.00    +0.000 A 
ATOM     22 CL   UNL     1      -2.237  11.563  23.458  0.00  0.00    +0.000 Cl
ATOM     23  C   UNL     1      -0.474  11.749  21.403  0.00  0.00    +0.000 A 
ATOM     24  F   UNL     1      -0.913  13.003  21.216  0.00  0.00    +0.000 F 
ATOM     25  C   UNL     1       0.517  11.251  20.558  0.00  0.00    +0.000 A 
ENDBRANCH  16  18
ENDBRANCH   1  14
TORSDOF 3
ENDMDL
MODEL 8
REMARK VINA RESULT:      -8.1      1.520      2.770
REMARK  Name = 
REMARK  4 active torsions:
REMARK  status: ('A' for Active; 'I' for Inactive)
REMARK    1  A    between atoms: C_1  and  N_2
REMARK    2  A    between atoms: C_4  and  C_5
REMARK    3  A    between atoms: C_5  and  C_6
REMARK    4  A    between atoms: N_8  and  C_9
REMARK                            x       y       z     vdW  Elec       q    Type
REMARK                         _______ _______ _______ _____ _____    ______ ____
ROOT
ATOM      1  C   UNL     1       7.898   6.324  18.532  0.00  0.00    +0.000 C 
ENDROOT
BRANCH   1   5
ATOM      2  C   UNL     1       3.469   5.135  19.881  0.00  0.00    +0.000 C 
ATOM      3  N   UNL     1       4.435   5.147  18.797  0.00  0.00    +0.000 N 
ATOM      4  N   UNL     1       5.675   5.645  19.087  0.00  0.00    +0.000 NA
ATOM      5  C   UNL     1       6.572   5.703  18.148  0.00  0.00    +0.000 A 
ATOM      6  C   UNL     1       6.344   5.183  16.781  0.00  0.00    +0.000 A 
ATOM      7  C   UNL     1       7.339   5.138  15.797  0.00  0.00    +0.000 A 
ATOM      8  C   UNL     1       7.042   4.617  14.532  0.00  0.00    +0.000 A 
ATOM      9  C   UNL     1       5.764   4.150  14.241  0.00  0.00    +0.000 A 
ATOM     10  C   UNL     1       4.773   4.187  15.220  0.00  0.00    +0.000 A 
ATOM     11  C   UNL     1       5.074   4.699  16.493  0.00  0.00    +0.000 A 
ATOM     12  C   UNL     1       4.033   4.695  17.543  0.00  0.00    +0.000 A 
ATOM     13  O   UNL     1       2.907   4.288  17.288  0.00  0.00    +0.000 OA
ENDBRANCH   1   5
BRANCH   1  14
ATOM     14  C   UNL     1       8.019   7.800  18.231  0.00  0.00    +0.000 C 
ATOM     15  O   UNL     1       7.386   8.302  17.303  0.00  0.00    +0.000 OA
ATOM     16  N   UNL     1       8.858   8.494  19.083  0.00  0.00    +0.000 N 
ATOM     17  H   UNL     1       9.594   7.956  19.533  0.00  0.00    +0.000 HD
BRANCH  16  18
ATOM     18  C   UNL     1       9.024   9.890  19.016  0.00  0.00    +0.000 A 
ATOM     19  C   UNL     1       9.555  10.554  20.126  0.00  0.00    +0.000 A 
ATOM     20  C   UNL     1       9.717  11.943  20.106  0.00  0.00    +0.000 A 
ATOM     21  C   UNL     1       9.289  12.675  18.999  0.00  0.00    +0.000 A 
ATOM     22 CL   UNL     1       9.430  14.391  19.015  0.00  0.00    +0.000 Cl
ATOM     23  C   UNL     1       8.737  12.013  17.904  0.00  0.00    +0.000 A 
ATOM     24  F   UNL     1       8.285  12.704  16.846  0.00  0.00    +0.000 F 
ATOM     25  C   UNL     1       8.626  10.624  17.895  0.00  0.00    +0.000 A 
ENDBRANCH  16  18
ENDBRANCH   1  14
TORSDOF 3
ENDMDL
MODEL 9
REMARK VINA RESULT:      -8.0      4.682      6.228
REMARK  Name = 
REMARK  4 active torsions:
REMARK  status: ('A' for Active; 'I' for Inactive)
REMARK    1  A    between atoms: C_1  and  N_2
REMARK    2  A    between atoms: C_4  and  C_5
REMARK    3  A    between atoms: C_5  and  C_6
REMARK    4  A    between atoms: N_8  and  C_9
REMARK                            x       y       z     vdW  Elec       q    Type
REMARK                         _______ _______ _______ _____ _____    ______ ____
ROOT
ATOM      1  C   UNL     1       3.385   3.626  17.524  0.00  0.00    +0.000 C 
ENDROOT
BRANCH   1   5
ATOM      2  C   UNL     1       5.828   4.011  13.433  0.00  0.00    +0.000 C 
ATOM      3  N   UNL     1       5.819   4.280  14.859  0.00  0.00    +0.000 N 
ATOM      4  N   UNL     1       4.726   3.846  15.558  0.00  0.00    +0.000 NA
ATOM      5  C   UNL     1       4.653   4.081  16.834  0.00  0.00    +0.000 A 
ATOM      6  C   UNL     1       5.739   4.738  17.596  0.00  0.00    +0.000 A 
ATOM      7  C   UNL     1       5.719   4.894  18.988  0.00  0.00    +0.000 A 
ATOM      8  C   UNL     1       6.795   5.516  19.634  0.00  0.00    +0.000 A 
ATOM      9  C   UNL     1       7.882   5.986  18.903  0.00  0.00    +0.000 A 
ATOM     10  C   UNL     1       7.908   5.826  17.519  0.00  0.00    +0.000 A 
ATOM     11  C   UNL     1       6.834   5.192  16.873  0.00  0.00    +0.000 A 
ATOM     12  C   UNL     1       6.886   4.984  15.410  0.00  0.00    +0.000 A 
ATOM     13  O   UNL     1       7.840   5.400  14.765  0.00  0.00    +0.000 OA
ENDBRANCH   1   5
BRANCH   1  14
ATOM     14  C   UNL     1       2.452   4.739  17.937  0.00  0.00    +0.000 C 
ATOM     15  O   UNL     1       1.244   4.532  18.051  0.00  0.00    +0.000 OA
ATOM     16  N   UNL     1       3.073   5.950  18.183  0.00  0.00    +0.000 N 
ATOM     17  H   UNL     1       3.955   6.113  17.703  0.00  0.00    +0.000 HD
BRANCH  16  18
ATOM     18  C   UNL     1       2.381   7.076  18.664  0.00  0.00    +0.000 A 
ATOM     19  C   UNL     1       2.076   8.106  17.770  0.00  0.00    +0.000 A 
ATOM     20  C   UNL     1       1.406   9.252  18.214  0.00  0.00    +0.000 A 
ATOM     21  C   UNL     1       1.098   9.393  19.567  0.00  0.00    +0.000 A 
ATOM     22 CL   UNL     1       0.336  10.837  20.112  0.00  0.00    +0.000 Cl
ATOM     23  C   UNL     1       1.425   8.376  20.460  0.00  0.00    +0.000 A 
ATOM     24  F   UNL     1       1.170   8.511  21.770  0.00  0.00    +0.000 F 
ATOM     25  C   UNL     1       2.041   7.208  20.013  0.00  0.00    +0.000 A 
ENDBRANCH  16  18
ENDBRANCH   1  14
TORSDOF 3
ENDMDL
