MODEL 1
REMARK VINA RESULT:      -7.4      0.000      0.000
REMARK  Name = 
REMARK  8 active torsions:
REMARK  status: ('A' for Active; 'I' for Inactive)
REMARK    1  A    between atoms: C_1  and  C_2
REMARK    2  A    between atoms: C_2  and  O_3
REMARK    3  A    between atoms: O_3  and  C_4
REMARK    4  A    between atoms: C_9  and  C_10
REMARK    5  A    between atoms: C_12  and  S_13
REMARK    6  A    between atoms: S_13  and  C_14
REMARK    7  A    between atoms: C_14  and  C_15
REMARK    8  A    between atoms: C_20  and  C_21
REMARK                            x       y       z     vdW  Elec       q    Type
REMARK                         _______ _______ _______ _____ _____    ______ ____
ROOT
ATOM      1  C   UNL     1       6.685   5.982  16.807  0.00  0.00    +0.000 A 
ATOM      2  C   UNL     1       6.662   4.741  16.175  0.00  0.00    +0.000 A 
ATOM      3  C   UNL     1       5.585   3.881  16.367  0.00  0.00    +0.000 A 
ATOM      4  C   UNL     1       4.521   4.260  17.194  0.00  0.00    +0.000 A 
ATOM      5  C   UNL     1       3.438   3.405  17.393  0.00  0.00    +0.000 A 
ATOM      6  C   UNL     1       2.383   3.801  18.217  0.00  0.00    +0.000 A 
ATOM      7  C   UNL     1       2.449   5.055  18.817  0.00  0.00    +0.000 A 
ATOM      8  N   UNL     1       3.511   5.890  18.653  0.00  0.00    +0.000 NA
ATOM      9  C   UNL     1       4.524   5.509  17.845  0.00  0.00    +0.000 A 
ATOM     10  C   UNL     1       5.614   6.348  17.634  0.00  0.00    +0.000 A 
ENDROOT
BRANCH   6  11
ATOM     11  C   UNL     1       1.299   2.885  18.412  0.00  0.00    +0.000 C 
ATOM     12  N   UNL     1       0.407   2.179  18.641  0.00  0.00    +0.000 NA
ENDBRANCH   6  11
BRANCH   1  13
ATOM     13  O   UNL     1       7.689   6.908  16.691  0.00  0.00    +0.000 OA
BRANCH  13  15
ATOM     14  C   UNL     1       8.479   8.282  18.495  0.00  0.00    +0.000 C 
ATOM     15  C   UNL     1       7.477   8.151  17.364  0.00  0.00    +0.000 C 
ENDBRANCH  13  15
ENDBRANCH   1  13
BRANCH   7  16
ATOM     16  S   UNL     1       1.159   5.616  19.926  0.00  0.00    +0.000 S 
BRANCH  16  17
ATOM     17  C   UNL     1       1.967   7.042  20.719  0.00  0.00    +0.000 C 
BRANCH  17  18
ATOM     18  C   UNL     1       1.591   8.391  20.109  0.00  0.00    +0.000 C 
ATOM     19  O   UNL     1       1.625   8.603  18.894  0.00  0.00    +0.000 OA
ATOM     20  N   UNL     1       1.178   9.382  21.008  0.00  0.00    +0.000 N 
ATOM     21  C   UNL     1       1.150   9.253  22.465  0.00  0.00    +0.000 C 
ATOM     22  C   UNL     1      -0.211   9.673  23.021  0.00  0.00    +0.000 C 
ATOM     23  C   UNL     1      -0.609  11.077  22.544  0.00  0.00    +0.000 C 
ATOM     24  C   UNL     1      -2.015  11.433  23.026  0.00  0.00    +0.000 C 
ATOM     25  C   UNL     1      -0.516  11.168  21.013  0.00  0.00    +0.000 C 
ATOM     26  C   UNL     1       0.849  10.713  20.503  0.00  0.00    +0.000 C 
ENDBRANCH  17  18
ENDBRANCH  16  17
ENDBRANCH   7  16
TORSDOF 6
ENDMDL
MODEL 2
REMARK VINA RESULT:      -7.3      1.400      2.083
REMARK  Name = 
REMARK  8 active torsions:
REMARK  status: ('A' for Active; 'I' for Inactive)
REMARK    1  A    between atoms: C_1  and  C_2
REMARK    2  A    between atoms: C_2  and  O_3
REMARK    3  A    between atoms: O_3  and  C_4
REMARK    4  A    between atoms: C_9  and  C_10
REMARK    5  A    between atoms: C_12  and  S_13
REMARK    6  A    between atoms: S_13  and  C_14
REMARK    7  A    between atoms: C_14  and  C_15
REMARK    8  A    between atoms: C_20  and  C_21
REMARK                            x       y       z     vdW  Elec       q    Type
REMARK                         _______ _______ _______ _____ _____    ______ ____
ROOT
ATOM      1  C   UNL     1       6.666   6.168  16.817  0.00  0.00    +0.000 A 
ATOM      2  C   UNL     1       6.508   5.018  16.047  0.00  0.00    +0.000 A 
ATOM      3  C   UNL     1       5.396   4.204  16.232  0.00  0.00    +0.000 A 
ATOM      4  C   UNL     1       4.431   4.537  17.190  0.00  0.00    +0.000 A 
ATOM      5  C   UNL     1       3.312   3.726  17.382  0.00  0.00    +0.000 A 
ATOM      6  C   UNL     1       2.358   4.075  18.339  0.00  0.00    +0.000 A 
ATOM      7  C   UNL     1       2.557   5.239  19.076  0.00  0.00    +0.000 A 
ATOM      8  N   UNL     1       3.655   6.027  18.917  0.00  0.00    +0.000 NA
ATOM      9  C   UNL     1       4.571   5.693  17.982  0.00  0.00    +0.000 A 
ATOM     10  C   UNL     1       5.693   6.489  17.775  0.00  0.00    +0.000 A 
ENDROOT
BRANCH   6  11
ATOM     11  C   UNL     1       1.235   3.205  18.521  0.00  0.00    +0.000 C 
ATOM     12  N   UNL     1       0.282   2.550  18.623  0.00  0.00    +0.000 NA
ENDBRANCH   6  11
BRANCH   1  13
ATOM     13  O   UNL     1       7.716   7.043  16.723  0.00  0.00    +0.000 OA
BRANCH  13  15
ATOM     14  C   UNL     1       8.107   9.194  17.717  0.00  0.00    +0.000 C 
ATOM     15  C   UNL     1       8.104   7.694  17.935  0.00  0.00    +0.000 C 
ENDBRANCH  13  15
ENDBRANCH   1  13
BRANCH   7  16
ATOM     16  S   UNL     1       1.403   5.731  20.355  0.00  0.00    +0.000 S 
BRANCH  16  17
ATOM     17  C   UNL     1       1.873   7.471  20.608  0.00  0.00    +0.000 C 
BRANCH  17  18
ATOM     18  C   UNL     1       0.691   8.404  20.866  0.00  0.00    +0.000 C 
ATOM     19  O   UNL     1      -0.039   8.295  21.854  0.00  0.00    +0.000 OA
ATOM     20  N   UNL     1       0.488   9.419  19.922  0.00  0.00    +0.000 N 
ATOM     21  C   UNL     1       1.259   9.606  18.693  0.00  0.00    +0.000 C 
ATOM     22  C   UNL     1       1.747  11.050  18.573  0.00  0.00    +0.000 C 
ATOM     23  C   UNL     1       0.591  12.052  18.704  0.00  0.00    +0.000 C 
ATOM     24  C   UNL     1       1.115  13.487  18.686  0.00  0.00    +0.000 C 
ATOM     25  C   UNL     1      -0.210  11.779  19.986  0.00  0.00    +0.000 C 
ATOM     26  C   UNL     1      -0.652  10.320  20.075  0.00  0.00    +0.000 C 
ENDBRANCH  17  18
ENDBRANCH  16  17
ENDBRANCH   7  16
TORSDOF 6
ENDMDL
MODEL 3
REMARK VINA RESULT:      -7.2      2.390      6.736
REMARK  Name = 
REMARK  8 active torsions:
REMARK  status: ('A' for Active; 'I' for Inactive)
REMARK    1  A    between atoms: C_1  and  C_2
REMARK    2  A    between atoms: C_2  and  O_3
REMARK    3  A    between atoms: O_3  and  C_4
REMARK    4  A    between atoms: C_9  and  C_10
REMARK    5  A    between atoms: C_12  and  S_13
REMARK    6  A    between atoms: S_13  and  C_14
REMARK    7  A    between atoms: C_14  and  C_15
REMARK    8  A    between atoms: C_20  and  C_21
REMARK                            x       y       z     vdW  Elec       q    Type
REMARK                         _______ _______ _______ _____ _____    ______ ____
ROOT
ATOM      1  C   UNL     1       1.729   9.329  18.805  0.00  0.00    +0.000 A 
ATOM      2  C   UNL     1       1.295   9.387  20.127  0.00  0.00    +0.000 A 
ATOM      3  C   UNL     1       1.234   8.226  20.892  0.00  0.00    +0.000 A 
ATOM      4  C   UNL     1       1.611   6.997  20.336  0.00  0.00    +0.000 A 
ATOM      5  C   UNL     1       1.553   5.829  21.095  0.00  0.00    +0.000 A 
ATOM      6  C   UNL     1       1.937   4.612  20.527  0.00  0.00    +0.000 A 
ATOM      7  C   UNL     1       2.372   4.610  19.205  0.00  0.00    +0.000 A 
ATOM      8  N   UNL     1       2.410   5.738  18.445  0.00  0.00    +0.000 NA
ATOM      9  C   UNL     1       2.051   6.915  19.001  0.00  0.00    +0.000 A 
ATOM     10  C   UNL     1       2.101   8.092  18.261  0.00  0.00    +0.000 A 
ENDROOT
BRANCH   6  11
ATOM     11  C   UNL     1       1.842   3.432  21.332  0.00  0.00    +0.000 C 
ATOM     12  N   UNL     1       1.812   2.439  21.931  0.00  0.00    +0.000 NA
ENDBRANCH   6  11
BRANCH   1  13
ATOM     13  O   UNL     1       1.831  10.404  17.960  0.00  0.00    +0.000 OA
BRANCH  13  15
ATOM     14  C   UNL     1       2.637  12.662  18.089  0.00  0.00    +0.000 C 
ATOM     15  C   UNL     1       1.568  11.685  18.537  0.00  0.00    +0.000 C 
ENDBRANCH  13  15
ENDBRANCH   1  13
BRANCH   7  16
ATOM     16  S   UNL     1       2.836   3.084  18.389  0.00  0.00    +0.000 S 
BRANCH  16  17
ATOM     17  C   UNL     1       4.644   3.270  18.286  0.00  0.00    +0.000 C 
BRANCH  17  18
ATOM     18  C   UNL     1       5.121   4.063  17.071  0.00  0.00    +0.000 C 
ATOM     19  O   UNL     1       4.510   4.070  16.000  0.00  0.00    +0.000 OA
ATOM     20  N   UNL     1       6.292   4.812  17.244  0.00  0.00    +0.000 N 
ATOM     21  C   UNL     1       7.119   4.834  18.451  0.00  0.00    +0.000 C 
ATOM     22  C   UNL     1       7.398   6.271  18.891  0.00  0.00    +0.000 C 
ATOM     23  C   UNL     1       7.995   7.108  17.750  0.00  0.00    +0.000 C 
ATOM     24  C   UNL     1       8.167   8.564  18.181  0.00  0.00    +0.000 C 
ATOM     25  C   UNL     1       7.111   7.011  16.497  0.00  0.00    +0.000 C 
ATOM     26  C   UNL     1       6.837   5.558  16.112  0.00  0.00    +0.000 C 
ENDBRANCH  17  18
ENDBRANCH  16  17
ENDBRANCH   7  16
TORSDOF 6
ENDMDL
MODEL 4
REMARK VINA RESULT:      -7.1      2.461      7.195
REMARK  Name = 
REMARK  8 active torsions:
REMARK  status: ('A' for Active; 'I' for Inactive)
REMARK    1  A    between atoms: C_1  and  C_2
REMARK    2  A    between atoms: C_2  and  O_3
REMARK    3  A    between atoms: O_3  and  C_4
REMARK    4  A    between atoms: C_9  and  C_10
REMARK    5  A    between atoms: C_12  and  S_13
REMARK    6  A    between atoms: S_13  and  C_14
REMARK    7  A    between atoms: C_14  and  C_15
REMARK    8  A    between atoms: C_20  and  C_21
REMARK                            x       y       z     vdW  Elec       q    Type
REMARK                         _______ _______ _______ _____ _____    ______ ____
ROOT
ATOM      1  C   UNL     1       1.650   9.407  18.884  0.00  0.00    +0.000 A 
ATOM      2  C   UNL     1       1.211   9.454  20.204  0.00  0.00    +0.000 A 
ATOM      3  C   UNL     1       1.172   8.292  20.967  0.00  0.00    +0.000 A 
ATOM      4  C   UNL     1       1.577   7.072  20.412  0.00  0.00    +0.000 A 
ATOM      5  C   UNL     1       1.541   5.901  21.169  0.00  0.00    +0.000 A 
ATOM      6  C   UNL     1       1.952   4.694  20.601  0.00  0.00    +0.000 A 
ATOM      7  C   UNL     1       2.391   4.702  19.281  0.00  0.00    +0.000 A 
ATOM      8  N   UNL     1       2.408   5.832  18.522  0.00  0.00    +0.000 NA
ATOM      9  C   UNL     1       2.022   7.000  19.078  0.00  0.00    +0.000 A 
ATOM     10  C   UNL     1       2.050   8.179  18.339  0.00  0.00    +0.000 A 
ENDROOT
BRANCH   6  11
ATOM     11  C   UNL     1       1.880   3.511  21.405  0.00  0.00    +0.000 C 
ATOM     12  N   UNL     1       1.898   2.538  22.037  0.00  0.00    +0.000 NA
ENDBRANCH   6  11
BRANCH   1  13
ATOM     13  O   UNL     1       1.732  10.484  18.040  0.00  0.00    +0.000 OA
BRANCH  13  15
ATOM     14  C   UNL     1       2.562  12.733  18.180  0.00  0.00    +0.000 C 
ATOM     15  C   UNL     1       1.486  11.764  18.628  0.00  0.00    +0.000 C 
ENDBRANCH  13  15
ENDBRANCH   1  13
BRANCH   7  16
ATOM     16  S   UNL     1       2.889   3.187  18.465  0.00  0.00    +0.000 S 
BRANCH  16  17
ATOM     17  C   UNL     1       4.625   3.050  18.995  0.00  0.00    +0.000 C 
BRANCH  17  18
ATOM     18  C   UNL     1       5.454   4.310  18.750  0.00  0.00    +0.000 C 
ATOM     19  O   UNL     1       6.062   4.892  19.651  0.00  0.00    +0.000 OA
ATOM     20  N   UNL     1       5.507   4.765  17.426  0.00  0.00    +0.000 N 
ATOM     21  C   UNL     1       4.785   4.183  16.295  0.00  0.00    +0.000 C 
ATOM     22  C   UNL     1       5.732   3.918  15.125  0.00  0.00    +0.000 C 
ATOM     23  C   UNL     1       6.520   5.178  14.738  0.00  0.00    +0.000 C 
ATOM     24  C   UNL     1       7.534   4.864  13.638  0.00  0.00    +0.000 C 
ATOM     25  C   UNL     1       7.219   5.771  15.971  0.00  0.00    +0.000 C 
ATOM     26  C   UNL     1       6.239   5.992  17.121  0.00  0.00    +0.000 C 
ENDBRANCH  17  18
ENDBRANCH  16  17
ENDBRANCH   7  16
TORSDOF 6
ENDMDL
MODEL 5
REMARK VINA RESULT:      -6.9      3.926      6.467
REMARK  Name = 
REMARK  8 active torsions:
REMARK  status: ('A' for Active; 'I' for Inactive)
REMARK    1  A    between atoms: C_1  and  C_2
REMARK    2  A    between atoms: C_2  and  O_3
REMARK    3  A    between atoms: O_3  and  C_4
REMARK    4  A    between atoms: C_9  and  C_10
REMARK    5  A    between atoms: C_12  and  S_13
REMARK    6  A    between atoms: S_13  and  C_14
REMARK    7  A    between atoms: C_14  and  C_15
REMARK    8  A    between atoms: C_20  and  C_21
REMARK                            x       y       z     vdW  Elec       q    Type
REMARK                         _______ _______ _______ _____ _____    ______ ____
ROOT
ATOM      1  C   UNL     1       2.811   6.233  18.524  0.00  0.00    +0.000 A 
ATOM      2  C   UNL     1       2.604   5.700  19.793  0.00  0.00    +0.000 A 
ATOM      3  C   UNL     1       1.980   6.462  20.775  0.00  0.00    +0.000 A 
ATOM      4  C   UNL     1       1.555   7.765  20.490  0.00  0.00    +0.000 A 
ATOM      5  C   UNL     1       0.928   8.537  21.468  0.00  0.00    +0.000 A 
ATOM      6  C   UNL     1       0.507   9.833  21.166  0.00  0.00    +0.000 A 
ATOM      7  C   UNL     1       0.729  10.315  19.880  0.00  0.00    +0.000 A 
ATOM      8  N   UNL     1       1.362   9.584  18.923  0.00  0.00    +0.000 NA
ATOM      9  C   UNL     1       1.756   8.326  19.214  0.00  0.00    +0.000 A 
ATOM     10  C   UNL     1       2.383   7.540  18.252  0.00  0.00    +0.000 A 
ENDROOT
BRANCH   6  11
ATOM     11  C   UNL     1      -0.113  10.600  22.204  0.00  0.00    +0.000 C 
ATOM     12  N   UNL     1      -0.632  11.153  23.083  0.00  0.00    +0.000 NA
ENDBRANCH   6  11
BRANCH   1  13
ATOM     13  O   UNL     1       3.413   5.577  17.480  0.00  0.00    +0.000 OA
BRANCH  13  15
ATOM     14  C   UNL     1       2.757   3.291  17.148  0.00  0.00    +0.000 C 
ATOM     15  C   UNL     1       3.802   4.225  17.728  0.00  0.00    +0.000 C 
ENDBRANCH  13  15
ENDBRANCH   1  13
BRANCH   7  16
ATOM     16  S   UNL     1       0.262  11.984  19.427  0.00  0.00    +0.000 S 
BRANCH  16  17
ATOM     17  C   UNL     1      -1.393  11.712  18.720  0.00  0.00    +0.000 C 
BRANCH  17  18
ATOM     18  C   UNL     1      -2.535  12.246  19.583  0.00  0.00    +0.000 C 
ATOM     19  O   UNL     1      -2.342  12.871  20.629  0.00  0.00    +0.000 OA
ATOM     20  N   UNL     1      -3.831  12.006  19.110  0.00  0.00    +0.000 N 
ATOM     21  C   UNL     1      -4.173  11.234  17.914  0.00  0.00    +0.000 C 
ATOM     22  C   UNL     1      -5.131  12.019  17.018  0.00  0.00    +0.000 C 
ATOM     23  C   UNL     1      -6.371  12.491  17.791  0.00  0.00    +0.000 C 
ATOM     24  C   UNL     1      -7.262  13.359  16.904  0.00  0.00    +0.000 C 
ATOM     25  C   UNL     1      -5.953  13.253  19.058  0.00  0.00    +0.000 C 
ATOM     26  C   UNL     1      -4.975  12.443  19.906  0.00  0.00    +0.000 C 
ENDBRANCH  17  18
ENDBRANCH  16  17
ENDBRANCH   7  16
TORSDOF 6
ENDMDL
MODEL 6
REMARK VINA RESULT:      -6.8      0.911      1.161
REMARK  Name = 
REMARK  8 active torsions:
REMARK  status: ('A' for Active; 'I' for Inactive)
REMARK    1  A    between atoms: C_1  and  C_2
REMARK    2  A    between atoms: C_2  and  O_3
REMARK    3  A    between atoms: O_3  and  C_4
REMARK    4  A    between atoms: C_9  and  C_10
REMARK    5  A    between atoms: C_12  and  S_13
REMARK    6  A    between atoms: S_13  and  C_14
REMARK    7  A    between atoms: C_14  and  C_15
REMARK    8  A    between atoms: C_20  and  C_21
REMARK                            x       y       z     vdW  Elec       q    Type
REMARK                         _______ _______ _______ _____ _____    ______ ____
ROOT
ATOM      1  C   UNL     1       6.745   6.086  16.848  0.00  0.00    +0.000 A 
ATOM      2  C   UNL     1       6.567   4.973  16.030  0.00  0.00    +0.000 A 
ATOM      3  C   UNL     1       5.442   4.169  16.184  0.00  0.00    +0.000 A 
ATOM      4  C   UNL     1       4.486   4.475  17.159  0.00  0.00    +0.000 A 
ATOM      5  C   UNL     1       3.356   3.674  17.321  0.00  0.00    +0.000 A 
ATOM      6  C   UNL     1       2.410   3.997  18.296  0.00  0.00    +0.000 A 
ATOM      7  C   UNL     1       2.630   5.124  19.081  0.00  0.00    +0.000 A 
ATOM      8  N   UNL     1       3.740   5.901  18.952  0.00  0.00    +0.000 NA
ATOM      9  C   UNL     1       4.647   5.594  18.000  0.00  0.00    +0.000 A 
ATOM     10  C   UNL     1       5.781   6.380  17.822  0.00  0.00    +0.000 A 
ENDROOT
BRANCH   6  11
ATOM     11  C   UNL     1       1.275   3.137  18.445  0.00  0.00    +0.000 C 
ATOM     12  N   UNL     1       0.334   2.459  18.491  0.00  0.00    +0.000 NA
ENDBRANCH   6  11
BRANCH   1  13
ATOM     13  O   UNL     1       7.809   6.948  16.787  0.00  0.00    +0.000 OA
BRANCH  13  15
ATOM     14  C   UNL     1       8.074   9.176  17.643  0.00  0.00    +0.000 C 
ATOM     15  C   UNL     1       8.081   7.696  17.974  0.00  0.00    +0.000 C 
ENDBRANCH  13  15
ENDBRANCH   1  13
BRANCH   7  16
ATOM     16  S   UNL     1       1.489   5.578  20.385  0.00  0.00    +0.000 S 
BRANCH  16  17
ATOM     17  C   UNL     1       1.907   7.333  20.630  0.00  0.00    +0.000 C 
BRANCH  17  18
ATOM     18  C   UNL     1       1.559   8.228  19.442  0.00  0.00    +0.000 C 
ATOM     19  O   UNL     1       1.685   7.859  18.272  0.00  0.00    +0.000 OA
ATOM     20  N   UNL     1       1.062   9.500  19.752  0.00  0.00    +0.000 N 
ATOM     21  C   UNL     1       0.922  10.056  21.098  0.00  0.00    +0.000 C 
ATOM     22  C   UNL     1      -0.484  10.617  21.311  0.00  0.00    +0.000 C 
ATOM     23  C   UNL     1      -0.865  11.622  20.214  0.00  0.00    +0.000 C 
ATOM     24  C   UNL     1      -2.310  12.089  20.387  0.00  0.00    +0.000 C 
ATOM     25  C   UNL     1      -0.655  11.002  18.824  0.00  0.00    +0.000 C 
ATOM     26  C   UNL     1       0.754  10.431  18.669  0.00  0.00    +0.000 C 
ENDBRANCH  17  18
ENDBRANCH  16  17
ENDBRANCH   7  16
TORSDOF 6
ENDMDL
MODEL 7
REMARK VINA RESULT:      -6.8      3.279      8.849
REMARK  Name = 
REMARK  8 active torsions:
REMARK  status: ('A' for Active; 'I' for Inactive)
REMARK    1  A    between atoms: C_1  and  C_2
REMARK    2  A    between atoms: C_2  and  O_3
REMARK    3  A    between atoms: O_3  and  C_4
REMARK    4  A    between atoms: C_9  and  C_10
REMARK    5  A    between atoms: C_12  and  S_13
REMARK    6  A    between atoms: S_13  and  C_14
REMARK    7  A    between atoms: C_14  and  C_15
REMARK    8  A    between atoms: C_20  and  C_21
REMARK                            x       y       z     vdW  Elec       q    Type
REMARK                         _______ _______ _______ _____ _____    ______ ____
ROOT
ATOM      1  C   UNL     1       1.627   8.841  18.751  0.00  0.00    +0.000 A 
ATOM      2  C   UNL     1       1.324   8.377  20.028  0.00  0.00    +0.000 A 
ATOM      3  C   UNL     1       1.827   7.155  20.462  0.00  0.00    +0.000 A 
ATOM      4  C   UNL     1       2.641   6.389  19.618  0.00  0.00    +0.000 A 
ATOM      5  C   UNL     1       3.150   5.163  20.044  0.00  0.00    +0.000 A 
ATOM      6  C   UNL     1       3.963   4.414  19.192  0.00  0.00    +0.000 A 
ATOM      7  C   UNL     1       4.244   4.927  17.929  0.00  0.00    +0.000 A 
ATOM      8  N   UNL     1       3.734   6.110  17.490  0.00  0.00    +0.000 NA
ATOM      9  C   UNL     1       2.958   6.838  18.321  0.00  0.00    +0.000 A 
ATOM     10  C   UNL     1       2.441   8.064  17.915  0.00  0.00    +0.000 A 
ENDROOT
BRANCH   6  11
ATOM     11  C   UNL     1       4.448   3.151  19.659  0.00  0.00    +0.000 C 
ATOM     12  N   UNL     1       4.818   2.148  20.111  0.00  0.00    +0.000 NA
ENDBRANCH   6  11
BRANCH   1  13
ATOM     13  O   UNL     1       1.190  10.026  18.217  0.00  0.00    +0.000 OA
BRANCH  13  15
ATOM     14  C   UNL     1      -1.129  10.639  18.324  0.00  0.00    +0.000 C 
ATOM     15  C   UNL     1       0.228  10.747  18.990  0.00  0.00    +0.000 C 
ENDBRANCH  13  15
ENDBRANCH   1  13
BRANCH   7  16
ATOM     16  S   UNL     1       5.240   4.006  16.759  0.00  0.00    +0.000 S 
BRANCH  16  17
ATOM     17  C   UNL     1       5.368   5.196  15.387  0.00  0.00    +0.000 C 
BRANCH  17  18
ATOM     18  C   UNL     1       6.594   4.991  14.497  0.00  0.00    +0.000 C 
ATOM     19  O   UNL     1       7.732   5.309  14.851  0.00  0.00    +0.000 OA
ATOM     20  N   UNL     1       6.360   4.394  13.252  0.00  0.00    +0.000 N 
ATOM     21  C   UNL     1       5.049   4.027  12.715  0.00  0.00    +0.000 C 
ATOM     22  C   UNL     1       5.051   2.581  12.220  0.00  0.00    +0.000 C 
ATOM     23  C   UNL     1       6.191   2.325  11.224  0.00  0.00    +0.000 C 
ATOM     24  C   UNL     1       6.237   0.850  10.824  0.00  0.00    +0.000 C 
ATOM     25  C   UNL     1       7.534   2.771  11.821  0.00  0.00    +0.000 C 
ATOM     26  C   UNL     1       7.476   4.211  12.327  0.00  0.00    +0.000 C 
ENDBRANCH  17  18
ENDBRANCH  16  17
ENDBRANCH   7  16
TORSDOF 6
ENDMDL
MODEL 8
REMARK VINA RESULT:      -6.8      3.386      5.420
REMARK  Name = 
REMARK  8 active torsions:
REMARK  status: ('A' for Active; 'I' for Inactive)
REMARK    1  A    between atoms: C_1  and  C_2
REMARK    2  A    between atoms: C_2  and  O_3
REMARK    3  A    between atoms: O_3  and  C_4
REMARK    4  A    between atoms: C_9  and  C_10
REMARK    5  A    between atoms: C_12  and  S_13
REMARK    6  A    between atoms: S_13  and  C_14
REMARK    7  A    between atoms: C_14  and  C_15
REMARK    8  A    between atoms: C_20  and  C_21
REMARK                            x       y       z     vdW  Elec       q    Type
REMARK                         _______ _______ _______ _____ _____    ______ ____
ROOT
ATOM      1  C   UNL     1       3.100   5.368  18.134  0.00  0.00    +0.000 A 
ATOM      2  C   UNL     1       2.896   4.683  19.330  0.00  0.00    +0.000 A 
ATOM      3  C   UNL     1       2.328   5.337  20.418  0.00  0.00    +0.000 A 
ATOM      4  C   UNL     1       1.958   6.683  20.316  0.00  0.00    +0.000 A 
ATOM      5  C   UNL     1       1.389   7.347  21.402  0.00  0.00    +0.000 A 
ATOM      6  C   UNL     1       1.021   8.688  21.282  0.00  0.00    +0.000 A 
ATOM      7  C   UNL     1       1.237   9.325  20.063  0.00  0.00    +0.000 A 
ATOM      8  N   UNL     1       1.815   8.697  19.002  0.00  0.00    +0.000 NA
ATOM      9  C   UNL     1       2.158   7.396  19.118  0.00  0.00    +0.000 A 
ATOM     10  C   UNL     1       2.727   6.717  18.046  0.00  0.00    +0.000 A 
ENDROOT
BRANCH   6  11
ATOM     11  C   UNL     1       0.460   9.340  22.427  0.00  0.00    +0.000 C 
ATOM     12  N   UNL     1       0.079   9.881  23.380  0.00  0.00    +0.000 NA
ENDBRANCH   6  11
BRANCH   1  13
ATOM     13  O   UNL     1       3.648   4.829  16.999  0.00  0.00    +0.000 OA
BRANCH  13  15
ATOM     14  C   UNL     1       5.408   5.523  15.521  0.00  0.00    +0.000 C 
ATOM     15  C   UNL     1       5.068   4.934  16.876  0.00  0.00    +0.000 C 
ENDBRANCH  13  15
ENDBRANCH   1  13
BRANCH   7  16
ATOM     16  S   UNL     1       0.838  11.057  19.842  0.00  0.00    +0.000 S 
BRANCH  16  17
ATOM     17  C   UNL     1      -0.977  11.026  19.986  0.00  0.00    +0.000 C 
BRANCH  17  18
ATOM     18  C   UNL     1      -1.704  10.839  18.655  0.00  0.00    +0.000 C 
ATOM     19  O   UNL     1      -1.290  10.085  17.772  0.00  0.00    +0.000 OA
ATOM     20  N   UNL     1      -2.893  11.561  18.495  0.00  0.00    +0.000 N 
ATOM     21  C   UNL     1      -3.444  12.519  19.453  0.00  0.00    +0.000 C 
ATOM     22  C   UNL     1      -4.913  12.212  19.744  0.00  0.00    +0.000 C 
ATOM     23  C   UNL     1      -5.740  12.125  18.452  0.00  0.00    +0.000 C 
ATOM     24  C   UNL     1      -7.180  11.715  18.760  0.00  0.00    +0.000 C 
ATOM     25  C   UNL     1      -5.090  11.142  17.467  0.00  0.00    +0.000 C 
ATOM     26  C   UNL     1      -3.618  11.472  17.230  0.00  0.00    +0.000 C 
ENDBRANCH  17  18
ENDBRANCH  16  17
ENDBRANCH   7  16
TORSDOF 6
ENDMDL
MODEL 9
REMARK VINA RESULT:      -6.7      3.721      5.855
REMARK  Name = 
REMARK  8 active torsions:
REMARK  status: ('A' for Active; 'I' for Inactive)
REMARK    1  A    between atoms: C_1  and  C_2
REMARK    2  A    between atoms: C_2  and  O_3
REMARK    3  A    between atoms: O_3  and  C_4
REMARK    4  A    between atoms: C_9  and  C_10
REMARK    5  A    between atoms: C_12  and  S_13
REMARK    6  A    between atoms: S_13  and  C_14
REMARK    7  A    between atoms: C_14  and  C_15
REMARK    8  A    between atoms: C_20  and  C_21
REMARK                            x       y       z     vdW  Elec       q    Type
REMARK                         _______ _______ _______ _____ _____    ______ ____
ROOT
ATOM      1  C   UNL     1       3.092   6.085  18.200  0.00  0.00    +0.000 A 
ATOM      2  C   UNL     1       2.736   5.262  19.266  0.00  0.00    +0.000 A 
ATOM      3  C   UNL     1       2.043   5.790  20.351  0.00  0.00    +0.000 A 
ATOM      4  C   UNL     1       1.701   7.147  20.375  0.00  0.00    +0.000 A 
ATOM      5  C   UNL     1       1.007   7.684  21.459  0.00  0.00    +0.000 A 
ATOM      6  C   UNL     1       0.669   9.039  21.465  0.00  0.00    +0.000 A 
ATOM      7  C   UNL     1       1.040   9.816  20.372  0.00  0.00    +0.000 A 
ATOM      8  N   UNL     1       1.739   9.311  19.319  0.00  0.00    +0.000 NA
ATOM      9  C   UNL     1       2.053   7.998  19.310  0.00  0.00    +0.000 A 
ATOM     10  C   UNL     1       2.745   7.443  18.238  0.00  0.00    +0.000 A 
ENDROOT
BRANCH   6  11
ATOM     11  C   UNL     1      -0.024   9.556  22.606  0.00  0.00    +0.000 C 
ATOM     12  N   UNL     1      -0.633  10.017  23.480  0.00  0.00    +0.000 NA
ENDBRANCH   6  11
BRANCH   1  13
ATOM     13  O   UNL     1       3.772   5.678  17.082  0.00  0.00    +0.000 OA
BRANCH  13  15
ATOM     14  C   UNL     1       6.058   6.100  17.682  0.00  0.00    +0.000 C 
ATOM     15  C   UNL     1       5.034   5.047  17.308  0.00  0.00    +0.000 C 
ENDBRANCH  13  15
ENDBRANCH   1  13
BRANCH   7  16
ATOM     16  S   UNL     1       0.687  11.571  20.325  0.00  0.00    +0.000 S 
BRANCH  16  17
ATOM     17  C   UNL     1       0.031  11.758  18.637  0.00  0.00    +0.000 C 
BRANCH  17  18
ATOM     18  C   UNL     1      -1.464  12.063  18.579  0.00  0.00    +0.000 C 
ATOM     19  O   UNL     1      -1.963  13.050  19.126  0.00  0.00    +0.000 OA
ATOM     20  N   UNL     1      -2.250  11.165  17.845  0.00  0.00    +0.000 N 
ATOM     21  C   UNL     1      -1.770   9.941  17.203  0.00  0.00    +0.000 C 
ATOM     22  C   UNL     1      -2.220   9.881  15.744  0.00  0.00    +0.000 C 
ATOM     23  C   UNL     1      -3.740  10.063  15.612  0.00  0.00    +0.000 C 
ATOM     24  C   UNL     1      -4.153  10.104  14.141  0.00  0.00    +0.000 C 
ATOM     25  C   UNL     1      -4.192  11.336  16.342  0.00  0.00    +0.000 C 
ATOM     26  C   UNL     1      -3.696  11.364  17.786  0.00  0.00    +0.000 C 
ENDBRANCH  17  18
ENDBRANCH  16  17
ENDBRANCH   7  16
TORSDOF 6
ENDMDL
