MODEL 1
REMARK VINA RESULT:      -9.6      0.000      0.000
REMARK  Name = 
REMARK  10 active torsions:
REMARK  status: ('A' for Active; 'I' for Inactive)
REMARK    1  A    between atoms: C_1  and  C_2
REMARK    2  A    between atoms: C_2  and  C_3
REMARK    3  A    between atoms: C_2  and  C_4
REMARK    4  A    between atoms: C_2  and  C_12
REMARK    5  A    between atoms: C_4  and  N_5
REMARK    6  A    between atoms: N_5  and  S_6
REMARK    7  A    between atoms: S_6  and  C_9
REMARK    8  A    between atoms: C_12  and  C_13
REMARK    9  A    between atoms: C_12  and  C_19
REMARK   10  A    between atoms: N_26  and  C_27
REMARK                            x       y       z     vdW  Elec       q    Type
REMARK                         _______ _______ _______ _____ _____    ______ ____
ROOT
ATOM      1  C   UNL     1       2.938   5.614  18.172  0.00  0.00    +0.000 C 
ENDROOT
BRANCH   1   2
ATOM      2  C   UNL     1       2.567   7.055  18.575  0.00  0.00    +0.000 A 
ATOM      3  C   UNL     1       2.513   8.129  17.676  0.00  0.00    +0.000 A 
ATOM      4  C   UNL     1       1.958   9.356  18.011  0.00  0.00    +0.000 A 
ATOM      5  C   UNL     1       1.455   9.498  19.305  0.00  0.00    +0.000 A 
ATOM      6  C   UNL     1       1.485   8.470  20.244  0.00  0.00    +0.000 A 
ATOM      7  C   UNL     1       0.736   8.972  21.322  0.00  0.00    +0.000 A 
ATOM      8  N   UNL     1       0.240  10.197  21.097  0.00  0.00    +0.000 NA
ATOM      9  N   UNL     1       0.833  10.557  19.938  0.00  0.00    +0.000 N 
ATOM     10  C   UNL     1       2.133   7.270  19.906  0.00  0.00    +0.000 A 
BRANCH   9  11
ATOM     11  C   UNL     1       0.812  11.874  19.432  0.00  0.00    +0.000 A 
ATOM     12  C   UNL     1      -0.284  12.259  18.643  0.00  0.00    +0.000 A 
ATOM     13  C   UNL     1      -0.500  13.601  18.370  0.00  0.00    +0.000 A 
ATOM     14  C   UNL     1       0.384  14.540  18.883  0.00  0.00    +0.000 A 
ATOM     15  F   UNL     1       0.117  15.841  18.716  0.00  0.00    +0.000 F 
ATOM     16  C   UNL     1       1.523  14.154  19.592  0.00  0.00    +0.000 A 
ATOM     17  C   UNL     1       1.765  12.803  19.852  0.00  0.00    +0.000 A 
ENDBRANCH   9  11
ENDBRANCH   1   2
BRANCH   1  18
ATOM     18  C   UNL     1       2.351   4.552  19.113  0.00  0.00    +0.000 A 
ATOM     19  C   UNL     1       1.288   3.723  18.728  0.00  0.00    +0.000 A 
ATOM     20  C   UNL     1       0.662   2.892  19.659  0.00  0.00    +0.000 A 
ATOM     21  C   UNL     1       1.095   2.867  20.983  0.00  0.00    +0.000 A 
ATOM     22  C   UNL     1       2.199   3.623  21.364  0.00  0.00    +0.000 A 
ATOM     23  C   UNL     1       2.836   4.444  20.431  0.00  0.00    +0.000 A 
ENDBRANCH   1  18
BRANCH   1  25
ATOM     24  C   UNL     1       4.814   3.825  17.939  0.00  0.00    +0.000 C 
ATOM     25  C   UNL     1       4.453   5.326  17.757  0.00  0.00    +0.000 C 
ATOM     26  C   UNL     1       5.454   6.086  18.668  0.00  0.00    +0.000 C 
BRANCH  25  27
ATOM     27  C   UNL     1       4.740   5.663  16.258  0.00  0.00    +0.000 C 
BRANCH  27  28
ATOM     28  N   UNL     1       6.133   6.114  16.019  0.00  0.00    +0.000 NA
ATOM     29  H   UNL     1       6.615   6.446  16.859  0.00  0.00    +0.000 HD
BRANCH  28  30
ATOM     30  S   UNL     1       7.158   4.952  15.328  0.00  0.00    +0.000 S 
ATOM     31  O   UNL     1       7.932   5.639  14.321  0.00  0.00    +0.000 OA
ATOM     32  O   UNL     1       7.804   4.253  16.420  0.00  0.00    +0.000 OA
BRANCH  30  33
ATOM     33  C   UNL     1       6.092   3.725  14.522  0.00  0.00    +0.000 C 
ATOM     34  C   UNL     1       5.240   4.297  13.426  0.00  0.00    +0.000 C 
ATOM     35  C   UNL     1       6.401   3.405  13.088  0.00  0.00    +0.000 C 
ENDBRANCH  30  33
ENDBRANCH  28  30
ENDBRANCH  27  28
ENDBRANCH  25  27
ENDBRANCH   1  25
TORSDOF 8
ENDMDL
MODEL 2
REMARK VINA RESULT:      -9.5      0.849      1.211
REMARK  Name = 
REMARK  10 active torsions:
REMARK  status: ('A' for Active; 'I' for Inactive)
REMARK    1  A    between atoms: C_1  and  C_2
REMARK    2  A    between atoms: C_2  and  C_3
REMARK    3  A    between atoms: C_2  and  C_4
REMARK    4  A    between atoms: C_2  and  C_12
REMARK    5  A    between atoms: C_4  and  N_5
REMARK    6  A    between atoms: N_5  and  S_6
REMARK    7  A    between atoms: S_6  and  C_9
REMARK    8  A    between atoms: C_12  and  C_13
REMARK    9  A    between atoms: C_12  and  C_19
REMARK   10  A    between atoms: N_26  and  C_27
REMARK                            x       y       z     vdW  Elec       q    Type
REMARK                         _______ _______ _______ _____ _____    ______ ____
ROOT
ATOM      1  C   UNL     1       3.026   5.569  17.987  0.00  0.00    +0.000 C 
ENDROOT
BRANCH   1   2
ATOM      2  C   UNL     1       2.625   6.997  18.405  0.00  0.00    +0.000 A 
ATOM      3  C   UNL     1       2.420   8.047  17.499  0.00  0.00    +0.000 A 
ATOM      4  C   UNL     1       1.840   9.252  17.873  0.00  0.00    +0.000 A 
ATOM      5  C   UNL     1       1.472   9.397  19.211  0.00  0.00    +0.000 A 
ATOM      6  C   UNL     1       1.657   8.392  20.158  0.00  0.00    +0.000 A 
ATOM      7  C   UNL     1       1.002   8.880  21.302  0.00  0.00    +0.000 A 
ATOM      8  N   UNL     1       0.422  10.073  21.112  0.00  0.00    +0.000 NA
ATOM      9  N   UNL     1       0.868  10.437  19.890  0.00  0.00    +0.000 N 
ATOM     10  C   UNL     1       2.326   7.219  19.770  0.00  0.00    +0.000 A 
BRANCH   9  11
ATOM     11  C   UNL     1       0.724  11.741  19.369  0.00  0.00    +0.000 A 
ATOM     12  C   UNL     1      -0.431  12.028  18.624  0.00  0.00    +0.000 A 
ATOM     13  C   UNL     1      -0.760  13.345  18.342  0.00  0.00    +0.000 A 
ATOM     14  C   UNL     1       0.070  14.356  18.804  0.00  0.00    +0.000 A 
ATOM     15  F   UNL     1      -0.302  15.631  18.631  0.00  0.00    +0.000 F 
ATOM     16  C   UNL     1       1.265  14.070  19.467  0.00  0.00    +0.000 A 
ATOM     17  C   UNL     1       1.621  12.746  19.734  0.00  0.00    +0.000 A 
ENDBRANCH   9  11
ENDBRANCH   1   2
BRANCH   1  18
ATOM     18  C   UNL     1       2.151   4.482  18.630  0.00  0.00    +0.000 A 
ATOM     19  C   UNL     1       1.690   4.584  19.950  0.00  0.00    +0.000 A 
ATOM     20  C   UNL     1       1.048   3.506  20.564  0.00  0.00    +0.000 A 
ATOM     21  C   UNL     1       0.847   2.317  19.865  0.00  0.00    +0.000 A 
ATOM     22  C   UNL     1       1.226   2.226  18.530  0.00  0.00    +0.000 A 
ATOM     23  C   UNL     1       1.856   3.308  17.911  0.00  0.00    +0.000 A 
ENDBRANCH   1  18
BRANCH   1  25
ATOM     24  C   UNL     1       5.024   4.576  19.325  0.00  0.00    +0.000 C 
ATOM     25  C   UNL     1       4.581   5.206  17.976  0.00  0.00    +0.000 C 
ATOM     26  C   UNL     1       5.466   6.472  17.821  0.00  0.00    +0.000 C 
BRANCH  25  27
ATOM     27  C   UNL     1       4.947   4.165  16.869  0.00  0.00    +0.000 C 
BRANCH  27  28
ATOM     28  N   UNL     1       6.342   4.301  16.380  0.00  0.00    +0.000 NA
ATOM     29  H   UNL     1       6.878   3.429  16.400  0.00  0.00    +0.000 HD
BRANCH  28  30
ATOM     30  S   UNL     1       6.495   4.903  14.801  0.00  0.00    +0.000 S 
ATOM     31  O   UNL     1       5.430   5.864  14.628  0.00  0.00    +0.000 OA
ATOM     32  O   UNL     1       7.881   5.284  14.626  0.00  0.00    +0.000 OA
BRANCH  30  33
ATOM     33  C   UNL     1       6.223   3.506  13.677  0.00  0.00    +0.000 C 
ATOM     34  C   UNL     1       5.165   3.764  12.643  0.00  0.00    +0.000 C 
ATOM     35  C   UNL     1       6.612   3.714  12.242  0.00  0.00    +0.000 C 
ENDBRANCH  30  33
ENDBRANCH  28  30
ENDBRANCH  27  28
ENDBRANCH  25  27
ENDBRANCH   1  25
TORSDOF 8
ENDMDL
MODEL 3
REMARK VINA RESULT:      -9.4      0.490      1.265
REMARK  Name = 
REMARK  10 active torsions:
REMARK  status: ('A' for Active; 'I' for Inactive)
REMARK    1  A    between atoms: C_1  and  C_2
REMARK    2  A    between atoms: C_2  and  C_3
REMARK    3  A    between atoms: C_2  and  C_4
REMARK    4  A    between atoms: C_2  and  C_12
REMARK    5  A    between atoms: C_4  and  N_5
REMARK    6  A    between atoms: N_5  and  S_6
REMARK    7  A    between atoms: S_6  and  C_9
REMARK    8  A    between atoms: C_12  and  C_13
REMARK    9  A    between atoms: C_12  and  C_19
REMARK   10  A    between atoms: N_26  and  C_27
REMARK                            x       y       z     vdW  Elec       q    Type
REMARK                         _______ _______ _______ _____ _____    ______ ____
ROOT
ATOM      1  C   UNL     1       2.844   5.694  18.133  0.00  0.00    +0.000 C 
ENDROOT
BRANCH   1   2
ATOM      2  C   UNL     1       2.478   7.093  18.666  0.00  0.00    +0.000 A 
ATOM      3  C   UNL     1       2.377   8.234  17.858  0.00  0.00    +0.000 A 
ATOM      4  C   UNL     1       1.826   9.424  18.312  0.00  0.00    +0.000 A 
ATOM      5  C   UNL     1       1.377   9.458  19.633  0.00  0.00    +0.000 A 
ATOM      6  C   UNL     1       1.456   8.359  20.486  0.00  0.00    +0.000 A 
ATOM      7  C   UNL     1       0.750   8.766  21.631  0.00  0.00    +0.000 A 
ATOM      8  N   UNL     1       0.234   9.999  21.525  0.00  0.00    +0.000 NA
ATOM      9  N   UNL     1       0.774  10.456  20.374  0.00  0.00    +0.000 N 
ATOM     10  C   UNL     1       2.099   7.197  20.026  0.00  0.00    +0.000 A 
BRANCH   9  11
ATOM     11  C   UNL     1       0.721  11.809  19.977  0.00  0.00    +0.000 A 
ATOM     12  C   UNL     1       1.746  12.663  20.412  0.00  0.00    +0.000 A 
ATOM     13  C   UNL     1       1.903  13.909  19.822  0.00  0.00    +0.000 A 
ATOM     14  C   UNL     1       1.030  14.286  18.812  0.00  0.00    +0.000 A 
ATOM     15  F   UNL     1       1.245  15.439  18.165  0.00  0.00    +0.000 F 
ATOM     16  C   UNL     1      -0.045  13.477  18.440  0.00  0.00    +0.000 A 
ATOM     17  C   UNL     1      -0.228  12.231  19.044  0.00  0.00    +0.000 A 
ENDBRANCH   9  11
ENDBRANCH   1   2
BRANCH   1  18
ATOM     18  C   UNL     1       2.122   4.557  18.873  0.00  0.00    +0.000 A 
ATOM     19  C   UNL     1       2.280   4.348  20.250  0.00  0.00    +0.000 A 
ATOM     20  C   UNL     1       1.753   3.207  20.860  0.00  0.00    +0.000 A 
ATOM     21  C   UNL     1       1.053   2.267  20.107  0.00  0.00    +0.000 A 
ATOM     22  C   UNL     1       0.818   2.498  18.756  0.00  0.00    +0.000 A 
ATOM     23  C   UNL     1       1.331   3.644  18.147  0.00  0.00    +0.000 A 
ENDBRANCH   1  18
BRANCH   1  25
ATOM     24  C   UNL     1       4.685   3.865  17.945  0.00  0.00    +0.000 C 
ATOM     25  C   UNL     1       4.384   5.387  17.849  0.00  0.00    +0.000 C 
ATOM     26  C   UNL     1       5.307   6.039  18.913  0.00  0.00    +0.000 C 
BRANCH  25  27
ATOM     27  C   UNL     1       4.831   5.827  16.418  0.00  0.00    +0.000 C 
BRANCH  27  28
ATOM     28  N   UNL     1       6.281   6.129  16.327  0.00  0.00    +0.000 NA
ATOM     29  H   UNL     1       6.735   6.276  17.233  0.00  0.00    +0.000 HD
BRANCH  28  30
ATOM     30  S   UNL     1       7.211   4.956  15.528  0.00  0.00    +0.000 S 
ATOM     31  O   UNL     1       7.960   5.656  14.510  0.00  0.00    +0.000 OA
ATOM     32  O   UNL     1       7.883   4.180  16.550  0.00  0.00    +0.000 OA
BRANCH  30  33
ATOM     33  C   UNL     1       6.047   3.816  14.731  0.00  0.00    +0.000 C 
ATOM     34  C   UNL     1       5.264   4.441  13.613  0.00  0.00    +0.000 C 
ATOM     35  C   UNL     1       6.343   3.441  13.308  0.00  0.00    +0.000 C 
ENDBRANCH  30  33
ENDBRANCH  28  30
ENDBRANCH  27  28
ENDBRANCH  25  27
ENDBRANCH   1  25
TORSDOF 8
ENDMDL
MODEL 4
REMARK VINA RESULT:      -9.3      1.539      2.459
REMARK  Name = 
REMARK  10 active torsions:
REMARK  status: ('A' for Active; 'I' for Inactive)
REMARK    1  A    between atoms: C_1  and  C_2
REMARK    2  A    between atoms: C_2  and  C_3
REMARK    3  A    between atoms: C_2  and  C_4
REMARK    4  A    between atoms: C_2  and  C_12
REMARK    5  A    between atoms: C_4  and  N_5
REMARK    6  A    between atoms: N_5  and  S_6
REMARK    7  A    between atoms: S_6  and  C_9
REMARK    8  A    between atoms: C_12  and  C_13
REMARK    9  A    between atoms: C_12  and  C_19
REMARK   10  A    between atoms: N_26  and  C_27
REMARK                            x       y       z     vdW  Elec       q    Type
REMARK                         _______ _______ _______ _____ _____    ______ ____
ROOT
ATOM      1  C   UNL     1       2.448   5.576  18.357  0.00  0.00    +0.000 C 
ENDROOT
BRANCH   1   2
ATOM      2  C   UNL     1       2.198   7.058  18.700  0.00  0.00    +0.000 A 
ATOM      3  C   UNL     1       2.037   8.066  17.740  0.00  0.00    +0.000 A 
ATOM      4  C   UNL     1       1.587   9.339  18.062  0.00  0.00    +0.000 A 
ATOM      5  C   UNL     1       1.307   9.598  19.404  0.00  0.00    +0.000 A 
ATOM      6  C   UNL     1       1.454   8.638  20.405  0.00  0.00    +0.000 A 
ATOM      7  C   UNL     1       0.908   9.252  21.546  0.00  0.00    +0.000 A 
ATOM      8  N   UNL     1       0.426  10.480  21.308  0.00  0.00    +0.000 NA
ATOM      9  N   UNL     1       0.835  10.727  20.044  0.00  0.00    +0.000 N 
ATOM     10  C   UNL     1       1.995   7.388  20.062  0.00  0.00    +0.000 A 
BRANCH   9  11
ATOM     11  C   UNL     1       0.778  12.005  19.447  0.00  0.00    +0.000 A 
ATOM     12  C   UNL     1      -0.455  12.676  19.445  0.00  0.00    +0.000 A 
ATOM     13  C   UNL     1      -0.503  14.029  19.142  0.00  0.00    +0.000 A 
ATOM     14  C   UNL     1       0.679  14.690  18.840  0.00  0.00    +0.000 A 
ATOM     15  F   UNL     1       0.652  16.016  18.658  0.00  0.00    +0.000 F 
ATOM     16  C   UNL     1       1.893  14.007  18.754  0.00  0.00    +0.000 A 
ATOM     17  C   UNL     1       1.951  12.639  19.032  0.00  0.00    +0.000 A 
ENDBRANCH   9  11
ENDBRANCH   1   2
BRANCH   1  18
ATOM     18  C   UNL     1       1.972   4.612  19.454  0.00  0.00    +0.000 A 
ATOM     19  C   UNL     1       2.489   4.655  20.756  0.00  0.00    +0.000 A 
ATOM     20  C   UNL     1       2.168   3.658  21.681  0.00  0.00    +0.000 A 
ATOM     21  C   UNL     1       1.319   2.613  21.322  0.00  0.00    +0.000 A 
ATOM     22  C   UNL     1       0.735   2.598  20.060  0.00  0.00    +0.000 A 
ATOM     23  C   UNL     1       1.043   3.601  19.139  0.00  0.00    +0.000 A 
ENDBRANCH   1  18
BRANCH   1  25
ATOM     24  C   UNL     1       4.373   6.270  16.750  0.00  0.00    +0.000 C 
ATOM     25  C   UNL     1       3.868   5.185  17.742  0.00  0.00    +0.000 C 
ATOM     26  C   UNL     1       3.793   3.884  16.899  0.00  0.00    +0.000 C 
BRANCH  25  27
ATOM     27  C   UNL     1       4.978   5.046  18.834  0.00  0.00    +0.000 C 
BRANCH  27  28
ATOM     28  N   UNL     1       6.116   4.197  18.402  0.00  0.00    +0.000 NA
ATOM     29  H   UNL     1       5.910   3.600  17.596  0.00  0.00    +0.000 HD
BRANCH  28  30
ATOM     30  S   UNL     1       7.532   5.041  18.003  0.00  0.00    +0.000 S 
ATOM     31  O   UNL     1       8.542   4.609  18.942  0.00  0.00    +0.000 OA
ATOM     32  O   UNL     1       7.726   4.893  16.576  0.00  0.00    +0.000 OA
BRANCH  30  33
ATOM     33  C   UNL     1       7.187   6.802  18.272  0.00  0.00    +0.000 C 
ATOM     34  C   UNL     1       8.410   7.611  18.596  0.00  0.00    +0.000 C 
ATOM     35  C   UNL     1       7.745   7.757  17.257  0.00  0.00    +0.000 C 
ENDBRANCH  30  33
ENDBRANCH  28  30
ENDBRANCH  27  28
ENDBRANCH  25  27
ENDBRANCH   1  25
TORSDOF 8
ENDMDL
MODEL 5
REMARK VINA RESULT:      -9.3      0.840      1.247
REMARK  Name = 
REMARK  10 active torsions:
REMARK  status: ('A' for Active; 'I' for Inactive)
REMARK    1  A    between atoms: C_1  and  C_2
REMARK    2  A    between atoms: C_2  and  C_3
REMARK    3  A    between atoms: C_2  and  C_4
REMARK    4  A    between atoms: C_2  and  C_12
REMARK    5  A    between atoms: C_4  and  N_5
REMARK    6  A    between atoms: N_5  and  S_6
REMARK    7  A    between atoms: S_6  and  C_9
REMARK    8  A    between atoms: C_12  and  C_13
REMARK    9  A    between atoms: C_12  and  C_19
REMARK   10  A    between atoms: N_26  and  C_27
REMARK                            x       y       z     vdW  Elec       q    Type
REMARK                         _______ _______ _______ _____ _____    ______ ____
ROOT
ATOM      1  C   UNL     1       2.803   5.884  18.252  0.00  0.00    +0.000 C 
ENDROOT
BRANCH   1   2
ATOM      2  C   UNL     1       2.346   7.264  18.765  0.00  0.00    +0.000 A 
ATOM      3  C   UNL     1       2.074   8.357  17.931  0.00  0.00    +0.000 A 
ATOM      4  C   UNL     1       1.448   9.507  18.389  0.00  0.00    +0.000 A 
ATOM      5  C   UNL     1       1.101   9.553  19.740  0.00  0.00    +0.000 A 
ATOM      6  C   UNL     1       1.351   8.501  20.619  0.00  0.00    +0.000 A 
ATOM      7  C   UNL     1       0.699   8.887  21.803  0.00  0.00    +0.000 A 
ATOM      8  N   UNL     1       0.061  10.061  21.698  0.00  0.00    +0.000 NA
ATOM      9  N   UNL     1       0.464  10.519  20.493  0.00  0.00    +0.000 N 
ATOM     10  C   UNL     1       2.065   7.387  20.147  0.00  0.00    +0.000 A 
BRANCH   9  11
ATOM     11  C   UNL     1       0.250  11.844  20.057  0.00  0.00    +0.000 A 
ATOM     12  C   UNL     1       1.054  12.855  20.606  0.00  0.00    +0.000 A 
ATOM     13  C   UNL     1       1.090  14.108  20.012  0.00  0.00    +0.000 A 
ATOM     14  C   UNL     1       0.317  14.335  18.881  0.00  0.00    +0.000 A 
ATOM     15  F   UNL     1       0.434  15.505  18.240  0.00  0.00    +0.000 F 
ATOM     16  C   UNL     1      -0.551  13.360  18.386  0.00  0.00    +0.000 A 
ATOM     17  C   UNL     1      -0.614  12.103  18.991  0.00  0.00    +0.000 A 
ENDBRANCH   9  11
ENDBRANCH   1   2
BRANCH   1  18
ATOM     18  C   UNL     1       2.252   4.716  19.084  0.00  0.00    +0.000 A 
ATOM     19  C   UNL     1       1.406   3.744  18.531  0.00  0.00    +0.000 A 
ATOM     20  C   UNL     1       0.781   2.798  19.348  0.00  0.00    +0.000 A 
ATOM     21  C   UNL     1       1.002   2.803  20.724  0.00  0.00    +0.000 A 
ATOM     22  C   UNL     1       1.899   3.709  21.278  0.00  0.00    +0.000 A 
ATOM     23  C   UNL     1       2.535   4.646  20.462  0.00  0.00    +0.000 A 
ENDBRANCH   1  18
BRANCH   1  25
ATOM     24  C   UNL     1       5.184   5.221  19.066  0.00  0.00    +0.000 C 
ATOM     25  C   UNL     1       4.340   5.710  17.856  0.00  0.00    +0.000 C 
ATOM     26  C   UNL     1       4.985   7.060  17.445  0.00  0.00    +0.000 C 
BRANCH  25  27
ATOM     27  C   UNL     1       4.553   4.654  16.724  0.00  0.00    +0.000 C 
BRANCH  27  28
ATOM     28  N   UNL     1       5.981   4.463  16.367  0.00  0.00    +0.000 NA
ATOM     29  H   UNL     1       6.299   3.491  16.424  0.00  0.00    +0.000 HD
BRANCH  28  30
ATOM     30  S   UNL     1       6.414   5.001  14.818  0.00  0.00    +0.000 S 
ATOM     31  O   UNL     1       5.410   5.963  14.426  0.00  0.00    +0.000 OA
ATOM     32  O   UNL     1       7.815   5.363  14.871  0.00  0.00    +0.000 OA
BRANCH  30  33
ATOM     33  C   UNL     1       6.320   3.563  13.716  0.00  0.00    +0.000 C 
ATOM     34  C   UNL     1       5.208   3.648  12.711  0.00  0.00    +0.000 C 
ATOM     35  C   UNL     1       6.635   3.805  12.269  0.00  0.00    +0.000 C 
ENDBRANCH  30  33
ENDBRANCH  28  30
ENDBRANCH  27  28
ENDBRANCH  25  27
ENDBRANCH   1  25
TORSDOF 8
ENDMDL
MODEL 6
REMARK VINA RESULT:      -8.9      1.398      1.877
REMARK  Name = 
REMARK  10 active torsions:
REMARK  status: ('A' for Active; 'I' for Inactive)
REMARK    1  A    between atoms: C_1  and  C_2
REMARK    2  A    between atoms: C_2  and  C_3
REMARK    3  A    between atoms: C_2  and  C_4
REMARK    4  A    between atoms: C_2  and  C_12
REMARK    5  A    between atoms: C_4  and  N_5
REMARK    6  A    between atoms: N_5  and  S_6
REMARK    7  A    between atoms: S_6  and  C_9
REMARK    8  A    between atoms: C_12  and  C_13
REMARK    9  A    between atoms: C_12  and  C_19
REMARK   10  A    between atoms: N_26  and  C_27
REMARK                            x       y       z     vdW  Elec       q    Type
REMARK                         _______ _______ _______ _____ _____    ______ ____
ROOT
ATOM      1  C   UNL     1       4.242   5.587  17.781  0.00  0.00    +0.000 C 
ENDROOT
BRANCH   1   2
ATOM      2  C   UNL     1       3.429   6.774  18.336  0.00  0.00    +0.000 A 
ATOM      3  C   UNL     1       3.025   7.871  17.564  0.00  0.00    +0.000 A 
ATOM      4  C   UNL     1       2.106   8.807  18.021  0.00  0.00    +0.000 A 
ATOM      5  C   UNL     1       1.596   8.627  19.307  0.00  0.00    +0.000 A 
ATOM      6  C   UNL     1       1.965   7.559  20.123  0.00  0.00    +0.000 A 
ATOM      7  C   UNL     1       1.103   7.664  21.229  0.00  0.00    +0.000 A 
ATOM      8  N   UNL     1       0.237   8.682  21.131  0.00  0.00    +0.000 NA
ATOM      9  N   UNL     1       0.672   9.347  20.039  0.00  0.00    +0.000 N 
ATOM     10  C   UNL     1       2.962   6.679  19.669  0.00  0.00    +0.000 A 
BRANCH   9  11
ATOM     11  C   UNL     1       0.223  10.638  19.687  0.00  0.00    +0.000 A 
ATOM     12  C   UNL     1       1.039  11.731  20.018  0.00  0.00    +0.000 A 
ATOM     13  C   UNL     1       0.795  12.972  19.448  0.00  0.00    +0.000 A 
ATOM     14  C   UNL     1      -0.263  13.105  18.561  0.00  0.00    +0.000 A 
ATOM     15  F   UNL     1      -0.434  14.270  17.924  0.00  0.00    +0.000 F 
ATOM     16  C   UNL     1      -1.131  12.042  18.299  0.00  0.00    +0.000 A 
ATOM     17  C   UNL     1      -0.910  10.794  18.887  0.00  0.00    +0.000 A 
ENDBRANCH   9  11
ENDBRANCH   1   2
BRANCH   1  18
ATOM     18  C   UNL     1       3.660   4.220  18.172  0.00  0.00    +0.000 A 
ATOM     19  C   UNL     1       2.589   3.642  17.477  0.00  0.00    +0.000 A 
ATOM     20  C   UNL     1       1.968   2.487  17.960  0.00  0.00    +0.000 A 
ATOM     21  C   UNL     1       2.416   1.888  19.136  0.00  0.00    +0.000 A 
ATOM     22  C   UNL     1       3.528   2.402  19.795  0.00  0.00    +0.000 A 
ATOM     23  C   UNL     1       4.158   3.548  19.306  0.00  0.00    +0.000 A 
ENDBRANCH   1  18
BRANCH   1  25
ATOM     24  C   UNL     1       6.292   5.611  19.383  0.00  0.00    +0.000 C 
ATOM     25  C   UNL     1       5.832   5.655  17.899  0.00  0.00    +0.000 C 
ATOM     26  C   UNL     1       6.393   6.995  17.352  0.00  0.00    +0.000 C 
BRANCH  25  27
ATOM     27  C   UNL     1       6.540   4.456  17.189  0.00  0.00    +0.000 C 
BRANCH  27  28
ATOM     28  N   UNL     1       5.816   3.983  15.984  0.00  0.00    +0.000 NA
ATOM     29  H   UNL     1       4.800   4.095  16.036  0.00  0.00    +0.000 HD
BRANCH  28  30
ATOM     30  S   UNL     1       6.289   4.713  14.528  0.00  0.00    +0.000 S 
ATOM     31  O   UNL     1       5.250   5.659  14.191  0.00  0.00    +0.000 OA
ATOM     32  O   UNL     1       7.663   5.140  14.694  0.00  0.00    +0.000 OA
BRANCH  30  33
ATOM     33  C   UNL     1       6.329   3.404  13.272  0.00  0.00    +0.000 C 
ATOM     34  C   UNL     1       5.321   3.592  12.176  0.00  0.00    +0.000 C 
ATOM     35  C   UNL     1       6.781   3.807  11.898  0.00  0.00    +0.000 C 
ENDBRANCH  30  33
ENDBRANCH  28  30
ENDBRANCH  27  28
ENDBRANCH  25  27
ENDBRANCH   1  25
TORSDOF 8
ENDMDL
MODEL 7
REMARK VINA RESULT:      -8.8      0.999      1.373
REMARK  Name = 
REMARK  10 active torsions:
REMARK  status: ('A' for Active; 'I' for Inactive)
REMARK    1  A    between atoms: C_1  and  C_2
REMARK    2  A    between atoms: C_2  and  C_3
REMARK    3  A    between atoms: C_2  and  C_4
REMARK    4  A    between atoms: C_2  and  C_12
REMARK    5  A    between atoms: C_4  and  N_5
REMARK    6  A    between atoms: N_5  and  S_6
REMARK    7  A    between atoms: S_6  and  C_9
REMARK    8  A    between atoms: C_12  and  C_13
REMARK    9  A    between atoms: C_12  and  C_19
REMARK   10  A    between atoms: N_26  and  C_27
REMARK                            x       y       z     vdW  Elec       q    Type
REMARK                         _______ _______ _______ _____ _____    ______ ____
ROOT
ATOM      1  C   UNL     1       2.386   5.440  18.454  0.00  0.00    +0.000 C 
ENDROOT
BRANCH   1   2
ATOM      2  C   UNL     1       2.186   6.941  18.741  0.00  0.00    +0.000 A 
ATOM      3  C   UNL     1       1.985   7.906  17.745  0.00  0.00    +0.000 A 
ATOM      4  C   UNL     1       1.581   9.203  18.033  0.00  0.00    +0.000 A 
ATOM      5  C   UNL     1       1.389   9.530  19.376  0.00  0.00    +0.000 A 
ATOM      6  C   UNL     1       1.579   8.615  20.410  0.00  0.00    +0.000 A 
ATOM      7  C   UNL     1       1.118   9.294  21.551  0.00  0.00    +0.000 A 
ATOM      8  N   UNL     1       0.645  10.519  21.285  0.00  0.00    +0.000 NA
ATOM      9  N   UNL     1       0.979  10.698  19.988  0.00  0.00    +0.000 N 
ATOM     10  C   UNL     1       2.074   7.339  20.095  0.00  0.00    +0.000 A 
BRANCH   9  11
ATOM     11  C   UNL     1       0.911  11.947  19.335  0.00  0.00    +0.000 A 
ATOM     12  C   UNL     1      -0.287  12.673  19.429  0.00  0.00    +0.000 A 
ATOM     13  C   UNL     1      -0.313  14.011  19.063  0.00  0.00    +0.000 A 
ATOM     14  C   UNL     1       0.855  14.603  18.604  0.00  0.00    +0.000 A 
ATOM     15  F   UNL     1       0.862  15.919  18.357  0.00  0.00    +0.000 F 
ATOM     16  C   UNL     1       2.024  13.861  18.425  0.00  0.00    +0.000 A 
ATOM     17  C   UNL     1       2.056  12.507  18.766  0.00  0.00    +0.000 A 
ENDBRANCH   9  11
ENDBRANCH   1   2
BRANCH   1  18
ATOM     18  C   UNL     1       1.917   4.536  19.605  0.00  0.00    +0.000 A 
ATOM     19  C   UNL     1       2.452   4.640  20.896  0.00  0.00    +0.000 A 
ATOM     20  C   UNL     1       2.137   3.694  21.874  0.00  0.00    +0.000 A 
ATOM     21  C   UNL     1       1.274   2.640  21.580  0.00  0.00    +0.000 A 
ATOM     22  C   UNL     1       0.672   2.567  20.328  0.00  0.00    +0.000 A 
ATOM     23  C   UNL     1       0.975   3.519  19.354  0.00  0.00    +0.000 A 
ENDBRANCH   1  18
BRANCH   1  25
ATOM     24  C   UNL     1       3.562   3.968  16.660  0.00  0.00    +0.000 C 
ATOM     25  C   UNL     1       3.776   4.984  17.816  0.00  0.00    +0.000 C 
ATOM     26  C   UNL     1       4.662   4.231  18.844  0.00  0.00    +0.000 C 
BRANCH  25  27
ATOM     27  C   UNL     1       4.576   6.178  17.202  0.00  0.00    +0.000 C 
BRANCH  27  28
ATOM     28  N   UNL     1       5.969   6.266  17.704  0.00  0.00    +0.000 NA
ATOM     29  H   UNL     1       6.140   5.727  18.558  0.00  0.00    +0.000 HD
BRANCH  28  30
ATOM     30  S   UNL     1       7.164   5.778  16.602  0.00  0.00    +0.000 S 
ATOM     31  O   UNL     1       8.015   6.926  16.391  0.00  0.00    +0.000 OA
ATOM     32  O   UNL     1       7.704   4.526  17.090  0.00  0.00    +0.000 OA
BRANCH  30  33
ATOM     33  C   UNL     1       6.314   5.375  15.051  0.00  0.00    +0.000 C 
ATOM     34  C   UNL     1       7.244   4.959  13.947  0.00  0.00    +0.000 C 
ATOM     35  C   UNL     1       6.363   3.940  14.613  0.00  0.00    +0.000 C 
ENDBRANCH  30  33
ENDBRANCH  28  30
ENDBRANCH  27  28
ENDBRANCH  25  27
ENDBRANCH   1  25
TORSDOF 8
ENDMDL
MODEL 8
REMARK VINA RESULT:      -8.8      1.525      2.508
REMARK  Name = 
REMARK  10 active torsions:
REMARK  status: ('A' for Active; 'I' for Inactive)
REMARK    1  A    between atoms: C_1  and  C_2
REMARK    2  A    between atoms: C_2  and  C_3
REMARK    3  A    between atoms: C_2  and  C_4
REMARK    4  A    between atoms: C_2  and  C_12
REMARK    5  A    between atoms: C_4  and  N_5
REMARK    6  A    between atoms: N_5  and  S_6
REMARK    7  A    between atoms: S_6  and  C_9
REMARK    8  A    between atoms: C_12  and  C_13
REMARK    9  A    between atoms: C_12  and  C_19
REMARK   10  A    between atoms: N_26  and  C_27
REMARK                            x       y       z     vdW  Elec       q    Type
REMARK                         _______ _______ _______ _____ _____    ______ ____
ROOT
ATOM      1  C   UNL     1       2.532   5.673  18.140  0.00  0.00    +0.000 C 
ENDROOT
BRANCH   1   2
ATOM      2  C   UNL     1       2.184   7.068  18.696  0.00  0.00    +0.000 A 
ATOM      3  C   UNL     1       1.797   8.153  17.897  0.00  0.00    +0.000 A 
ATOM      4  C   UNL     1       1.269   9.321  18.430  0.00  0.00    +0.000 A 
ATOM      5  C   UNL     1       1.145   9.392  19.818  0.00  0.00    +0.000 A 
ATOM      6  C   UNL     1       1.517   8.349  20.664  0.00  0.00    +0.000 A 
ATOM      7  C   UNL     1       1.069   8.763  21.930  0.00  0.00    +0.000 A 
ATOM      8  N   UNL     1       0.439   9.946  21.909  0.00  0.00    +0.000 NA
ATOM      9  N   UNL     1       0.650  10.380  20.647  0.00  0.00    +0.000 N 
ATOM     10  C   UNL     1       2.130   7.216  20.103  0.00  0.00    +0.000 A 
BRANCH   9  11
ATOM     11  C   UNL     1       0.388  11.702  20.227  0.00  0.00    +0.000 A 
ATOM     12  C   UNL     1       1.454  12.447  19.697  0.00  0.00    +0.000 A 
ATOM     13  C   UNL     1       1.197  13.624  19.010  0.00  0.00    +0.000 A 
ATOM     14  C   UNL     1      -0.118  14.044  18.868  0.00  0.00    +0.000 A 
ATOM     15  F   UNL     1      -0.378  15.118  18.112  0.00  0.00    +0.000 F 
ATOM     16  C   UNL     1      -1.171  13.353  19.471  0.00  0.00    +0.000 A 
ATOM     17  C   UNL     1      -0.922  12.180  20.187  0.00  0.00    +0.000 A 
ENDBRANCH   9  11
ENDBRANCH   1   2
BRANCH   1  18
ATOM     18  C   UNL     1       1.986   4.524  19.002  0.00  0.00    +0.000 A 
ATOM     19  C   UNL     1       1.133   3.543  18.479  0.00  0.00    +0.000 A 
ATOM     20  C   UNL     1       0.514   2.617  19.321  0.00  0.00    +0.000 A 
ATOM     21  C   UNL     1       0.748   2.649  20.695  0.00  0.00    +0.000 A 
ATOM     22  C   UNL     1       1.653   3.565  21.221  0.00  0.00    +0.000 A 
ATOM     23  C   UNL     1       2.283   4.483  20.378  0.00  0.00    +0.000 A 
ENDBRANCH   1  18
BRANCH   1  25
ATOM     24  C   UNL     1       4.544   6.635  16.799  0.00  0.00    +0.000 C 
ATOM     25  C   UNL     1       4.025   5.428  17.630  0.00  0.00    +0.000 C 
ATOM     26  C   UNL     1       4.113   4.217  16.664  0.00  0.00    +0.000 C 
BRANCH  25  27
ATOM     27  C   UNL     1       5.039   5.243  18.806  0.00  0.00    +0.000 C 
BRANCH  27  28
ATOM     28  N   UNL     1       6.187   4.371  18.453  0.00  0.00    +0.000 NA
ATOM     29  H   UNL     1       6.013   3.755  17.655  0.00  0.00    +0.000 HD
BRANCH  28  30
ATOM     30  S   UNL     1       7.631   5.189  18.102  0.00  0.00    +0.000 S 
ATOM     31  O   UNL     1       8.595   4.753  19.085  0.00  0.00    +0.000 OA
ATOM     32  O   UNL     1       7.879   5.020  16.685  0.00  0.00    +0.000 OA
BRANCH  30  33
ATOM     33  C   UNL     1       7.303   6.958  18.335  0.00  0.00    +0.000 C 
ATOM     34  C   UNL     1       8.539   7.768  18.602  0.00  0.00    +0.000 C 
ATOM     35  C   UNL     1       7.835   7.883  17.280  0.00  0.00    +0.000 C 
ENDBRANCH  30  33
ENDBRANCH  28  30
ENDBRANCH  27  28
ENDBRANCH  25  27
ENDBRANCH   1  25
TORSDOF 8
ENDMDL
MODEL 9
REMARK VINA RESULT:      -8.8      3.080      5.144
REMARK  Name = 
REMARK  10 active torsions:
REMARK  status: ('A' for Active; 'I' for Inactive)
REMARK    1  A    between atoms: C_1  and  C_2
REMARK    2  A    between atoms: C_2  and  C_3
REMARK    3  A    between atoms: C_2  and  C_4
REMARK    4  A    between atoms: C_2  and  C_12
REMARK    5  A    between atoms: C_4  and  N_5
REMARK    6  A    between atoms: N_5  and  S_6
REMARK    7  A    between atoms: S_6  and  C_9
REMARK    8  A    between atoms: C_12  and  C_13
REMARK    9  A    between atoms: C_12  and  C_19
REMARK   10  A    between atoms: N_26  and  C_27
REMARK                            x       y       z     vdW  Elec       q    Type
REMARK                         _______ _______ _______ _____ _____    ______ ____
ROOT
ATOM      1  C   UNL     1       4.273   5.469  18.462  0.00  0.00    +0.000 C 
ENDROOT
BRANCH   1   2
ATOM      2  C   UNL     1       3.207   6.525  18.815  0.00  0.00    +0.000 A 
ATOM      3  C   UNL     1       2.545   6.584  20.049  0.00  0.00    +0.000 A 
ATOM      4  C   UNL     1       1.766   7.670  20.427  0.00  0.00    +0.000 A 
ATOM      5  C   UNL     1       1.646   8.719  19.515  0.00  0.00    +0.000 A 
ATOM      6  C   UNL     1       2.275   8.715  18.272  0.00  0.00    +0.000 A 
ATOM      7  C   UNL     1       2.037  10.004  17.767  0.00  0.00    +0.000 A 
ATOM      8  N   UNL     1       1.346  10.785  18.610  0.00  0.00    +0.000 NA
ATOM      9  N   UNL     1       0.978   9.926  19.586  0.00  0.00    +0.000 N 
ATOM     10  C   UNL     1       2.983   7.565  17.882  0.00  0.00    +0.000 A 
BRANCH   9  11
ATOM     11  C   UNL     1       0.016  10.238  20.571  0.00  0.00    +0.000 A 
ATOM     12  C   UNL     1       0.132   9.614  21.823  0.00  0.00    +0.000 A 
ATOM     13  C   UNL     1      -0.596  10.094  22.902  0.00  0.00    +0.000 A 
ATOM     14  C   UNL     1      -1.431  11.186  22.714  0.00  0.00    +0.000 A 
ATOM     15  F   UNL     1      -2.048  11.721  23.775  0.00  0.00    +0.000 F 
ATOM     16  C   UNL     1      -1.616  11.752  21.451  0.00  0.00    +0.000 A 
ATOM     17  C   UNL     1      -0.908  11.260  20.351  0.00  0.00    +0.000 A 
ENDBRANCH   9  11
ENDBRANCH   1   2
BRANCH   1  18
ATOM     18  C   UNL     1       5.678   6.064  18.287  0.00  0.00    +0.000 A 
ATOM     19  C   UNL     1       6.761   5.662  19.082  0.00  0.00    +0.000 A 
ATOM     20  C   UNL     1       7.979   6.342  19.020  0.00  0.00    +0.000 A 
ATOM     21  C   UNL     1       8.138   7.423  18.155  0.00  0.00    +0.000 A 
ATOM     22  C   UNL     1       7.101   7.785  17.302  0.00  0.00    +0.000 A 
ATOM     23  C   UNL     1       5.887   7.098  17.353  0.00  0.00    +0.000 A 
ENDBRANCH   1  18
BRANCH   1  25
ATOM     24  C   UNL     1       4.386   4.821  15.945  0.00  0.00    +0.000 C 
ATOM     25  C   UNL     1       3.902   4.381  17.355  0.00  0.00    +0.000 C 
ATOM     26  C   UNL     1       2.367   4.207  17.210  0.00  0.00    +0.000 C 
BRANCH  25  27
ATOM     27  C   UNL     1       4.570   2.994  17.628  0.00  0.00    +0.000 C 
BRANCH  27  28
ATOM     28  N   UNL     1       5.071   2.852  19.018  0.00  0.00    +0.000 NA
ATOM     29  H   UNL     1       5.274   3.742  19.481  0.00  0.00    +0.000 HD
BRANCH  28  30
ATOM     30  S   UNL     1       4.046   2.005  20.070  0.00  0.00    +0.000 S 
ATOM     31  O   UNL     1       3.348   1.031  19.262  0.00  0.00    +0.000 OA
ATOM     32  O   UNL     1       4.847   1.597  21.206  0.00  0.00    +0.000 OA
BRANCH  30  33
ATOM     33  C   UNL     1       2.850   3.205  20.718  0.00  0.00    +0.000 C 
ATOM     34  C   UNL     1       1.419   2.809  20.493  0.00  0.00    +0.000 C 
ATOM     35  C   UNL     1       2.006   2.753  21.875  0.00  0.00    +0.000 C 
ENDBRANCH  30  33
ENDBRANCH  28  30
ENDBRANCH  27  28
ENDBRANCH  25  27
ENDBRANCH   1  25
TORSDOF 8
ENDMDL
