MODEL 1
REMARK VINA RESULT:      -4.0      0.000      0.000
REMARK  Name = 
REMARK  2 active torsions:
REMARK  status: ('A' for Active; 'I' for Inactive)
REMARK    1  A    between atoms: O_1  and  C_2
REMARK    2  A    between atoms: C_2  and  CA_3
REMARK                            x       y       z     vdW  Elec       q    Type
REMARK                         _______ _______ _______ _____ _____    ______ ____
ROOT
ATOM      1  CA  UNL     1       6.967   4.564  15.899  0.00  0.00    +0.000 A 
ATOM      2  C   UNL     1       6.098   3.628  15.375  0.00  0.00    +0.000 A 
ATOM      3  N   UNL     1       6.166   3.785  14.020  0.00  0.00    +0.000 N 
ATOM      4  C   UNL     1       7.053   4.790  13.767  0.00  0.00    +0.000 A 
ATOM      5  N   UNL     1       7.555   5.281  14.878  0.00  0.00    +0.000 NA
ATOM      6  H   UNL     1       5.654   3.256  13.327  0.00  0.00    +0.000 HD
ENDROOT
BRANCH   1   7
ATOM      7  C   UNL     1       7.302   4.851  17.321  0.00  0.00    +0.000 C 
BRANCH   7   8
ATOM      8  O   UNL     1       8.364   4.032  17.813  0.00  0.00    +0.000 OA
ATOM      9  H   UNL     1       8.406   3.264  17.220  0.00  0.00    +0.000 HD
ENDBRANCH   7   8
ENDBRANCH   1   7
TORSDOF 2
ENDMDL
MODEL 2
REMARK VINA RESULT:      -3.9     12.128     12.623
REMARK  Name = 
REMARK  2 active torsions:
REMARK  status: ('A' for Active; 'I' for Inactive)
REMARK    1  A    between atoms: O_1  and  C_2
REMARK    2  A    between atoms: C_2  and  CA_3
REMARK                            x       y       z     vdW  Elec       q    Type
REMARK                         _______ _______ _______ _____ _____    ______ ____
ROOT
ATOM      1  CA  UNL     1       7.350   4.852  27.962  0.00  0.00    +0.000 A 
ATOM      2  C   UNL     1       8.279   5.686  28.552  0.00  0.00    +0.000 A 
ATOM      3  N   UNL     1       9.497   5.219  28.149  0.00  0.00    +0.000 N 
ATOM      4  C   UNL     1       9.278   4.138  27.345  0.00  0.00    +0.000 A 
ATOM      5  N   UNL     1       7.995   3.890  27.212  0.00  0.00    +0.000 NA
ATOM      6  H   UNL     1      10.400   5.601  28.399  0.00  0.00    +0.000 HD
ENDROOT
BRANCH   1   7
ATOM      7  C   UNL     1       5.864   4.882  28.046  0.00  0.00    +0.000 C 
BRANCH   7   8
ATOM      8  O   UNL     1       5.323   6.177  27.779  0.00  0.00    +0.000 OA
ATOM      9  H   UNL     1       5.252   6.243  26.813  0.00  0.00    +0.000 HD
ENDBRANCH   7   8
ENDBRANCH   1   7
TORSDOF 2
ENDMDL
MODEL 3
REMARK VINA RESULT:      -3.9     12.135     12.596
REMARK  Name = 
REMARK  2 active torsions:
REMARK  status: ('A' for Active; 'I' for Inactive)
REMARK    1  A    between atoms: O_1  and  C_2
REMARK    2  A    between atoms: C_2  and  CA_3
REMARK                            x       y       z     vdW  Elec       q    Type
REMARK                         _______ _______ _______ _____ _____    ______ ____
ROOT
ATOM      1  CA  UNL     1       8.669   4.820  27.854  0.00  0.00    +0.000 A 
ATOM      2  C   UNL     1       7.989   5.730  28.639  0.00  0.00    +0.000 A 
ATOM      3  N   UNL     1       6.669   5.406  28.515  0.00  0.00    +0.000 N 
ATOM      4  C   UNL     1       6.586   4.333  27.675  0.00  0.00    +0.000 A 
ATOM      5  N   UNL     1       7.774   3.954  27.260  0.00  0.00    +0.000 NA
ATOM      6  H   UNL     1       5.891   5.873  28.961  0.00  0.00    +0.000 HD
ENDROOT
BRANCH   1   7
ATOM      7  C   UNL     1      10.131   4.689  27.607  0.00  0.00    +0.000 C 
BRANCH   7   8
ATOM      8  O   UNL     1      10.603   3.353  27.793  0.00  0.00    +0.000 OA
ATOM      9  H   UNL     1       9.910   2.892  28.292  0.00  0.00    +0.000 HD
ENDBRANCH   7   8
ENDBRANCH   1   7
TORSDOF 2
ENDMDL
MODEL 4
REMARK VINA RESULT:      -3.9     12.403     12.815
REMARK  Name = 
REMARK  2 active torsions:
REMARK  status: ('A' for Active; 'I' for Inactive)
REMARK    1  A    between atoms: O_1  and  C_2
REMARK    2  A    between atoms: C_2  and  CA_3
REMARK                            x       y       z     vdW  Elec       q    Type
REMARK                         _______ _______ _______ _____ _____    ______ ____
ROOT
ATOM      1  CA  UNL     1      10.142   4.492  27.772  0.00  0.00    +0.000 A 
ATOM      2  C   UNL     1      10.905   3.354  27.940  0.00  0.00    +0.000 A 
ATOM      3  N   UNL     1      12.203   3.778  27.925  0.00  0.00    +0.000 N 
ATOM      4  C   UNL     1      12.190   5.132  27.751  0.00  0.00    +0.000 A 
ATOM      5  N   UNL     1      10.964   5.594  27.655  0.00  0.00    +0.000 NA
ATOM      6  H   UNL     1      13.025   3.199  28.024  0.00  0.00    +0.000 HD
ENDROOT
BRANCH   1   7
ATOM      7  C   UNL     1       8.662   4.639  27.709  0.00  0.00    +0.000 C 
BRANCH   7   8
ATOM      8  O   UNL     1       8.057   3.728  26.789  0.00  0.00    +0.000 OA
ATOM      9  H   UNL     1       7.743   4.269  26.045  0.00  0.00    +0.000 HD
ENDBRANCH   7   8
ENDBRANCH   1   7
TORSDOF 2
ENDMDL
MODEL 5
REMARK VINA RESULT:      -3.9      6.564      7.100
REMARK  Name = 
REMARK  2 active torsions:
REMARK  status: ('A' for Active; 'I' for Inactive)
REMARK    1  A    between atoms: O_1  and  C_2
REMARK    2  A    between atoms: C_2  and  CA_3
REMARK                            x       y       z     vdW  Elec       q    Type
REMARK                         _______ _______ _______ _____ _____    ______ ____
ROOT
ATOM      1  CA  UNL     1       2.924   2.952  20.106  0.00  0.00    +0.000 A 
ATOM      2  C   UNL     1       1.716   3.219  19.492  0.00  0.00    +0.000 A 
ATOM      3  N   UNL     1       0.773   3.087  20.470  0.00  0.00    +0.000 N 
ATOM      4  C   UNL     1       1.420   2.749  21.623  0.00  0.00    +0.000 A 
ATOM      5  N   UNL     1       2.718   2.660  21.439  0.00  0.00    +0.000 NA
ATOM      6  H   UNL     1      -0.225   3.214  20.363  0.00  0.00    +0.000 HD
ENDROOT
BRANCH   1   7
ATOM      7  C   UNL     1       4.297   2.947  19.531  0.00  0.00    +0.000 C 
BRANCH   7   8
ATOM      8  O   UNL     1       5.072   1.828  19.965  0.00  0.00    +0.000 OA
ATOM      9  H   UNL     1       4.646   1.508  20.777  0.00  0.00    +0.000 HD
ENDBRANCH   7   8
ENDBRANCH   1   7
TORSDOF 2
ENDMDL
MODEL 6
REMARK VINA RESULT:      -3.8      2.388      3.105
REMARK  Name = 
REMARK  2 active torsions:
REMARK  status: ('A' for Active; 'I' for Inactive)
REMARK    1  A    between atoms: O_1  and  C_2
REMARK    2  A    between atoms: C_2  and  CA_3
REMARK                            x       y       z     vdW  Elec       q    Type
REMARK                         _______ _______ _______ _____ _____    ______ ____
ROOT
ATOM      1  CA  UNL     1       6.618   4.423  15.629  0.00  0.00    +0.000 A 
ATOM      2  C   UNL     1       5.585   4.098  16.485  0.00  0.00    +0.000 A 
ATOM      3  N   UNL     1       6.114   4.175  17.742  0.00  0.00    +0.000 N 
ATOM      4  C   UNL     1       7.424   4.535  17.615  0.00  0.00    +0.000 A 
ATOM      5  N   UNL     1       7.761   4.693  16.355  0.00  0.00    +0.000 NA
ATOM      6  H   UNL     1       5.627   3.998  18.610  0.00  0.00    +0.000 HD
ENDROOT
BRANCH   1   7
ATOM      7  C   UNL     1       6.626   4.504  14.143  0.00  0.00    +0.000 C 
BRANCH   7   8
ATOM      8  O   UNL     1       6.293   3.261  13.522  0.00  0.00    +0.000 OA
ATOM      9  H   UNL     1       5.777   3.487  12.731  0.00  0.00    +0.000 HD
ENDBRANCH   7   8
ENDBRANCH   1   7
TORSDOF 2
ENDMDL
MODEL 7
REMARK VINA RESULT:      -3.8      2.240      2.981
REMARK  Name = 
REMARK  2 active torsions:
REMARK  status: ('A' for Active; 'I' for Inactive)
REMARK    1  A    between atoms: O_1  and  C_2
REMARK    2  A    between atoms: C_2  and  CA_3
REMARK                            x       y       z     vdW  Elec       q    Type
REMARK                         _______ _______ _______ _____ _____    ______ ____
ROOT
ATOM      1  CA  UNL     1       6.661   4.523  15.678  0.00  0.00    +0.000 A 
ATOM      2  C   UNL     1       5.581   4.046  16.395  0.00  0.00    +0.000 A 
ATOM      3  N   UNL     1       5.965   4.088  17.704  0.00  0.00    +0.000 N 
ATOM      4  C   UNL     1       7.239   4.576  17.744  0.00  0.00    +0.000 A 
ATOM      5  N   UNL     1       7.689   4.848  16.540  0.00  0.00    +0.000 NA
ATOM      6  H   UNL     1       5.410   3.809  18.502  0.00  0.00    +0.000 HD
ENDROOT
BRANCH   1   7
ATOM      7  C   UNL     1       6.816   4.703  14.208  0.00  0.00    +0.000 C 
BRANCH   7   8
ATOM      8  O   UNL     1       7.912   5.555  13.871  0.00  0.00    +0.000 OA
ATOM      9  H   UNL     1       8.595   5.391  14.542  0.00  0.00    +0.000 HD
ENDBRANCH   7   8
ENDBRANCH   1   7
TORSDOF 2
ENDMDL
MODEL 8
REMARK VINA RESULT:      -3.8      2.794      3.444
REMARK  Name = 
REMARK  2 active torsions:
REMARK  status: ('A' for Active; 'I' for Inactive)
REMARK    1  A    between atoms: O_1  and  C_2
REMARK    2  A    between atoms: C_2  and  CA_3
REMARK                            x       y       z     vdW  Elec       q    Type
REMARK                         _______ _______ _______ _____ _____    ______ ____
ROOT
ATOM      1  CA  UNL     1       6.920   5.049  18.523  0.00  0.00    +0.000 A 
ATOM      2  C   UNL     1       6.920   4.629  17.208  0.00  0.00    +0.000 A 
ATOM      3  N   UNL     1       5.762   3.925  17.049  0.00  0.00    +0.000 N 
ATOM      4  C   UNL     1       5.106   3.937  18.246  0.00  0.00    +0.000 A 
ATOM      5  N   UNL     1       5.777   4.606  19.156  0.00  0.00    +0.000 NA
ATOM      6  H   UNL     1       5.443   3.475  16.201  0.00  0.00    +0.000 HD
ENDROOT
BRANCH   1   7
ATOM      7  C   UNL     1       7.932   5.856  19.259  0.00  0.00    +0.000 C 
BRANCH   7   8
ATOM      8  O   UNL     1       8.097   5.428  20.613  0.00  0.00    +0.000 OA
ATOM      9  H   UNL     1       7.668   6.106  21.161  0.00  0.00    +0.000 HD
ENDBRANCH   7   8
ENDBRANCH   1   7
TORSDOF 2
ENDMDL
MODEL 9
REMARK VINA RESULT:      -3.8      6.547      7.131
REMARK  Name = 
REMARK  2 active torsions:
REMARK  status: ('A' for Active; 'I' for Inactive)
REMARK    1  A    between atoms: O_1  and  C_2
REMARK    2  A    between atoms: C_2  and  CA_3
REMARK                            x       y       z     vdW  Elec       q    Type
REMARK                         _______ _______ _______ _____ _____    ______ ____
ROOT
ATOM      1  CA  UNL     1       2.553   2.452  19.451  0.00  0.00    +0.000 A 
ATOM      2  C   UNL     1       1.186   2.641  19.429  0.00  0.00    +0.000 A 
ATOM      3  N   UNL     1       0.841   2.964  20.710  0.00  0.00    +0.000 N 
ATOM      4  C   UNL     1       1.983   2.960  21.457  0.00  0.00    +0.000 A 
ATOM      5  N   UNL     1       3.034   2.655  20.729  0.00  0.00    +0.000 NA
ATOM      6  H   UNL     1      -0.090   3.169  21.048  0.00  0.00    +0.000 HD
ENDROOT
BRANCH   1   7
ATOM      7  C   UNL     1       3.476   2.084  18.342  0.00  0.00    +0.000 C 
BRANCH   7   8
ATOM      8  O   UNL     1       3.926   0.730  18.427  0.00  0.00    +0.000 OA
ATOM      9  H   UNL     1       3.886   0.379  17.522  0.00  0.00    +0.000 HD
ENDBRANCH   7   8
ENDBRANCH   1   7
TORSDOF 2
ENDMDL
