MODEL 1
REMARK VINA RESULT:      -7.0      0.000      0.000
REMARK  Name = 
REMARK  4 active torsions:
REMARK  status: ('A' for Active; 'I' for Inactive)
REMARK    1  A    between atoms: C_1  and  C_2
REMARK    2  A    between atoms: C_11  and  C_12
REMARK    3  A    between atoms: C_11  and  C_13
REMARK    4  A    between atoms: C_13  and  N_14
REMARK                            x       y       z     vdW  Elec       q    Type
REMARK                         _______ _______ _______ _____ _____    ______ ____
ROOT
ATOM      1  C   UNL     1       0.547   2.142  18.913  0.00  0.00    +0.000 C 
ATOM      2  C   UNL     1       1.681   2.948  18.370  0.00  0.00    +0.000 A 
ATOM      3  C   UNL     1       2.812   2.354  17.832  0.00  0.00    +0.000 A 
ATOM      4  N   UNL     1       3.863   3.043  17.338  0.00  0.00    +0.000 NA
ATOM      5  C   UNL     1       3.805   4.403  17.338  0.00  0.00    +0.000 A 
ATOM      6  C   UNL     1       2.716   5.089  17.888  0.00  0.00    +0.000 A 
ATOM      7  C   UNL     1       1.645   4.341  18.391  0.00  0.00    +0.000 A 
ATOM      8  C   UNL     1       2.632   6.591  17.920  0.00  0.00    +0.000 C 
ATOM      9  C   UNL     1       3.980   7.264  17.704  0.00  0.00    +0.000 C 
ATOM     10  C   UNL     1       4.682   6.625  16.511  0.00  0.00    +0.000 C 
ATOM     11  C   UNL     1       5.048   5.146  16.811  0.00  0.00    +0.000 C 
ATOM     12  C   UNL     1       5.483   4.486  15.480  0.00  0.00    +0.000 C 
ENDROOT
BRANCH  11  13
ATOM     13  C   UNL     1       6.219   5.080  17.842  0.00  0.00    +0.000 C 
ATOM     14  S   UNL     1       7.462   6.207  17.944  0.00  0.00    +0.000 S 
BRANCH  13  15
ATOM     15  N   UNL     1       6.234   4.071  18.764  0.00  0.00    +0.000 N 
ATOM     16  H   UNL     1       7.084   3.536  18.932  0.00  0.00    +0.000 HD
ATOM     17  H   UNL     1       5.547   4.083  19.504  0.00  0.00    +0.000 HD
ENDBRANCH  13  15
ENDBRANCH  11  13
TORSDOF 2
ENDMDL
MODEL 2
REMARK VINA RESULT:      -6.7      2.547      4.414
REMARK  Name = 
REMARK  4 active torsions:
REMARK  status: ('A' for Active; 'I' for Inactive)
REMARK    1  A    between atoms: C_1  and  C_2
REMARK    2  A    between atoms: C_11  and  C_12
REMARK    3  A    between atoms: C_11  and  C_13
REMARK    4  A    between atoms: C_13  and  N_14
REMARK                            x       y       z     vdW  Elec       q    Type
REMARK                         _______ _______ _______ _____ _____    ______ ____
ROOT
ATOM      1  C   UNL     1       6.322   3.385  12.167  0.00  0.00    +0.000 C 
ATOM      2  C   UNL     1       6.325   4.035  13.512  0.00  0.00    +0.000 A 
ATOM      3  C   UNL     1       7.332   4.903  13.906  0.00  0.00    +0.000 A 
ATOM      4  N   UNL     1       7.379   5.506  15.113  0.00  0.00    +0.000 NA
ATOM      5  C   UNL     1       6.365   5.275  15.992  0.00  0.00    +0.000 A 
ATOM      6  C   UNL     1       5.323   4.390  15.693  0.00  0.00    +0.000 A 
ATOM      7  C   UNL     1       5.309   3.783  14.431  0.00  0.00    +0.000 A 
ATOM      8  C   UNL     1       4.201   4.100  16.652  0.00  0.00    +0.000 C 
ATOM      9  C   UNL     1       4.525   4.505  18.083  0.00  0.00    +0.000 C 
ATOM     10  C   UNL     1       5.110   5.913  18.092  0.00  0.00    +0.000 C 
ATOM     11  C   UNL     1       6.488   5.944  17.375  0.00  0.00    +0.000 C 
ATOM     12  C   UNL     1       6.879   7.427  17.167  0.00  0.00    +0.000 C 
ENDROOT
BRANCH  11  13
ATOM     13  C   UNL     1       7.567   5.230  18.250  0.00  0.00    +0.000 C 
ATOM     14  S   UNL     1       7.957   5.667  19.826  0.00  0.00    +0.000 S 
BRANCH  13  15
ATOM     15  N   UNL     1       8.221   4.145  17.739  0.00  0.00    +0.000 N 
ATOM     16  H   UNL     1       7.782   3.225  17.747  0.00  0.00    +0.000 HD
ATOM     17  H   UNL     1       8.951   4.297  17.058  0.00  0.00    +0.000 HD
ENDBRANCH  13  15
ENDBRANCH  11  13
TORSDOF 2
ENDMDL
MODEL 3
REMARK VINA RESULT:      -6.7      1.535      1.535
REMARK  Name = 
REMARK  4 active torsions:
REMARK  status: ('A' for Active; 'I' for Inactive)
REMARK    1  A    between atoms: C_1  and  C_2
REMARK    2  A    between atoms: C_11  and  C_12
REMARK    3  A    between atoms: C_11  and  C_13
REMARK    4  A    between atoms: C_13  and  N_14
REMARK                            x       y       z     vdW  Elec       q    Type
REMARK                         _______ _______ _______ _____ _____    ______ ____
ROOT
ATOM      1  C   UNL     1       1.671   2.716  21.573  0.00  0.00    +0.000 C 
ATOM      2  C   UNL     1       2.520   3.365  20.528  0.00  0.00    +0.000 A 
ATOM      3  C   UNL     1       3.672   2.766  20.043  0.00  0.00    +0.000 A 
ATOM      4  N   UNL     1       4.473   3.319  19.107  0.00  0.00    +0.000 NA
ATOM      5  C   UNL     1       4.118   4.524  18.581  0.00  0.00    +0.000 A 
ATOM      6  C   UNL     1       2.988   5.217  19.032  0.00  0.00    +0.000 A 
ATOM      7  C   UNL     1       2.183   4.611  20.004  0.00  0.00    +0.000 A 
ATOM      8  C   UNL     1       2.582   6.558  18.484  0.00  0.00    +0.000 C 
ATOM      9  C   UNL     1       3.710   7.259  17.739  0.00  0.00    +0.000 C 
ATOM     10  C   UNL     1       4.370   6.277  16.777  0.00  0.00    +0.000 C 
ATOM     11  C   UNL     1       5.088   5.139  17.553  0.00  0.00    +0.000 C 
ATOM     12  C   UNL     1       5.477   4.043  16.533  0.00  0.00    +0.000 C 
ENDROOT
BRANCH  11  13
ATOM     13  C   UNL     1       6.371   5.690  18.253  0.00  0.00    +0.000 C 
ATOM     14  S   UNL     1       7.365   6.886  17.613  0.00  0.00    +0.000 S 
BRANCH  13  15
ATOM     15  N   UNL     1       6.706   5.216  19.490  0.00  0.00    +0.000 N 
ATOM     16  H   UNL     1       7.023   5.852  20.220  0.00  0.00    +0.000 HD
ATOM     17  H   UNL     1       6.318   4.333  19.790  0.00  0.00    +0.000 HD
ENDBRANCH  13  15
ENDBRANCH  11  13
TORSDOF 2
ENDMDL
MODEL 4
REMARK VINA RESULT:      -6.6      1.044      1.054
REMARK  Name = 
REMARK  4 active torsions:
REMARK  status: ('A' for Active; 'I' for Inactive)
REMARK    1  A    between atoms: C_1  and  C_2
REMARK    2  A    between atoms: C_11  and  C_12
REMARK    3  A    between atoms: C_11  and  C_13
REMARK    4  A    between atoms: C_13  and  N_14
REMARK                            x       y       z     vdW  Elec       q    Type
REMARK                         _______ _______ _______ _____ _____    ______ ____
ROOT
ATOM      1  C   UNL     1       0.858   3.108  19.830  0.00  0.00    +0.000 C 
ATOM      2  C   UNL     1       2.014   3.585  19.012  0.00  0.00    +0.000 A 
ATOM      3  C   UNL     1       2.992   2.719  18.549  0.00  0.00    +0.000 A 
ATOM      4  N   UNL     1       4.057   3.107  17.815  0.00  0.00    +0.000 NA
ATOM      5  C   UNL     1       4.169   4.422  17.481  0.00  0.00    +0.000 A 
ATOM      6  C   UNL     1       3.246   5.373  17.930  0.00  0.00    +0.000 A 
ATOM      7  C   UNL     1       2.155   4.932  18.689  0.00  0.00    +0.000 A 
ATOM      8  C   UNL     1       3.355   6.835  17.594  0.00  0.00    +0.000 C 
ATOM      9  C   UNL     1       4.742   7.230  17.108  0.00  0.00    +0.000 C 
ATOM     10  C   UNL     1       5.216   6.230  16.058  0.00  0.00    +0.000 C 
ATOM     11  C   UNL     1       5.427   4.825  16.686  0.00  0.00    +0.000 C 
ATOM     12  C   UNL     1       5.619   3.814  15.531  0.00  0.00    +0.000 C 
ENDROOT
BRANCH  11  13
ATOM     13  C   UNL     1       6.692   4.829  17.602  0.00  0.00    +0.000 C 
ATOM     14  S   UNL     1       6.707   5.350  19.201  0.00  0.00    +0.000 S 
BRANCH  13  15
ATOM     15  N   UNL     1       7.868   4.338  17.109  0.00  0.00    +0.000 N 
ATOM     16  H   UNL     1       8.219   4.648  16.205  0.00  0.00    +0.000 HD
ATOM     17  H   UNL     1       8.544   3.961  17.758  0.00  0.00    +0.000 HD
ENDBRANCH  13  15
ENDBRANCH  11  13
TORSDOF 2
ENDMDL
MODEL 5
REMARK VINA RESULT:      -6.1      2.075      2.847
REMARK  Name = 
REMARK  4 active torsions:
REMARK  status: ('A' for Active; 'I' for Inactive)
REMARK    1  A    between atoms: C_1  and  C_2
REMARK    2  A    between atoms: C_11  and  C_12
REMARK    3  A    between atoms: C_11  and  C_13
REMARK    4  A    between atoms: C_13  and  N_14
REMARK                            x       y       z     vdW  Elec       q    Type
REMARK                         _______ _______ _______ _____ _____    ______ ____
ROOT
ATOM      1  C   UNL     1       1.787   4.338  20.595  0.00  0.00    +0.000 C 
ATOM      2  C   UNL     1       2.812   4.704  19.571  0.00  0.00    +0.000 A 
ATOM      3  C   UNL     1       2.489   4.860  18.233  0.00  0.00    +0.000 A 
ATOM      4  N   UNL     1       3.383   5.181  17.273  0.00  0.00    +0.000 NA
ATOM      5  C   UNL     1       4.677   5.394  17.639  0.00  0.00    +0.000 A 
ATOM      6  C   UNL     1       5.102   5.228  18.963  0.00  0.00    +0.000 A 
ATOM      7  C   UNL     1       4.145   4.895  19.929  0.00  0.00    +0.000 A 
ATOM      8  C   UNL     1       6.528   5.437  19.393  0.00  0.00    +0.000 C 
ATOM      9  C   UNL     1       7.507   5.417  18.227  0.00  0.00    +0.000 C 
ATOM     10  C   UNL     1       6.976   6.300  17.103  0.00  0.00    +0.000 C 
ATOM     11  C   UNL     1       5.671   5.708  16.503  0.00  0.00    +0.000 C 
ATOM     12  C   UNL     1       5.040   6.784  15.587  0.00  0.00    +0.000 C 
ENDROOT
BRANCH  11  13
ATOM     13  C   UNL     1       5.994   4.427  15.670  0.00  0.00    +0.000 C 
ATOM     14  S   UNL     1       6.721   4.435  14.155  0.00  0.00    +0.000 S 
BRANCH  13  15
ATOM     15  N   UNL     1       5.716   3.201  16.207  0.00  0.00    +0.000 N 
ATOM     16  H   UNL     1       6.470   2.586  16.509  0.00  0.00    +0.000 HD
ATOM     17  H   UNL     1       4.808   3.050  16.623  0.00  0.00    +0.000 HD
ENDBRANCH  13  15
ENDBRANCH  11  13
TORSDOF 2
ENDMDL
MODEL 6
REMARK VINA RESULT:      -6.1      1.737      2.987
REMARK  Name = 
REMARK  4 active torsions:
REMARK  status: ('A' for Active; 'I' for Inactive)
REMARK    1  A    between atoms: C_1  and  C_2
REMARK    2  A    between atoms: C_11  and  C_12
REMARK    3  A    between atoms: C_11  and  C_13
REMARK    4  A    between atoms: C_13  and  N_14
REMARK                            x       y       z     vdW  Elec       q    Type
REMARK                         _______ _______ _______ _____ _____    ______ ____
ROOT
ATOM      1  C   UNL     1       1.295   3.219  18.543  0.00  0.00    +0.000 C 
ATOM      2  C   UNL     1       2.675   3.772  18.388  0.00  0.00    +0.000 A 
ATOM      3  C   UNL     1       3.217   4.661  19.302  0.00  0.00    +0.000 A 
ATOM      4  N   UNL     1       4.454   5.191  19.197  0.00  0.00    +0.000 NA
ATOM      5  C   UNL     1       5.234   4.813  18.147  0.00  0.00    +0.000 A 
ATOM      6  C   UNL     1       4.760   3.943  17.158  0.00  0.00    +0.000 A 
ATOM      7  C   UNL     1       3.471   3.414  17.302  0.00  0.00    +0.000 A 
ATOM      8  C   UNL     1       5.591   3.522  15.977  0.00  0.00    +0.000 C 
ATOM      9  C   UNL     1       6.786   4.435  15.739  0.00  0.00    +0.000 C 
ATOM     10  C   UNL     1       7.511   4.677  17.058  0.00  0.00    +0.000 C 
ATOM     11  C   UNL     1       6.618   5.482  18.041  0.00  0.00    +0.000 C 
ATOM     12  C   UNL     1       7.290   5.438  19.435  0.00  0.00    +0.000 C 
ENDROOT
BRANCH  11  13
ATOM     13  C   UNL     1       6.489   6.963  17.563  0.00  0.00    +0.000 C 
ATOM     14  S   UNL     1       7.732   8.094  17.621  0.00  0.00    +0.000 S 
BRANCH  13  15
ATOM     15  N   UNL     1       5.310   7.381  17.015  0.00  0.00    +0.000 N 
ATOM     16  H   UNL     1       4.721   6.732  16.496  0.00  0.00    +0.000 HD
ATOM     17  H   UNL     1       4.859   8.197  17.403  0.00  0.00    +0.000 HD
ENDBRANCH  13  15
ENDBRANCH  11  13
TORSDOF 2
ENDMDL
MODEL 7
REMARK VINA RESULT:      -6.0      2.689      4.770
REMARK  Name = 
REMARK  4 active torsions:
REMARK  status: ('A' for Active; 'I' for Inactive)
REMARK    1  A    between atoms: C_1  and  C_2
REMARK    2  A    between atoms: C_11  and  C_12
REMARK    3  A    between atoms: C_11  and  C_13
REMARK    4  A    between atoms: C_13  and  N_14
REMARK                            x       y       z     vdW  Elec       q    Type
REMARK                         _______ _______ _______ _____ _____    ______ ____
ROOT
ATOM      1  C   UNL     1       7.361   4.790  16.472  0.00  0.00    +0.000 C 
ATOM      2  C   UNL     1       6.108   4.637  17.272  0.00  0.00    +0.000 A 
ATOM      3  C   UNL     1       6.004   5.111  18.570  0.00  0.00    +0.000 A 
ATOM      4  N   UNL     1       4.895   4.988  19.331  0.00  0.00    +0.000 NA
ATOM      5  C   UNL     1       3.800   4.390  18.788  0.00  0.00    +0.000 A 
ATOM      6  C   UNL     1       3.822   3.854  17.495  0.00  0.00    +0.000 A 
ATOM      7  C   UNL     1       4.990   4.001  16.737  0.00  0.00    +0.000 A 
ATOM      8  C   UNL     1       2.634   3.170  16.876  0.00  0.00    +0.000 C 
ATOM      9  C   UNL     1       1.593   2.746  17.903  0.00  0.00    +0.000 C 
ATOM     10  C   UNL     1       1.320   3.904  18.857  0.00  0.00    +0.000 C 
ATOM     11  C   UNL     1       2.576   4.227  19.711  0.00  0.00    +0.000 C 
ATOM     12  C   UNL     1       2.325   5.573  20.432  0.00  0.00    +0.000 C 
ENDROOT
BRANCH  11  13
ATOM     13  C   UNL     1       2.815   3.099  20.765  0.00  0.00    +0.000 C 
ATOM     14  S   UNL     1       1.675   2.593  21.893  0.00  0.00    +0.000 S 
BRANCH  13  15
ATOM     15  N   UNL     1       4.007   2.432  20.762  0.00  0.00    +0.000 N 
ATOM     16  H   UNL     1       4.749   2.702  20.119  0.00  0.00    +0.000 HD
ATOM     17  H   UNL     1       4.283   1.933  21.595  0.00  0.00    +0.000 HD
ENDBRANCH  13  15
ENDBRANCH  11  13
TORSDOF 2
ENDMDL
MODEL 8
REMARK VINA RESULT:      -6.0      1.162      1.162
REMARK  Name = 
REMARK  4 active torsions:
REMARK  status: ('A' for Active; 'I' for Inactive)
REMARK    1  A    between atoms: C_1  and  C_2
REMARK    2  A    between atoms: C_11  and  C_12
REMARK    3  A    between atoms: C_11  and  C_13
REMARK    4  A    between atoms: C_13  and  N_14
REMARK                            x       y       z     vdW  Elec       q    Type
REMARK                         _______ _______ _______ _____ _____    ______ ____
ROOT
ATOM      1  C   UNL     1       1.653   1.909  19.184  0.00  0.00    +0.000 C 
ATOM      2  C   UNL     1       2.511   2.922  18.499  0.00  0.00    +0.000 A 
ATOM      3  C   UNL     1       3.640   2.562  17.780  0.00  0.00    +0.000 A 
ATOM      4  N   UNL     1       4.448   3.444  17.153  0.00  0.00    +0.000 NA
ATOM      5  C   UNL     1       4.125   4.766  17.200  0.00  0.00    +0.000 A 
ATOM      6  C   UNL     1       3.020   5.225  17.928  0.00  0.00    +0.000 A 
ATOM      7  C   UNL     1       2.207   4.280  18.565  0.00  0.00    +0.000 A 
ATOM      8  C   UNL     1       2.650   6.680  18.014  0.00  0.00    +0.000 C 
ATOM      9  C   UNL     1       3.791   7.606  17.617  0.00  0.00    +0.000 C 
ATOM     10  C   UNL     1       4.413   7.116  16.314  0.00  0.00    +0.000 C 
ATOM     11  C   UNL     1       5.103   5.739  16.513  0.00  0.00    +0.000 C 
ATOM     12  C   UNL     1       5.450   5.176  15.114  0.00  0.00    +0.000 C 
ENDROOT
BRANCH  11  13
ATOM     13  C   UNL     1       6.409   5.907  17.354  0.00  0.00    +0.000 C 
ATOM     14  S   UNL     1       6.572   5.442  18.961  0.00  0.00    +0.000 S 
BRANCH  13  15
ATOM     15  N   UNL     1       7.521   6.425  16.752  0.00  0.00    +0.000 N 
ATOM     16  H   UNL     1       8.231   5.809  16.359  0.00  0.00    +0.000 HD
ATOM     17  H   UNL     1       7.481   7.366  16.389  0.00  0.00    +0.000 HD
ENDBRANCH  13  15
ENDBRANCH  11  13
TORSDOF 2
ENDMDL
MODEL 9
REMARK VINA RESULT:      -5.9      2.277      4.328
REMARK  Name = 
REMARK  4 active torsions:
REMARK  status: ('A' for Active; 'I' for Inactive)
REMARK    1  A    between atoms: C_1  and  C_2
REMARK    2  A    between atoms: C_11  and  C_12
REMARK    3  A    between atoms: C_11  and  C_13
REMARK    4  A    between atoms: C_13  and  N_14
REMARK                            x       y       z     vdW  Elec       q    Type
REMARK                         _______ _______ _______ _____ _____    ______ ____
ROOT
ATOM      1  C   UNL     1       6.822   4.947  13.822  0.00  0.00    +0.000 C 
ATOM      2  C   UNL     1       6.035   4.853  15.089  0.00  0.00    +0.000 A 
ATOM      3  C   UNL     1       5.892   3.658  15.776  0.00  0.00    +0.000 A 
ATOM      4  N   UNL     1       5.184   3.525  16.918  0.00  0.00    +0.000 NA
ATOM      5  C   UNL     1       4.597   4.632  17.449  0.00  0.00    +0.000 A 
ATOM      6  C   UNL     1       4.663   5.875  16.809  0.00  0.00    +0.000 A 
ATOM      7  C   UNL     1       5.406   5.973  15.626  0.00  0.00    +0.000 A 
ATOM      8  C   UNL     1       4.008   7.111  17.361  0.00  0.00    +0.000 C 
ATOM      9  C   UNL     1       2.946   6.802  18.407  0.00  0.00    +0.000 C 
ATOM     10  C   UNL     1       3.498   5.792  19.408  0.00  0.00    +0.000 C 
ATOM     11  C   UNL     1       3.758   4.422  18.726  0.00  0.00    +0.000 C 
ATOM     12  C   UNL     1       4.576   3.551  19.709  0.00  0.00    +0.000 C 
ENDROOT
BRANCH  11  13
ATOM     13  C   UNL     1       2.404   3.718  18.396  0.00  0.00    +0.000 C 
ATOM     14  S   UNL     1       1.150   3.504  19.496  0.00  0.00    +0.000 S 
BRANCH  13  15
ATOM     15  N   UNL     1       2.180   3.276  17.123  0.00  0.00    +0.000 N 
ATOM     16  H   UNL     1       2.657   3.709  16.334  0.00  0.00    +0.000 HD
ATOM     17  H   UNL     1       1.838   2.335  16.991  0.00  0.00    +0.000 HD
ENDBRANCH  13  15
ENDBRANCH  11  13
TORSDOF 2
ENDMDL
