MODEL 1
REMARK VINA RESULT:      -7.9      0.000      0.000
REMARK  Name = 
REMARK  10 active torsions:
REMARK  status: ('A' for Active; 'I' for Inactive)
REMARK    1  A    between atoms: C_1  and  C_2
REMARK    2  A    between atoms: C_2  and  O_3
REMARK    3  A    between atoms: O_3  and  C_4
REMARK    4  A    between atoms: C_10  and  C_12
REMARK    5  A    between atoms: C_15  and  C_16
REMARK    6  A    between atoms: C_16  and  N_17
REMARK    7  A    between atoms: N_17  and  S_18
REMARK    8  A    between atoms: S_18  and  C_21
REMARK    9  A    between atoms: C_24  and  O_25
REMARK   10  A    between atoms: O_25  and  C_26
REMARK                            x       y       z     vdW  Elec       q    Type
REMARK                         _______ _______ _______ _____ _____    ______ ____
ROOT
ATOM      1  C   UNL     1       1.327   9.226  18.954  0.00  0.00    +0.000 A 
ATOM      2  C   UNL     1       1.967   8.426  18.002  0.00  0.00    +0.000 A 
ATOM      3  C   UNL     1       2.452   7.161  18.349  0.00  0.00    +0.000 A 
ATOM      4  C   UNL     1       2.384   6.710  19.674  0.00  0.00    +0.000 A 
ATOM      5  C   UNL     1       1.824   7.552  20.646  0.00  0.00    +0.000 A 
ATOM      6  C   UNL     1       1.297   8.798  20.287  0.00  0.00    +0.000 A 
ENDROOT
BRANCH   1  13
ATOM      7  C   UNL     1      -4.585  11.262  17.678  0.00  0.00    +0.000 C 
ATOM      8  O   UNL     1      -5.011  12.368  17.373  0.00  0.00    +0.000 OA
ATOM      9  N   UNL     1      -3.274  10.866  17.520  0.00  0.00    +0.000 N 
ATOM     10  C   UNL     1      -2.274  11.827  17.044  0.00  0.00    +0.000 C 
ATOM     11  C   UNL     1      -1.149  12.036  18.077  0.00  0.00    +0.000 C 
ATOM     12  N   UNL     1      -0.627  10.747  18.559  0.00  0.00    +0.000 N 
ATOM     13  C   UNL     1       0.753  10.560  18.620  0.00  0.00    +0.000 C 
ATOM     14  O   UNL     1       1.548  11.470  18.393  0.00  0.00    +0.000 OA
ATOM     15  C   UNL     1      -1.671   9.865  19.105  0.00  0.00    +0.000 C 
ATOM     16  C   UNL     1      -2.740   9.599  18.034  0.00  0.00    +0.000 C 
BRANCH   7  17
ATOM     17  O   UNL     1      -5.333  10.303  18.285  0.00  0.00    +0.000 OA
BRANCH  17  19
ATOM     18  C   UNL     1      -7.047  10.458  19.936  0.00  0.00    +0.000 C 
ATOM     19  C   UNL     1      -6.719  10.621  18.463  0.00  0.00    +0.000 C 
ENDBRANCH  17  19
ENDBRANCH   7  17
ENDBRANCH   1  13
BRANCH   4  20
ATOM     20  C   UNL     1       2.893   5.335  20.043  0.00  0.00    +0.000 C 
BRANCH  20  21
ATOM     21  N   UNL     1       2.874   4.425  18.899  0.00  0.00    +0.000 NA
ATOM     22  H   UNL     1       2.404   4.756  18.053  0.00  0.00    +0.000 HD
BRANCH  21  23
ATOM     23  S   UNL     1       4.285   3.590  18.548  0.00  0.00    +0.000 S 
ATOM     24  O   UNL     1       4.737   3.007  19.792  0.00  0.00    +0.000 OA
ATOM     25  O   UNL     1       4.044   2.781  17.370  0.00  0.00    +0.000 OA
BRANCH  23  26
ATOM     26  C   UNL     1       5.415   4.893  18.128  0.00  0.00    +0.000 A 
ATOM     27  C   UNL     1       5.170   5.677  16.999  0.00  0.00    +0.000 A 
ATOM     28  C   UNL     1       6.056   6.710  16.677  0.00  0.00    +0.000 A 
ATOM     29  C   UNL     1       7.166   6.971  17.486  0.00  0.00    +0.000 A 
ATOM     30  C   UNL     1       7.395   6.192  18.620  0.00  0.00    +0.000 A 
ATOM     31  C   UNL     1       6.520   5.151  18.945  0.00  0.00    +0.000 A 
BRANCH  29  32
ATOM     32  O   UNL     1       7.970   7.991  17.051  0.00  0.00    +0.000 OA
ATOM     33  C   UNL     1       8.270   9.006  18.004  0.00  0.00    +0.000 C 
ENDBRANCH  29  32
ENDBRANCH  23  26
ENDBRANCH  21  23
ENDBRANCH  20  21
ENDBRANCH   4  20
TORSDOF 8
ENDMDL
MODEL 2
REMARK VINA RESULT:      -7.8      2.609      4.666
REMARK  Name = 
REMARK  10 active torsions:
REMARK  status: ('A' for Active; 'I' for Inactive)
REMARK    1  A    between atoms: C_1  and  C_2
REMARK    2  A    between atoms: C_2  and  O_3
REMARK    3  A    between atoms: O_3  and  C_4
REMARK    4  A    between atoms: C_10  and  C_12
REMARK    5  A    between atoms: C_15  and  C_16
REMARK    6  A    between atoms: C_16  and  N_17
REMARK    7  A    between atoms: N_17  and  S_18
REMARK    8  A    between atoms: S_18  and  C_21
REMARK    9  A    between atoms: C_24  and  O_25
REMARK   10  A    between atoms: O_25  and  C_26
REMARK                            x       y       z     vdW  Elec       q    Type
REMARK                         _______ _______ _______ _____ _____    ______ ____
ROOT
ATOM      1  C   UNL     1       0.857   9.445  18.954  0.00  0.00    +0.000 A 
ATOM      2  C   UNL     1       0.802   8.898  20.239  0.00  0.00    +0.000 A 
ATOM      3  C   UNL     1       1.576   7.782  20.570  0.00  0.00    +0.000 A 
ATOM      4  C   UNL     1       2.352   7.139  19.596  0.00  0.00    +0.000 A 
ATOM      5  C   UNL     1       2.336   7.635  18.285  0.00  0.00    +0.000 A 
ATOM      6  C   UNL     1       1.597   8.781  17.967  0.00  0.00    +0.000 A 
ENDROOT
BRANCH   1  13
ATOM      7  C   UNL     1       1.906  15.702  19.644  0.00  0.00    +0.000 C 
ATOM      8  O   UNL     1       1.226  16.674  19.342  0.00  0.00    +0.000 OA
ATOM      9  N   UNL     1       1.403  14.431  19.824  0.00  0.00    +0.000 N 
ATOM     10  C   UNL     1      -0.014  14.162  19.560  0.00  0.00    +0.000 C 
ATOM     11  C   UNL     1      -0.195  13.110  18.449  0.00  0.00    +0.000 C 
ATOM     12  N   UNL     1       0.649  11.930  18.693  0.00  0.00    +0.000 N 
ATOM     13  C   UNL     1       0.087  10.661  18.568  0.00  0.00    +0.000 C 
ATOM     14  O   UNL     1      -1.058  10.490  18.153  0.00  0.00    +0.000 OA
ATOM     15  C   UNL     1       2.073  12.261  18.862  0.00  0.00    +0.000 C 
ATOM     16  C   UNL     1       2.245  13.246  20.030  0.00  0.00    +0.000 C 
BRANCH   7  17
ATOM     17  O   UNL     1       3.259  15.733  19.767  0.00  0.00    +0.000 OA
BRANCH  17  19
ATOM     18  C   UNL     1       4.273  15.430  17.631  0.00  0.00    +0.000 C 
ATOM     19  C   UNL     1       3.958  16.429  18.729  0.00  0.00    +0.000 C 
ENDBRANCH  17  19
ENDBRANCH   7  17
ENDBRANCH   1  13
BRANCH   4  20
ATOM     20  C   UNL     1       3.202   5.942  19.961  0.00  0.00    +0.000 C 
BRANCH  20  21
ATOM     21  N   UNL     1       2.911   4.790  19.109  0.00  0.00    +0.000 NA
ATOM     22  H   UNL     1       2.194   4.917  18.391  0.00  0.00    +0.000 HD
BRANCH  21  23
ATOM     23  S   UNL     1       4.211   3.893  18.548  0.00  0.00    +0.000 S 
ATOM     24  O   UNL     1       4.721   3.155  19.682  0.00  0.00    +0.000 OA
ATOM     25  O   UNL     1       3.801   3.227  17.327  0.00  0.00    +0.000 OA
BRANCH  23  26
ATOM     26  C   UNL     1       5.405   5.144  18.146  0.00  0.00    +0.000 A 
ATOM     27  C   UNL     1       5.162   6.005  17.074  0.00  0.00    +0.000 A 
ATOM     28  C   UNL     1       6.098   6.997  16.766  0.00  0.00    +0.000 A 
ATOM     29  C   UNL     1       7.258   7.141  17.534  0.00  0.00    +0.000 A 
ATOM     30  C   UNL     1       7.485   6.286  18.612  0.00  0.00    +0.000 A 
ATOM     31  C   UNL     1       6.559   5.284  18.922  0.00  0.00    +0.000 A 
BRANCH  29  32
ATOM     32  O   UNL     1       8.107   8.132  17.118  0.00  0.00    +0.000 OA
ATOM     33  C   UNL     1       8.339   9.191  18.040  0.00  0.00    +0.000 C 
ENDBRANCH  29  32
ENDBRANCH  23  26
ENDBRANCH  21  23
ENDBRANCH  20  21
ENDBRANCH   4  20
TORSDOF 8
ENDMDL
MODEL 3
REMARK VINA RESULT:      -7.7      3.201      5.135
REMARK  Name = 
REMARK  10 active torsions:
REMARK  status: ('A' for Active; 'I' for Inactive)
REMARK    1  A    between atoms: C_1  and  C_2
REMARK    2  A    between atoms: C_2  and  O_3
REMARK    3  A    between atoms: O_3  and  C_4
REMARK    4  A    between atoms: C_10  and  C_12
REMARK    5  A    between atoms: C_15  and  C_16
REMARK    6  A    between atoms: C_16  and  N_17
REMARK    7  A    between atoms: N_17  and  S_18
REMARK    8  A    between atoms: S_18  and  C_21
REMARK    9  A    between atoms: C_24  and  O_25
REMARK   10  A    between atoms: O_25  and  C_26
REMARK                            x       y       z     vdW  Elec       q    Type
REMARK                         _______ _______ _______ _____ _____    ______ ____
ROOT
ATOM      1  C   UNL     1       0.763   9.633  19.077  0.00  0.00    +0.000 A 
ATOM      2  C   UNL     1       1.557   9.048  18.085  0.00  0.00    +0.000 A 
ATOM      3  C   UNL     1       2.275   7.878  18.349  0.00  0.00    +0.000 A 
ATOM      4  C   UNL     1       2.282   7.320  19.634  0.00  0.00    +0.000 A 
ATOM      5  C   UNL     1       1.558   7.960  20.651  0.00  0.00    +0.000 A 
ATOM      6  C   UNL     1       0.802   9.105  20.373  0.00  0.00    +0.000 A 
ENDROOT
BRANCH   1  13
ATOM      7  C   UNL     1       1.874  15.880  19.762  0.00  0.00    +0.000 C 
ATOM      8  O   UNL     1       1.155  16.854  19.578  0.00  0.00    +0.000 OA
ATOM      9  N   UNL     1       1.405  14.602  19.980  0.00  0.00    +0.000 N 
ATOM     10  C   UNL     1      -0.034  14.330  19.905  0.00  0.00    +0.000 C 
ATOM     11  C   UNL     1      -0.362  13.302  18.805  0.00  0.00    +0.000 C 
ATOM     12  N   UNL     1       0.513  12.122  18.905  0.00  0.00    +0.000 N 
ATOM     13  C   UNL     1      -0.056  10.853  18.829  0.00  0.00    +0.000 C 
ATOM     14  O   UNL     1      -1.247  10.683  18.570  0.00  0.00    +0.000 OA
ATOM     15  C   UNL     1       1.945  12.460  18.885  0.00  0.00    +0.000 C 
ATOM     16  C   UNL     1       2.271  13.419  20.041  0.00  0.00    +0.000 C 
BRANCH   7  17
ATOM     17  O   UNL     1       3.231  15.918  19.700  0.00  0.00    +0.000 OA
BRANCH  17  19
ATOM     18  C   UNL     1       3.664  15.647  17.371  0.00  0.00    +0.000 C 
ATOM     19  C   UNL     1       3.779  16.586  18.557  0.00  0.00    +0.000 C 
ENDBRANCH  17  19
ENDBRANCH   7  17
ENDBRANCH   1  13
BRANCH   4  20
ATOM     20  C   UNL     1       3.045   6.045  19.912  0.00  0.00    +0.000 C 
BRANCH  20  21
ATOM     21  N   UNL     1       3.617   5.478  18.692  0.00  0.00    +0.000 NA
ATOM     22  H   UNL     1       3.593   6.065  17.855  0.00  0.00    +0.000 HD
BRANCH  21  23
ATOM     23  S   UNL     1       5.061   4.639  18.830  0.00  0.00    +0.000 S 
ATOM     24  O   UNL     1       5.960   5.489  19.579  0.00  0.00    +0.000 OA
ATOM     25  O   UNL     1       4.755   3.288  19.260  0.00  0.00    +0.000 OA
BRANCH  23  26
ATOM     26  C   UNL     1       5.646   4.590  17.155  0.00  0.00    +0.000 A 
ATOM     27  C   UNL     1       6.982   4.891  16.886  0.00  0.00    +0.000 A 
ATOM     28  C   UNL     1       7.444   4.841  15.567  0.00  0.00    +0.000 A 
ATOM     29  C   UNL     1       6.584   4.474  14.527  0.00  0.00    +0.000 A 
ATOM     30  C   UNL     1       5.254   4.160  14.807  0.00  0.00    +0.000 A 
ATOM     31  C   UNL     1       4.781   4.217  16.122  0.00  0.00    +0.000 A 
BRANCH  29  32
ATOM     32  O   UNL     1       7.148   4.485  13.280  0.00  0.00    +0.000 OA
ATOM     33  C   UNL     1       6.559   3.620  12.314  0.00  0.00    +0.000 C 
ENDBRANCH  29  32
ENDBRANCH  23  26
ENDBRANCH  21  23
ENDBRANCH  20  21
ENDBRANCH   4  20
TORSDOF 8
ENDMDL
MODEL 4
REMARK VINA RESULT:      -7.7      0.643      1.083
REMARK  Name = 
REMARK  10 active torsions:
REMARK  status: ('A' for Active; 'I' for Inactive)
REMARK    1  A    between atoms: C_1  and  C_2
REMARK    2  A    between atoms: C_2  and  O_3
REMARK    3  A    between atoms: O_3  and  C_4
REMARK    4  A    between atoms: C_10  and  C_12
REMARK    5  A    between atoms: C_15  and  C_16
REMARK    6  A    between atoms: C_16  and  N_17
REMARK    7  A    between atoms: N_17  and  S_18
REMARK    8  A    between atoms: S_18  and  C_21
REMARK    9  A    between atoms: C_24  and  O_25
REMARK   10  A    between atoms: O_25  and  C_26
REMARK                            x       y       z     vdW  Elec       q    Type
REMARK                         _______ _______ _______ _____ _____    ______ ____
ROOT
ATOM      1  C   UNL     1       1.247   9.371  18.927  0.00  0.00    +0.000 A 
ATOM      2  C   UNL     1       1.921   8.612  17.966  0.00  0.00    +0.000 A 
ATOM      3  C   UNL     1       2.424   7.347  18.285  0.00  0.00    +0.000 A 
ATOM      4  C   UNL     1       2.339   6.855  19.595  0.00  0.00    +0.000 A 
ATOM      5  C   UNL     1       1.742   7.657  20.579  0.00  0.00    +0.000 A 
ATOM      6  C   UNL     1       1.197   8.903  20.246  0.00  0.00    +0.000 A 
ENDROOT
BRANCH   1  13
ATOM      7  C   UNL     1      -4.688  11.338  17.649  0.00  0.00    +0.000 C 
ATOM      8  O   UNL     1      -5.130  12.444  17.367  0.00  0.00    +0.000 OA
ATOM      9  N   UNL     1      -3.369  10.969  17.493  0.00  0.00    +0.000 N 
ATOM     10  C   UNL     1      -2.381  11.958  17.049  0.00  0.00    +0.000 C 
ATOM     11  C   UNL     1      -1.270  12.159  18.097  0.00  0.00    +0.000 C 
ATOM     12  N   UNL     1      -0.729  10.868  18.552  0.00  0.00    +0.000 N 
ATOM     13  C   UNL     1       0.652  10.703  18.621  0.00  0.00    +0.000 C 
ATOM     14  O   UNL     1       1.435  11.632  18.423  0.00  0.00    +0.000 OA
ATOM     15  C   UNL     1      -1.763   9.956  19.067  0.00  0.00    +0.000 C 
ATOM     16  C   UNL     1      -2.819   9.698  17.980  0.00  0.00    +0.000 C 
BRANCH   7  17
ATOM     17  O   UNL     1      -5.425  10.352  18.225  0.00  0.00    +0.000 OA
BRANCH  17  19
ATOM     18  C   UNL     1      -6.955  10.759  20.009  0.00  0.00    +0.000 C 
ATOM     19  C   UNL     1      -6.791  10.684  18.502  0.00  0.00    +0.000 C 
ENDBRANCH  17  19
ENDBRANCH   7  17
ENDBRANCH   1  13
BRANCH   4  20
ATOM     20  C   UNL     1       2.868   5.480  19.933  0.00  0.00    +0.000 C 
BRANCH  20  21
ATOM     21  N   UNL     1       2.240   4.441  19.117  0.00  0.00    +0.000 NA
ATOM     22  H   UNL     1       1.413   4.713  18.580  0.00  0.00    +0.000 HD
BRANCH  21  23
ATOM     23  S   UNL     1       3.249   3.426  18.244  0.00  0.00    +0.000 S 
ATOM     24  O   UNL     1       3.762   2.452  19.182  0.00  0.00    +0.000 OA
ATOM     25  O   UNL     1       2.550   3.029  17.038  0.00  0.00    +0.000 OA
BRANCH  23  26
ATOM     26  C   UNL     1       4.594   4.498  17.802  0.00  0.00    +0.000 A 
ATOM     27  C   UNL     1       5.748   4.509  18.586  0.00  0.00    +0.000 A 
ATOM     28  C   UNL     1       6.811   5.346  18.229  0.00  0.00    +0.000 A 
ATOM     29  C   UNL     1       6.729   6.150  17.088  0.00  0.00    +0.000 A 
ATOM     30  C   UNL     1       5.577   6.121  16.302  0.00  0.00    +0.000 A 
ATOM     31  C   UNL     1       4.505   5.295  16.656  0.00  0.00    +0.000 A 
BRANCH  29  32
ATOM     32  O   UNL     1       7.822   6.941  16.859  0.00  0.00    +0.000 OA
ATOM     33  C   UNL     1       7.851   8.189  17.544  0.00  0.00    +0.000 C 
ENDBRANCH  29  32
ENDBRANCH  23  26
ENDBRANCH  21  23
ENDBRANCH  20  21
ENDBRANCH   4  20
TORSDOF 8
ENDMDL
MODEL 5
REMARK VINA RESULT:      -7.6      2.588      3.019
REMARK  Name = 
REMARK  10 active torsions:
REMARK  status: ('A' for Active; 'I' for Inactive)
REMARK    1  A    between atoms: C_1  and  C_2
REMARK    2  A    between atoms: C_2  and  O_3
REMARK    3  A    between atoms: O_3  and  C_4
REMARK    4  A    between atoms: C_10  and  C_12
REMARK    5  A    between atoms: C_15  and  C_16
REMARK    6  A    between atoms: C_16  and  N_17
REMARK    7  A    between atoms: N_17  and  S_18
REMARK    8  A    between atoms: S_18  and  C_21
REMARK    9  A    between atoms: C_24  and  O_25
REMARK   10  A    between atoms: O_25  and  C_26
REMARK                            x       y       z     vdW  Elec       q    Type
REMARK                         _______ _______ _______ _____ _____    ______ ____
ROOT
ATOM      1  C   UNL     1       1.994   7.479  18.783  0.00  0.00    +0.000 A 
ATOM      2  C   UNL     1       1.976   7.054  20.115  0.00  0.00    +0.000 A 
ATOM      3  C   UNL     1       1.949   5.692  20.425  0.00  0.00    +0.000 A 
ATOM      4  C   UNL     1       1.852   4.731  19.409  0.00  0.00    +0.000 A 
ATOM      5  C   UNL     1       1.779   5.162  18.077  0.00  0.00    +0.000 A 
ATOM      6  C   UNL     1       1.854   6.526  17.767  0.00  0.00    +0.000 A 
ENDROOT
BRANCH   1  13
ATOM      7  C   UNL     1      -1.181  12.685  20.664  0.00  0.00    +0.000 C 
ATOM      8  O   UNL     1      -1.110  13.852  20.299  0.00  0.00    +0.000 OA
ATOM      9  N   UNL     1      -0.757  11.611  19.911  0.00  0.00    +0.000 N 
ATOM     10  C   UNL     1      -0.091  11.839  18.625  0.00  0.00    +0.000 C 
ATOM     11  C   UNL     1       1.339  11.266  18.616  0.00  0.00    +0.000 C 
ATOM     12  N   UNL     1       1.359   9.882  19.115  0.00  0.00    +0.000 N 
ATOM     13  C   UNL     1       2.070   8.918  18.403  0.00  0.00    +0.000 C 
ATOM     14  O   UNL     1       2.773   9.205  17.435  0.00  0.00    +0.000 OA
ATOM     15  C   UNL     1       0.755   9.739  20.450  0.00  0.00    +0.000 C 
ATOM     16  C   UNL     1      -0.699  10.236  20.419  0.00  0.00    +0.000 C 
BRANCH   7  17
ATOM     17  O   UNL     1      -1.617  12.302  21.893  0.00  0.00    +0.000 OA
BRANCH  17  19
ATOM     18  C   UNL     1      -3.233  12.261  23.645  0.00  0.00    +0.000 C 
ATOM     19  C   UNL     1      -2.980  12.625  22.194  0.00  0.00    +0.000 C 
ENDBRANCH  17  19
ENDBRANCH   7  17
ENDBRANCH   1  13
BRANCH   4  20
ATOM     20  C   UNL     1       1.842   3.257  19.747  0.00  0.00    +0.000 C 
BRANCH  20  21
ATOM     21  N   UNL     1       3.059   2.852  20.449  0.00  0.00    +0.000 NA
ATOM     22  H   UNL     1       2.938   2.368  21.342  0.00  0.00    +0.000 HD
BRANCH  21  23
ATOM     23  S   UNL     1       4.294   2.184  19.534  0.00  0.00    +0.000 S 
ATOM     24  O   UNL     1       5.285   1.701  20.471  0.00  0.00    +0.000 OA
ATOM     25  O   UNL     1       3.695   1.312  18.542  0.00  0.00    +0.000 OA
BRANCH  23  26
ATOM     26  C   UNL     1       4.983   3.599  18.713  0.00  0.00    +0.000 A 
ATOM     27  C   UNL     1       4.886   3.700  17.324  0.00  0.00    +0.000 A 
ATOM     28  C   UNL     1       5.420   4.822  16.680  0.00  0.00    +0.000 A 
ATOM     29  C   UNL     1       6.027   5.842  17.419  0.00  0.00    +0.000 A 
ATOM     30  C   UNL     1       6.107   5.739  18.808  0.00  0.00    +0.000 A 
ATOM     31  C   UNL     1       5.585   4.616  19.459  0.00  0.00    +0.000 A 
BRANCH  29  32
ATOM     32  O   UNL     1       6.531   6.873  16.672  0.00  0.00    +0.000 OA
ATOM     33  C   UNL     1       7.351   7.809  17.364  0.00  0.00    +0.000 C 
ENDBRANCH  29  32
ENDBRANCH  23  26
ENDBRANCH  21  23
ENDBRANCH  20  21
ENDBRANCH   4  20
TORSDOF 8
ENDMDL
MODEL 6
REMARK VINA RESULT:      -7.6      2.960      4.917
REMARK  Name = 
REMARK  10 active torsions:
REMARK  status: ('A' for Active; 'I' for Inactive)
REMARK    1  A    between atoms: C_1  and  C_2
REMARK    2  A    between atoms: C_2  and  O_3
REMARK    3  A    between atoms: O_3  and  C_4
REMARK    4  A    between atoms: C_10  and  C_12
REMARK    5  A    between atoms: C_15  and  C_16
REMARK    6  A    between atoms: C_16  and  N_17
REMARK    7  A    between atoms: N_17  and  S_18
REMARK    8  A    between atoms: S_18  and  C_21
REMARK    9  A    between atoms: C_24  and  O_25
REMARK   10  A    between atoms: O_25  and  C_26
REMARK                            x       y       z     vdW  Elec       q    Type
REMARK                         _______ _______ _______ _____ _____    ______ ____
ROOT
ATOM      1  C   UNL     1       0.795   9.585  18.906  0.00  0.00    +0.000 A 
ATOM      2  C   UNL     1       0.828   9.020  20.184  0.00  0.00    +0.000 A 
ATOM      3  C   UNL     1       1.651   7.922  20.453  0.00  0.00    +0.000 A 
ATOM      4  C   UNL     1       2.388   7.315  19.427  0.00  0.00    +0.000 A 
ATOM      5  C   UNL     1       2.283   7.828  18.126  0.00  0.00    +0.000 A 
ATOM      6  C   UNL     1       1.496   8.957  17.869  0.00  0.00    +0.000 A 
ENDROOT
BRANCH   1  13
ATOM      7  C   UNL     1       1.700  15.859  19.644  0.00  0.00    +0.000 C 
ATOM      8  O   UNL     1       0.977  16.815  19.395  0.00  0.00    +0.000 OA
ATOM      9  N   UNL     1       1.244  14.572  19.829  0.00  0.00    +0.000 N 
ATOM     10  C   UNL     1      -0.177  14.265  19.638  0.00  0.00    +0.000 C 
ATOM     11  C   UNL     1      -0.389  13.225  18.521  0.00  0.00    +0.000 C 
ATOM     12  N   UNL     1       0.502  12.067  18.699  0.00  0.00    +0.000 N 
ATOM     13  C   UNL     1      -0.030  10.784  18.584  0.00  0.00    +0.000 C 
ATOM     14  O   UNL     1      -1.191  10.585  18.229  0.00  0.00    +0.000 OA
ATOM     15  C   UNL     1       1.923  12.438  18.796  0.00  0.00    +0.000 C 
ATOM     16  C   UNL     1       2.130  13.409  19.969  0.00  0.00    +0.000 C 
BRANCH   7  17
ATOM     17  O   UNL     1       3.056  15.929  19.693  0.00  0.00    +0.000 OA
BRANCH  17  19
ATOM     18  C   UNL     1       4.324  15.339  17.762  0.00  0.00    +0.000 C 
ATOM     19  C   UNL     1       3.690  16.482  18.533  0.00  0.00    +0.000 C 
ENDBRANCH  17  19
ENDBRANCH   7  17
ENDBRANCH   1  13
BRANCH   4  20
ATOM     20  C   UNL     1       3.291   6.139  19.725  0.00  0.00    +0.000 C 
BRANCH  20  21
ATOM     21  N   UNL     1       2.527   4.956  20.119  0.00  0.00    +0.000 NA
ATOM     22  H   UNL     1       1.556   5.106  20.403  0.00  0.00    +0.000 HD
BRANCH  21  23
ATOM     23  S   UNL     1       2.702   3.574  19.186  0.00  0.00    +0.000 S 
ATOM     24  O   UNL     1       3.068   2.509  20.092  0.00  0.00    +0.000 OA
ATOM     25  O   UNL     1       1.546   3.472  18.317  0.00  0.00    +0.000 OA
BRANCH  23  26
ATOM     26  C   UNL     1       4.130   3.948  18.199  0.00  0.00    +0.000 A 
ATOM     27  C   UNL     1       3.996   4.058  16.814  0.00  0.00    +0.000 A 
ATOM     28  C   UNL     1       5.120   4.363  16.039  0.00  0.00    +0.000 A 
ATOM     29  C   UNL     1       6.363   4.575  16.644  0.00  0.00    +0.000 A 
ATOM     30  C   UNL     1       6.484   4.476  18.031  0.00  0.00    +0.000 A 
ATOM     31  C   UNL     1       5.368   4.162  18.812  0.00  0.00    +0.000 A 
BRANCH  29  32
ATOM     32  O   UNL     1       7.389   4.843  15.778  0.00  0.00    +0.000 OA
ATOM     33  C   UNL     1       7.057   4.854  14.394  0.00  0.00    +0.000 C 
ENDBRANCH  29  32
ENDBRANCH  23  26
ENDBRANCH  21  23
ENDBRANCH  20  21
ENDBRANCH   4  20
TORSDOF 8
ENDMDL
MODEL 7
REMARK VINA RESULT:      -7.6      3.053      5.189
REMARK  Name = 
REMARK  10 active torsions:
REMARK  status: ('A' for Active; 'I' for Inactive)
REMARK    1  A    between atoms: C_1  and  C_2
REMARK    2  A    between atoms: C_2  and  O_3
REMARK    3  A    between atoms: O_3  and  C_4
REMARK    4  A    between atoms: C_10  and  C_12
REMARK    5  A    between atoms: C_15  and  C_16
REMARK    6  A    between atoms: C_16  and  N_17
REMARK    7  A    between atoms: N_17  and  S_18
REMARK    8  A    between atoms: S_18  and  C_21
REMARK    9  A    between atoms: C_24  and  O_25
REMARK   10  A    between atoms: O_25  and  C_26
REMARK                            x       y       z     vdW  Elec       q    Type
REMARK                         _______ _______ _______ _____ _____    ______ ____
ROOT
ATOM      1  C   UNL     1       0.773   9.960  19.080  0.00  0.00    +0.000 A 
ATOM      2  C   UNL     1       0.650   9.382  20.347  0.00  0.00    +0.000 A 
ATOM      3  C   UNL     1       1.326   8.198  20.656  0.00  0.00    +0.000 A 
ATOM      4  C   UNL     1       2.066   7.523  19.676  0.00  0.00    +0.000 A 
ATOM      5  C   UNL     1       2.114   8.056  18.380  0.00  0.00    +0.000 A 
ATOM      6  C   UNL     1       1.476   9.267  18.086  0.00  0.00    +0.000 A 
ENDROOT
BRANCH   1  13
ATOM      7  C   UNL     1       2.489  16.082  19.624  0.00  0.00    +0.000 C 
ATOM      8  O   UNL     1       1.896  17.116  19.345  0.00  0.00    +0.000 OA
ATOM      9  N   UNL     1       1.870  14.871  19.849  0.00  0.00    +0.000 N 
ATOM     10  C   UNL     1       0.421  14.747  19.665  0.00  0.00    +0.000 C 
ATOM     11  C   UNL     1       0.072  13.709  18.581  0.00  0.00    +0.000 C 
ATOM     12  N   UNL     1       0.805  12.451  18.796  0.00  0.00    +0.000 N 
ATOM     13  C   UNL     1       0.111  11.246  18.720  0.00  0.00    +0.000 C 
ATOM     14  O   UNL     1      -1.067  11.188  18.370  0.00  0.00    +0.000 OA
ATOM     15  C   UNL     1       2.262  12.637  18.883  0.00  0.00    +0.000 C 
ATOM     16  C   UNL     1       2.597  13.608  20.025  0.00  0.00    +0.000 C 
BRANCH   7  17
ATOM     17  O   UNL     1       3.843  15.976  19.673  0.00  0.00    +0.000 OA
BRANCH  17  19
ATOM     18  C   UNL     1       5.850  17.092  19.029  0.00  0.00    +0.000 C 
ATOM     19  C   UNL     1       4.545  16.493  18.536  0.00  0.00    +0.000 C 
ENDBRANCH  17  19
ENDBRANCH   7  17
ENDBRANCH   1  13
BRANCH   4  20
ATOM     20  C   UNL     1       2.810   6.251  20.017  0.00  0.00    +0.000 C 
BRANCH  20  21
ATOM     21  N   UNL     1       2.273   5.098  19.296  0.00  0.00    +0.000 NA
ATOM     22  H   UNL     1       1.463   5.266  18.695  0.00  0.00    +0.000 HD
BRANCH  21  23
ATOM     23  S   UNL     1       3.370   4.045  18.592  0.00  0.00    +0.000 S 
ATOM     24  O   UNL     1       3.894   3.223  19.660  0.00  0.00    +0.000 OA
ATOM     25  O   UNL     1       2.744   3.464  17.421  0.00  0.00    +0.000 OA
BRANCH  23  26
ATOM     26  C   UNL     1       4.673   5.131  18.068  0.00  0.00    +0.000 A 
ATOM     27  C   UNL     1       5.843   5.215  18.825  0.00  0.00    +0.000 A 
ATOM     28  C   UNL     1       6.872   6.063  18.404  0.00  0.00    +0.000 A 
ATOM     29  C   UNL     1       6.743   6.806  17.226  0.00  0.00    +0.000 A 
ATOM     30  C   UNL     1       5.576   6.705  16.469  0.00  0.00    +0.000 A 
ATOM     31  C   UNL     1       4.537   5.867  16.887  0.00  0.00    +0.000 A 
BRANCH  29  32
ATOM     32  O   UNL     1       7.808   7.616  16.935  0.00  0.00    +0.000 OA
ATOM     33  C   UNL     1       8.064   8.674  17.852  0.00  0.00    +0.000 C 
ENDBRANCH  29  32
ENDBRANCH  23  26
ENDBRANCH  21  23
ENDBRANCH  20  21
ENDBRANCH   4  20
TORSDOF 8
ENDMDL
MODEL 8
REMARK VINA RESULT:      -7.6      3.391      5.443
REMARK  Name = 
REMARK  10 active torsions:
REMARK  status: ('A' for Active; 'I' for Inactive)
REMARK    1  A    between atoms: C_1  and  C_2
REMARK    2  A    between atoms: C_2  and  O_3
REMARK    3  A    between atoms: O_3  and  C_4
REMARK    4  A    between atoms: C_10  and  C_12
REMARK    5  A    between atoms: C_15  and  C_16
REMARK    6  A    between atoms: C_16  and  N_17
REMARK    7  A    between atoms: N_17  and  S_18
REMARK    8  A    between atoms: S_18  and  C_21
REMARK    9  A    between atoms: C_24  and  O_25
REMARK   10  A    between atoms: O_25  and  C_26
REMARK                            x       y       z     vdW  Elec       q    Type
REMARK                         _______ _______ _______ _____ _____    ______ ____
ROOT
ATOM      1  C   UNL     1       0.822   9.781  18.976  0.00  0.00    +0.000 A 
ATOM      2  C   UNL     1       0.796   9.221  20.257  0.00  0.00    +0.000 A 
ATOM      3  C   UNL     1       1.530   8.066  20.542  0.00  0.00    +0.000 A 
ATOM      4  C   UNL     1       2.233   7.400  19.529  0.00  0.00    +0.000 A 
ATOM      5  C   UNL     1       2.183   7.912  18.224  0.00  0.00    +0.000 A 
ATOM      6  C   UNL     1       1.487   9.096  17.952  0.00  0.00    +0.000 A 
ENDROOT
BRANCH   1  13
ATOM      7  C   UNL     1       2.243  15.973  19.576  0.00  0.00    +0.000 C 
ATOM      8  O   UNL     1       1.598  16.980  19.315  0.00  0.00    +0.000 OA
ATOM      9  N   UNL     1       1.687  14.731  19.793  0.00  0.00    +0.000 N 
ATOM     10  C   UNL     1       0.243  14.538  19.622  0.00  0.00    +0.000 C 
ATOM     11  C   UNL     1      -0.066  13.497  18.528  0.00  0.00    +0.000 C 
ATOM     12  N   UNL     1       0.729  12.274  18.722  0.00  0.00    +0.000 N 
ATOM     13  C   UNL     1       0.094  11.037  18.638  0.00  0.00    +0.000 C 
ATOM     14  O   UNL     1      -1.083  10.926  18.299  0.00  0.00    +0.000 OA
ATOM     15  C   UNL     1       2.177  12.529  18.796  0.00  0.00    +0.000 C 
ATOM     16  C   UNL     1       2.476  13.503  19.947  0.00  0.00    +0.000 C 
BRANCH   7  17
ATOM     17  O   UNL     1       3.602  15.933  19.611  0.00  0.00    +0.000 OA
BRANCH  17  19
ATOM     18  C   UNL     1       5.657  16.904  18.893  0.00  0.00    +0.000 C 
ATOM     19  C   UNL     1       4.266  16.477  18.464  0.00  0.00    +0.000 C 
ENDBRANCH  17  19
ENDBRANCH   7  17
ENDBRANCH   1  13
BRANCH   4  20
ATOM     20  C   UNL     1       3.041   6.161  19.844  0.00  0.00    +0.000 C 
BRANCH  20  21
ATOM     21  N   UNL     1       3.647   5.589  18.643  0.00  0.00    +0.000 NA
ATOM     22  H   UNL     1       3.678   6.186  17.812  0.00  0.00    +0.000 HD
BRANCH  21  23
ATOM     23  S   UNL     1       5.058   4.704  18.833  0.00  0.00    +0.000 S 
ATOM     24  O   UNL     1       5.974   5.545  19.570  0.00  0.00    +0.000 OA
ATOM     25  O   UNL     1       4.695   3.380  19.300  0.00  0.00    +0.000 OA
BRANCH  23  26
ATOM     26  C   UNL     1       5.668   4.579  17.171  0.00  0.00    +0.000 A 
ATOM     27  C   UNL     1       4.826   4.101  16.165  0.00  0.00    +0.000 A 
ATOM     28  C   UNL     1       5.306   4.013  14.854  0.00  0.00    +0.000 A 
ATOM     29  C   UNL     1       6.609   4.419  14.547  0.00  0.00    +0.000 A 
ATOM     30  C   UNL     1       7.438   4.908  15.556  0.00  0.00    +0.000 A 
ATOM     31  C   UNL     1       6.970   4.990  16.871  0.00  0.00    +0.000 A 
BRANCH  29  32
ATOM     32  O   UNL     1       6.967   4.262  13.235  0.00  0.00    +0.000 OA
ATOM     33  C   UNL     1       6.093   3.475  12.433  0.00  0.00    +0.000 C 
ENDBRANCH  29  32
ENDBRANCH  23  26
ENDBRANCH  21  23
ENDBRANCH  20  21
ENDBRANCH   4  20
TORSDOF 8
ENDMDL
MODEL 9
REMARK VINA RESULT:      -7.5      2.974      4.931
REMARK  Name = 
REMARK  10 active torsions:
REMARK  status: ('A' for Active; 'I' for Inactive)
REMARK    1  A    between atoms: C_1  and  C_2
REMARK    2  A    between atoms: C_2  and  O_3
REMARK    3  A    between atoms: O_3  and  C_4
REMARK    4  A    between atoms: C_10  and  C_12
REMARK    5  A    between atoms: C_15  and  C_16
REMARK    6  A    between atoms: C_16  and  N_17
REMARK    7  A    between atoms: N_17  and  S_18
REMARK    8  A    between atoms: S_18  and  C_21
REMARK    9  A    between atoms: C_24  and  O_25
REMARK   10  A    between atoms: O_25  and  C_26
REMARK                            x       y       z     vdW  Elec       q    Type
REMARK                         _______ _______ _______ _____ _____    ______ ____
ROOT
ATOM      1  C   UNL     1       0.819   9.726  18.920  0.00  0.00    +0.000 A 
ATOM      2  C   UNL     1       1.575   9.043  17.962  0.00  0.00    +0.000 A 
ATOM      3  C   UNL     1       2.215   7.843  18.285  0.00  0.00    +0.000 A 
ATOM      4  C   UNL     1       2.182   7.349  19.596  0.00  0.00    +0.000 A 
ATOM      5  C   UNL     1       1.499   8.082  20.577  0.00  0.00    +0.000 A 
ATOM      6  C   UNL     1       0.819   9.259  20.240  0.00  0.00    +0.000 A 
ENDROOT
BRANCH   1  13
ATOM      7  C   UNL     1       1.931  15.887  20.156  0.00  0.00    +0.000 C 
ATOM      8  O   UNL     1       1.277  16.892  19.910  0.00  0.00    +0.000 OA
ATOM      9  N   UNL     1       1.404  14.615  20.214  0.00  0.00    +0.000 N 
ATOM     10  C   UNL     1      -0.006  14.393  19.878  0.00  0.00    +0.000 C 
ATOM     11  C   UNL     1      -0.162  13.437  18.679  0.00  0.00    +0.000 C 
ATOM     12  N   UNL     1       0.656  12.227  18.856  0.00  0.00    +0.000 N 
ATOM     13  C   UNL     1       0.081  10.983  18.608  0.00  0.00    +0.000 C 
ATOM     14  O   UNL     1      -1.051  10.865  18.141  0.00  0.00    +0.000 OA
ATOM     15  C   UNL     1       2.078  12.519  19.101  0.00  0.00    +0.000 C 
ATOM     16  C   UNL     1       2.221  13.403  20.351  0.00  0.00    +0.000 C 
BRANCH   7  17
ATOM     17  O   UNL     1       3.280  15.885  20.329  0.00  0.00    +0.000 OA
BRANCH  17  19
ATOM     18  C   UNL     1       5.136  16.826  19.166  0.00  0.00    +0.000 C 
ATOM     19  C   UNL     1       3.940  17.125  20.051  0.00  0.00    +0.000 C 
ENDBRANCH  17  19
ENDBRANCH   7  17
ENDBRANCH   1  13
BRANCH   4  20
ATOM     20  C   UNL     1       2.860   6.041  19.940  0.00  0.00    +0.000 C 
BRANCH  20  21
ATOM     21  N   UNL     1       2.167   4.899  19.346  0.00  0.00    +0.000 NA
ATOM     22  H   UNL     1       1.247   5.079  18.936  0.00  0.00    +0.000 HD
BRANCH  21  23
ATOM     23  S   UNL     1       3.074   3.841  18.414  0.00  0.00    +0.000 S 
ATOM     24  O   UNL     1       3.555   2.813  19.310  0.00  0.00    +0.000 OA
ATOM     25  O   UNL     1       2.306   3.520  17.227  0.00  0.00    +0.000 OA
BRANCH  23  26
ATOM     26  C   UNL     1       4.470   4.833  17.944  0.00  0.00    +0.000 A 
ATOM     27  C   UNL     1       5.616   4.824  18.741  0.00  0.00    +0.000 A 
ATOM     28  C   UNL     1       6.719   5.598  18.363  0.00  0.00    +0.000 A 
ATOM     29  C   UNL     1       6.684   6.358  17.190  0.00  0.00    +0.000 A 
ATOM     30  C   UNL     1       5.539   6.349  16.393  0.00  0.00    +0.000 A 
ATOM     31  C   UNL     1       4.428   5.586  16.768  0.00  0.00    +0.000 A 
BRANCH  29  32
ATOM     32  O   UNL     1       7.814   7.089  16.942  0.00  0.00    +0.000 OA
ATOM     33  C   UNL     1       7.932   8.323  17.643  0.00  0.00    +0.000 C 
ENDBRANCH  29  32
ENDBRANCH  23  26
ENDBRANCH  21  23
ENDBRANCH  20  21
ENDBRANCH   4  20
TORSDOF 8
ENDMDL
