MODEL 1
REMARK VINA RESULT:      -9.2      0.000      0.000
REMARK  Name = 
REMARK  4 active torsions:
REMARK  status: ('A' for Active; 'I' for Inactive)
REMARK    1  A    between atoms: C_2  and  C_3
REMARK    2  A    between atoms: N_16  and  C_17
REMARK    3  A    between atoms: C_20  and  O_21
REMARK    4  A    between atoms: O_21  and  C_22
REMARK                            x       y       z     vdW  Elec       q    Type
REMARK                         _______ _______ _______ _____ _____    ______ ____
ROOT
ATOM      1  C   UNL     1       7.122   7.137  17.817  0.00  0.00    +0.000 A 
ATOM      2  C   UNL     1       7.801   5.961  17.533  0.00  0.00    +0.000 A 
ATOM      3  C   UNL     1       7.118   4.745  17.572  0.00  0.00    +0.000 A 
ATOM      4  C   UNL     1       5.756   4.690  17.919  0.00  0.00    +0.000 A 
ATOM      5  C   UNL     1       5.092   3.389  17.926  0.00  0.00    +0.000 A 
ATOM      6  C   UNL     1       3.794   3.278  18.229  0.00  0.00    +0.000 A 
ATOM      7  C   UNL     1       3.133   1.961  18.239  0.00  0.00    +0.000 A 
ATOM      8  O   UNL     1       3.713   0.917  17.978  0.00  0.00    +0.000 OA
ATOM      9  N   UNL     1       1.826   2.010  18.589  0.00  0.00    +0.000 N 
ATOM     10  C   UNL     1       1.105   3.136  18.875  0.00  0.00    +0.000 A 
ATOM     11  O   UNL     1      -0.098   3.040  19.050  0.00  0.00    +0.000 OA
ATOM     12  N   UNL     1       1.756   4.338  18.922  0.00  0.00    +0.000 NA
ATOM     13  C   UNL     1       3.009   4.499  18.586  0.00  0.00    +0.000 A 
ATOM     14  N   UNL     1       3.633   5.795  18.564  0.00  0.00    +0.000 N 
ATOM     15  C   UNL     1       5.043   5.869  18.223  0.00  0.00    +0.000 A 
ATOM     16  C   UNL     1       5.759   7.082  18.130  0.00  0.00    +0.000 A 
ATOM     17  H   UNL     1       1.292   1.154  18.573  0.00  0.00    +0.000 HD
ENDROOT
BRANCH  14  18
ATOM     18  C   UNL     1       2.804   6.949  18.815  0.00  0.00    +0.000 A 
ATOM     19  C   UNL     1       2.170   7.178  20.049  0.00  0.00    +0.000 A 
ATOM     20  C   UNL     1       1.398   8.318  20.293  0.00  0.00    +0.000 A 
ATOM     21  C   UNL     1       1.150   9.215  19.266  0.00  0.00    +0.000 A 
ATOM     22  C   UNL     1       1.715   8.981  18.011  0.00  0.00    +0.000 A 
ATOM     23  C   UNL     1       2.569   7.900  17.810  0.00  0.00    +0.000 A 
BRANCH  21  24
ATOM     24  O   UNL     1       0.323  10.279  19.566  0.00  0.00    +0.000 OA
BRANCH  24  25
ATOM     25  C   UNL     1      -0.785  10.470  18.772  0.00  0.00    +0.000 A 
ATOM     26  C   UNL     1      -1.710  11.442  19.159  0.00  0.00    +0.000 A 
ATOM     27  C   UNL     1      -2.921  11.538  18.468  0.00  0.00    +0.000 A 
ATOM     28  C   UNL     1      -3.177  10.678  17.402  0.00  0.00    +0.000 A 
ATOM     29  F   UNL     1      -4.366  10.719  16.788  0.00  0.00    +0.000 F 
ATOM     30  C   UNL     1      -2.225   9.772  16.963  0.00  0.00    +0.000 A 
ATOM     31  C   UNL     1      -1.008   9.704  17.622  0.00  0.00    +0.000 A 
ENDBRANCH  24  25
ENDBRANCH  21  24
ENDBRANCH  14  18
BRANCH   1  33
ATOM     32  N   UNL     1       8.334   9.432  17.747  0.00  0.00    +0.000 NA
ATOM     33  C   UNL     1       7.794   8.401  17.788  0.00  0.00    +0.000 C 
ENDBRANCH   1  33
TORSDOF 4
ENDMDL
MODEL 2
REMARK VINA RESULT:      -9.2      2.201      2.721
REMARK  Name = 
REMARK  4 active torsions:
REMARK  status: ('A' for Active; 'I' for Inactive)
REMARK    1  A    between atoms: C_2  and  C_3
REMARK    2  A    between atoms: N_16  and  C_17
REMARK    3  A    between atoms: C_20  and  O_21
REMARK    4  A    between atoms: O_21  and  C_22
REMARK                            x       y       z     vdW  Elec       q    Type
REMARK                         _______ _______ _______ _____ _____    ______ ____
ROOT
ATOM      1  C   UNL     1       7.103   7.066  17.791  0.00  0.00    +0.000 A 
ATOM      2  C   UNL     1       7.804   5.887  17.584  0.00  0.00    +0.000 A 
ATOM      3  C   UNL     1       7.139   4.664  17.681  0.00  0.00    +0.000 A 
ATOM      4  C   UNL     1       5.772   4.608  18.010  0.00  0.00    +0.000 A 
ATOM      5  C   UNL     1       5.127   3.299  18.080  0.00  0.00    +0.000 A 
ATOM      6  C   UNL     1       3.826   3.185  18.368  0.00  0.00    +0.000 A 
ATOM      7  C   UNL     1       3.185   1.860  18.442  0.00  0.00    +0.000 A 
ATOM      8  O   UNL     1       3.784   0.813  18.249  0.00  0.00    +0.000 OA
ATOM      9  N   UNL     1       1.871   1.909  18.769  0.00  0.00    +0.000 N 
ATOM     10  C   UNL     1       1.129   3.038  18.980  0.00  0.00    +0.000 A 
ATOM     11  O   UNL     1      -0.075   2.934  19.143  0.00  0.00    +0.000 OA
ATOM     12  N   UNL     1       1.762   4.251  18.970  0.00  0.00    +0.000 NA
ATOM     13  C   UNL     1       3.018   4.412  18.644  0.00  0.00    +0.000 A 
ATOM     14  N   UNL     1       3.623   5.714  18.559  0.00  0.00    +0.000 N 
ATOM     15  C   UNL     1       5.037   5.791  18.236  0.00  0.00    +0.000 A 
ATOM     16  C   UNL     1       5.737   7.008  18.086  0.00  0.00    +0.000 A 
ATOM     17  H   UNL     1       1.351   1.045  18.793  0.00  0.00    +0.000 HD
ENDROOT
BRANCH  14  18
ATOM     18  C   UNL     1       2.773   6.868  18.732  0.00  0.00    +0.000 A 
ATOM     19  C   UNL     1       2.410   7.713  17.670  0.00  0.00    +0.000 A 
ATOM     20  C   UNL     1       1.557   8.808  17.843  0.00  0.00    +0.000 A 
ATOM     21  C   UNL     1       1.126   9.151  19.114  0.00  0.00    +0.000 A 
ATOM     22  C   UNL     1       1.522   8.365  20.199  0.00  0.00    +0.000 A 
ATOM     23  C   UNL     1       2.282   7.217  20.000  0.00  0.00    +0.000 A 
BRANCH  21  24
ATOM     24  O   UNL     1       0.343  10.283  19.212  0.00  0.00    +0.000 OA
BRANCH  24  25
ATOM     25  C   UNL     1       0.973  11.472  19.505  0.00  0.00    +0.000 A 
ATOM     26  C   UNL     1       0.703  12.073  20.737  0.00  0.00    +0.000 A 
ATOM     27  C   UNL     1       1.194  13.356  20.987  0.00  0.00    +0.000 A 
ATOM     28  C   UNL     1       1.954  14.005  20.015  0.00  0.00    +0.000 A 
ATOM     29  F   UNL     1       2.362  15.263  20.224  0.00  0.00    +0.000 F 
ATOM     30  C   UNL     1       2.296  13.376  18.829  0.00  0.00    +0.000 A 
ATOM     31  C   UNL     1       1.842  12.087  18.598  0.00  0.00    +0.000 A 
ENDBRANCH  24  25
ENDBRANCH  21  24
ENDBRANCH  14  18
BRANCH   1  33
ATOM     32  N   UNL     1       8.272   9.379  17.632  0.00  0.00    +0.000 NA
ATOM     33  C   UNL     1       7.757   8.337  17.701  0.00  0.00    +0.000 C 
ENDBRANCH   1  33
TORSDOF 4
ENDMDL
MODEL 3
REMARK VINA RESULT:      -9.1      1.796      2.169
REMARK  Name = 
REMARK  4 active torsions:
REMARK  status: ('A' for Active; 'I' for Inactive)
REMARK    1  A    between atoms: C_2  and  C_3
REMARK    2  A    between atoms: N_16  and  C_17
REMARK    3  A    between atoms: C_20  and  O_21
REMARK    4  A    between atoms: O_21  and  C_22
REMARK                            x       y       z     vdW  Elec       q    Type
REMARK                         _______ _______ _______ _____ _____    ______ ____
ROOT
ATOM      1  C   UNL     1       6.974   7.253  17.662  0.00  0.00    +0.000 A 
ATOM      2  C   UNL     1       7.673   6.113  17.293  0.00  0.00    +0.000 A 
ATOM      3  C   UNL     1       7.033   4.874  17.323  0.00  0.00    +0.000 A 
ATOM      4  C   UNL     1       5.696   4.758  17.746  0.00  0.00    +0.000 A 
ATOM      5  C   UNL     1       5.076   3.436  17.740  0.00  0.00    +0.000 A 
ATOM      6  C   UNL     1       3.802   3.269  18.113  0.00  0.00    +0.000 A 
ATOM      7  C   UNL     1       3.186   1.930  18.109  0.00  0.00    +0.000 A 
ATOM      8  O   UNL     1       3.783   0.918  17.772  0.00  0.00    +0.000 OA
ATOM      9  N   UNL     1       1.901   1.921  18.536  0.00  0.00    +0.000 N 
ATOM     10  C   UNL     1       1.162   3.010  18.908  0.00  0.00    +0.000 A 
ATOM     11  O   UNL     1      -0.024   2.866  19.149  0.00  0.00    +0.000 OA
ATOM     12  N   UNL     1       1.777   4.231  18.965  0.00  0.00    +0.000 NA
ATOM     13  C   UNL     1       3.001   4.448  18.564  0.00  0.00    +0.000 A 
ATOM     14  N   UNL     1       3.580   5.764  18.557  0.00  0.00    +0.000 N 
ATOM     15  C   UNL     1       4.965   5.900  18.138  0.00  0.00    +0.000 A 
ATOM     16  C   UNL     1       5.635   7.139  18.052  0.00  0.00    +0.000 A 
ATOM     17  H   UNL     1       1.395   1.049  18.516  0.00  0.00    +0.000 HD
ENDROOT
BRANCH  14  18
ATOM     18  C   UNL     1       2.731   6.879  18.902  0.00  0.00    +0.000 A 
ATOM     19  C   UNL     1       2.238   7.087  20.202  0.00  0.00    +0.000 A 
ATOM     20  C   UNL     1       1.445   8.190  20.533  0.00  0.00    +0.000 A 
ATOM     21  C   UNL     1       1.033   9.065  19.541  0.00  0.00    +0.000 A 
ATOM     22  C   UNL     1       1.456   8.848  18.228  0.00  0.00    +0.000 A 
ATOM     23  C   UNL     1       2.332   7.809  17.930  0.00  0.00    +0.000 A 
BRANCH  21  24
ATOM     24  O   UNL     1       0.196  10.090  19.934  0.00  0.00    +0.000 OA
BRANCH  24  25
ATOM     25  C   UNL     1       0.457  11.351  19.447  0.00  0.00    +0.000 A 
ATOM     26  C   UNL     1       1.638  11.979  19.849  0.00  0.00    +0.000 A 
ATOM     27  C   UNL     1       1.844  13.318  19.507  0.00  0.00    +0.000 A 
ATOM     28  C   UNL     1       0.881  13.995  18.761  0.00  0.00    +0.000 A 
ATOM     29  F   UNL     1       1.043  15.297  18.496  0.00  0.00    +0.000 F 
ATOM     30  C   UNL     1      -0.249  13.348  18.287  0.00  0.00    +0.000 A 
ATOM     31  C   UNL     1      -0.434  12.009  18.593  0.00  0.00    +0.000 A 
ENDBRANCH  24  25
ENDBRANCH  21  24
ENDBRANCH  14  18
BRANCH   1  33
ATOM     32  N   UNL     1       8.115   9.585  17.650  0.00  0.00    +0.000 NA
ATOM     33  C   UNL     1       7.602   8.540  17.645  0.00  0.00    +0.000 C 
ENDBRANCH   1  33
TORSDOF 4
ENDMDL
MODEL 4
REMARK VINA RESULT:      -9.1      0.610      1.212
REMARK  Name = 
REMARK  4 active torsions:
REMARK  status: ('A' for Active; 'I' for Inactive)
REMARK    1  A    between atoms: C_2  and  C_3
REMARK    2  A    between atoms: N_16  and  C_17
REMARK    3  A    between atoms: C_20  and  O_21
REMARK    4  A    between atoms: O_21  and  C_22
REMARK                            x       y       z     vdW  Elec       q    Type
REMARK                         _______ _______ _______ _____ _____    ______ ____
ROOT
ATOM      1  C   UNL     1       7.005   7.211  17.644  0.00  0.00    +0.000 A 
ATOM      2  C   UNL     1       7.685   6.063  17.264  0.00  0.00    +0.000 A 
ATOM      3  C   UNL     1       7.028   4.832  17.295  0.00  0.00    +0.000 A 
ATOM      4  C   UNL     1       5.693   4.734  17.728  0.00  0.00    +0.000 A 
ATOM      5  C   UNL     1       5.055   3.420  17.722  0.00  0.00    +0.000 A 
ATOM      6  C   UNL     1       3.782   3.269  18.104  0.00  0.00    +0.000 A 
ATOM      7  C   UNL     1       3.147   1.939  18.100  0.00  0.00    +0.000 A 
ATOM      8  O   UNL     1       3.727   0.920  17.755  0.00  0.00    +0.000 OA
ATOM      9  N   UNL     1       1.866   1.946  18.537  0.00  0.00    +0.000 N 
ATOM     10  C   UNL     1       1.145   3.044  18.920  0.00  0.00    +0.000 A 
ATOM     11  O   UNL     1      -0.041   2.915  19.171  0.00  0.00    +0.000 OA
ATOM     12  N   UNL     1       1.777   4.256  18.977  0.00  0.00    +0.000 NA
ATOM     13  C   UNL     1       3.001   4.457  18.567  0.00  0.00    +0.000 A 
ATOM     14  N   UNL     1       3.598   5.765  18.561  0.00  0.00    +0.000 N 
ATOM     15  C   UNL     1       4.981   5.883  18.131  0.00  0.00    +0.000 A 
ATOM     16  C   UNL     1       5.668   7.114  18.044  0.00  0.00    +0.000 A 
ATOM     17  H   UNL     1       1.348   1.081  18.519  0.00  0.00    +0.000 HD
ENDROOT
BRANCH  14  18
ATOM     18  C   UNL     1       2.767   6.890  18.917  0.00  0.00    +0.000 A 
ATOM     19  C   UNL     1       2.495   7.947  18.031  0.00  0.00    +0.000 A 
ATOM     20  C   UNL     1       1.660   9.015  18.376  0.00  0.00    +0.000 A 
ATOM     21  C   UNL     1       1.155   9.107  19.663  0.00  0.00    +0.000 A 
ATOM     22  C   UNL     1       1.460   8.104  20.584  0.00  0.00    +0.000 A 
ATOM     23  C   UNL     1       2.204   6.992  20.199  0.00  0.00    +0.000 A 
BRANCH  21  24
ATOM     24  O   UNL     1       0.395  10.224  19.945  0.00  0.00    +0.000 OA
BRANCH  24  25
ATOM     25  C   UNL     1      -0.584  10.576  19.043  0.00  0.00    +0.000 A 
ATOM     26  C   UNL     1      -1.506   9.599  18.661  0.00  0.00    +0.000 A 
ATOM     27  C   UNL     1      -2.400   9.880  17.624  0.00  0.00    +0.000 A 
ATOM     28  C   UNL     1      -2.367  11.128  17.004  0.00  0.00    +0.000 A 
ATOM     29  F   UNL     1      -3.172  11.372  15.962  0.00  0.00    +0.000 F 
ATOM     30  C   UNL     1      -1.511  12.126  17.441  0.00  0.00    +0.000 A 
ATOM     31  C   UNL     1      -0.652  11.862  18.495  0.00  0.00    +0.000 A 
ENDBRANCH  24  25
ENDBRANCH  21  24
ENDBRANCH  14  18
BRANCH   1  33
ATOM     32  N   UNL     1       8.158   9.536  17.610  0.00  0.00    +0.000 NA
ATOM     33  C   UNL     1       7.650   8.489  17.627  0.00  0.00    +0.000 C 
ENDBRANCH   1  33
TORSDOF 4
ENDMDL
MODEL 5
REMARK VINA RESULT:      -8.6      1.802      2.362
REMARK  Name = 
REMARK  4 active torsions:
REMARK  status: ('A' for Active; 'I' for Inactive)
REMARK    1  A    between atoms: C_2  and  C_3
REMARK    2  A    between atoms: N_16  and  C_17
REMARK    3  A    between atoms: C_20  and  O_21
REMARK    4  A    between atoms: O_21  and  C_22
REMARK                            x       y       z     vdW  Elec       q    Type
REMARK                         _______ _______ _______ _____ _____    ______ ____
ROOT
ATOM      1  C   UNL     1       7.123   7.053  17.812  0.00  0.00    +0.000 A 
ATOM      2  C   UNL     1       7.820   5.867  17.637  0.00  0.00    +0.000 A 
ATOM      3  C   UNL     1       7.146   4.650  17.748  0.00  0.00    +0.000 A 
ATOM      4  C   UNL     1       5.775   4.606  18.058  0.00  0.00    +0.000 A 
ATOM      5  C   UNL     1       5.123   3.303  18.145  0.00  0.00    +0.000 A 
ATOM      6  C   UNL     1       3.817   3.200  18.417  0.00  0.00    +0.000 A 
ATOM      7  C   UNL     1       3.167   1.881  18.508  0.00  0.00    +0.000 A 
ATOM      8  O   UNL     1       3.763   0.827  18.342  0.00  0.00    +0.000 OA
ATOM      9  N   UNL     1       1.850   1.943  18.815  0.00  0.00    +0.000 N 
ATOM     10  C   UNL     1       1.111   3.079  18.994  0.00  0.00    +0.000 A 
ATOM     11  O   UNL     1      -0.096   2.984  19.142  0.00  0.00    +0.000 OA
ATOM     12  N   UNL     1       1.751   4.288  18.970  0.00  0.00    +0.000 NA
ATOM     13  C   UNL     1       3.011   4.437  18.659  0.00  0.00    +0.000 A 
ATOM     14  N   UNL     1       3.624   5.734  18.557  0.00  0.00    +0.000 N 
ATOM     15  C   UNL     1       5.043   5.797  18.252  0.00  0.00    +0.000 A 
ATOM     16  C   UNL     1       5.752   7.007  18.089  0.00  0.00    +0.000 A 
ATOM     17  H   UNL     1       1.324   1.082  18.848  0.00  0.00    +0.000 HD
ENDROOT
BRANCH  14  18
ATOM     18  C   UNL     1       2.779   6.895  18.697  0.00  0.00    +0.000 A 
ATOM     19  C   UNL     1       2.465   7.743  17.620  0.00  0.00    +0.000 A 
ATOM     20  C   UNL     1       1.616   8.845  17.759  0.00  0.00    +0.000 A 
ATOM     21  C   UNL     1       1.137   9.192  19.013  0.00  0.00    +0.000 A 
ATOM     22  C   UNL     1       1.484   8.404  20.112  0.00  0.00    +0.000 A 
ATOM     23  C   UNL     1       2.241   7.249  19.944  0.00  0.00    +0.000 A 
BRANCH  21  24
ATOM     24  O   UNL     1       0.361  10.332  19.080  0.00  0.00    +0.000 OA
BRANCH  24  25
ATOM     25  C   UNL     1      -0.290  10.591  20.264  0.00  0.00    +0.000 A 
ATOM     26  C   UNL     1      -1.226  11.629  20.286  0.00  0.00    +0.000 A 
ATOM     27  C   UNL     1      -1.773  12.023  21.509  0.00  0.00    +0.000 A 
ATOM     28  C   UNL     1      -1.391  11.367  22.679  0.00  0.00    +0.000 A 
ATOM     29  F   UNL     1      -1.859  11.792  23.859  0.00  0.00    +0.000 F 
ATOM     30  C   UNL     1      -0.531  10.282  22.647  0.00  0.00    +0.000 A 
ATOM     31  C   UNL     1      -0.018   9.866  21.429  0.00  0.00    +0.000 A 
ENDBRANCH  24  25
ENDBRANCH  21  24
ENDBRANCH  14  18
BRANCH   1  33
ATOM     32  N   UNL     1       8.331   9.345  17.638  0.00  0.00    +0.000 NA
ATOM     33  C   UNL     1       7.784   8.319  17.707  0.00  0.00    +0.000 C 
ENDBRANCH   1  33
TORSDOF 4
ENDMDL
MODEL 6
REMARK VINA RESULT:      -8.5      4.290      8.496
REMARK  Name = 
REMARK  4 active torsions:
REMARK  status: ('A' for Active; 'I' for Inactive)
REMARK    1  A    between atoms: C_2  and  C_3
REMARK    2  A    between atoms: N_16  and  C_17
REMARK    3  A    between atoms: C_20  and  O_21
REMARK    4  A    between atoms: O_21  and  C_22
REMARK                            x       y       z     vdW  Elec       q    Type
REMARK                         _______ _______ _______ _____ _____    ______ ____
ROOT
ATOM      1  C   UNL     1       1.960  13.894  21.185  0.00  0.00    +0.000 A 
ATOM      2  C   UNL     1       1.044  14.927  21.320  0.00  0.00    +0.000 A 
ATOM      3  C   UNL     1      -0.267  14.747  20.879  0.00  0.00    +0.000 A 
ATOM      4  C   UNL     1      -0.670  13.540  20.277  0.00  0.00    +0.000 A 
ATOM      5  C   UNL     1      -2.060  13.406  19.851  0.00  0.00    +0.000 A 
ATOM      6  C   UNL     1      -2.504  12.276  19.290  0.00  0.00    +0.000 A 
ATOM      7  C   UNL     1      -3.908  12.150  18.858  0.00  0.00    +0.000 A 
ATOM      8  O   UNL     1      -4.731  13.045  18.983  0.00  0.00    +0.000 OA
ATOM      9  N   UNL     1      -4.197  10.957  18.287  0.00  0.00    +0.000 N 
ATOM     10  C   UNL     1      -3.339   9.903  18.131  0.00  0.00    +0.000 A 
ATOM     11  O   UNL     1      -3.773   8.843  17.714  0.00  0.00    +0.000 OA
ATOM     12  N   UNL     1      -2.027  10.068  18.481  0.00  0.00    +0.000 NA
ATOM     13  C   UNL     1      -1.562  11.135  19.076  0.00  0.00    +0.000 A 
ATOM     14  N   UNL     1      -0.194  11.233  19.507  0.00  0.00    +0.000 N 
ATOM     15  C   UNL     1       0.243  12.477  20.117  0.00  0.00    +0.000 A 
ATOM     16  C   UNL     1       1.548  12.684  20.615  0.00  0.00    +0.000 A 
ATOM     17  H   UNL     1      -5.149  10.777  18.009  0.00  0.00    +0.000 HD
ENDROOT
BRANCH  14  18
ATOM     18  C   UNL     1       0.644  10.066  19.370  0.00  0.00    +0.000 A 
ATOM     19  C   UNL     1       0.858   9.154  20.419  0.00  0.00    +0.000 A 
ATOM     20  C   UNL     1       1.644   8.008  20.264  0.00  0.00    +0.000 A 
ATOM     21  C   UNL     1       2.328   7.796  19.077  0.00  0.00    +0.000 A 
ATOM     22  C   UNL     1       2.184   8.718  18.039  0.00  0.00    +0.000 A 
ATOM     23  C   UNL     1       1.316   9.798  18.167  0.00  0.00    +0.000 A 
BRANCH  21  24
ATOM     24  O   UNL     1       3.136   6.678  19.025  0.00  0.00    +0.000 OA
BRANCH  24  25
ATOM     25  C   UNL     1       2.522   5.446  19.015  0.00  0.00    +0.000 A 
ATOM     26  C   UNL     1       2.261   4.853  17.777  0.00  0.00    +0.000 A 
ATOM     27  C   UNL     1       1.491   3.689  17.733  0.00  0.00    +0.000 A 
ATOM     28  C   UNL     1       1.012   3.133  18.917  0.00  0.00    +0.000 A 
ATOM     29  F   UNL     1       0.212   2.060  18.870  0.00  0.00    +0.000 F 
ATOM     30  C   UNL     1       1.343   3.671  20.150  0.00  0.00    +0.000 A 
ATOM     31  C   UNL     1       2.141   4.803  20.197  0.00  0.00    +0.000 A 
ENDBRANCH  24  25
ENDBRANCH  21  24
ENDBRANCH  14  18
BRANCH   1  33
ATOM     32  N   UNL     1       4.409  14.180  21.999  0.00  0.00    +0.000 NA
ATOM     33  C   UNL     1       3.314  14.047  21.625  0.00  0.00    +0.000 C 
ENDBRANCH   1  33
TORSDOF 4
ENDMDL
MODEL 7
REMARK VINA RESULT:      -8.3      5.438      8.114
REMARK  Name = 
REMARK  4 active torsions:
REMARK  status: ('A' for Active; 'I' for Inactive)
REMARK    1  A    between atoms: C_2  and  C_3
REMARK    2  A    between atoms: N_16  and  C_17
REMARK    3  A    between atoms: C_20  and  O_21
REMARK    4  A    between atoms: O_21  and  C_22
REMARK                            x       y       z     vdW  Elec       q    Type
REMARK                         _______ _______ _______ _____ _____    ______ ____
ROOT
ATOM      1  C   UNL     1       3.248   4.716  18.918  0.00  0.00    +0.000 A 
ATOM      2  C   UNL     1       2.626   3.712  18.191  0.00  0.00    +0.000 A 
ATOM      3  C   UNL     1       3.130   3.355  16.939  0.00  0.00    +0.000 A 
ATOM      4  C   UNL     1       4.245   4.017  16.392  0.00  0.00    +0.000 A 
ATOM      5  C   UNL     1       4.735   3.588  15.085  0.00  0.00    +0.000 A 
ATOM      6  C   UNL     1       5.803   4.166  14.524  0.00  0.00    +0.000 A 
ATOM      7  C   UNL     1       6.288   3.731  13.202  0.00  0.00    +0.000 A 
ATOM      8  O   UNL     1       5.761   2.838  12.555  0.00  0.00    +0.000 OA
ATOM      9  N   UNL     1       7.360   4.429  12.759  0.00  0.00    +0.000 N 
ATOM     10  C   UNL     1       8.015   5.424  13.431  0.00  0.00    +0.000 A 
ATOM     11  O   UNL     1       9.045   5.878  12.961  0.00  0.00    +0.000 OA
ATOM     12  N   UNL     1       7.506   5.854  14.626  0.00  0.00    +0.000 NA
ATOM     13  C   UNL     1       6.497   5.285  15.232  0.00  0.00    +0.000 A 
ATOM     14  N   UNL     1       6.049   5.711  16.530  0.00  0.00    +0.000 N 
ATOM     15  C   UNL     1       4.890   5.050  17.104  0.00  0.00    +0.000 A 
ATOM     16  C   UNL     1       4.376   5.350  18.385  0.00  0.00    +0.000 A 
ATOM     17  H   UNL     1       7.780   4.159  11.882  0.00  0.00    +0.000 HD
ENDROOT
BRANCH  14  18
ATOM     18  C   UNL     1       6.819   6.723  17.214  0.00  0.00    +0.000 A 
ATOM     19  C   UNL     1       7.727   6.423  18.244  0.00  0.00    +0.000 A 
ATOM     20  C   UNL     1       8.494   7.408  18.875  0.00  0.00    +0.000 A 
ATOM     21  C   UNL     1       8.293   8.743  18.562  0.00  0.00    +0.000 A 
ATOM     22  C   UNL     1       7.351   9.076  17.587  0.00  0.00    +0.000 A 
ATOM     23  C   UNL     1       6.672   8.081  16.890  0.00  0.00    +0.000 A 
BRANCH  21  24
ATOM     24  O   UNL     1       9.038   9.659  19.276  0.00  0.00    +0.000 OA
BRANCH  24  25
ATOM     25  C   UNL     1       9.520  10.757  18.598  0.00  0.00    +0.000 A 
ATOM     26  C   UNL     1      10.895  10.829  18.359  0.00  0.00    +0.000 A 
ATOM     27  C   UNL     1      11.429  12.006  17.828  0.00  0.00    +0.000 A 
ATOM     28  C   UNL     1      10.585  13.074  17.531  0.00  0.00    +0.000 A 
ATOM     29  F   UNL     1      11.104  14.227  17.092  0.00  0.00    +0.000 F 
ATOM     30  C   UNL     1       9.212  12.971  17.686  0.00  0.00    +0.000 A 
ATOM     31  C   UNL     1       8.677  11.790  18.176  0.00  0.00    +0.000 A 
ENDBRANCH  24  25
ENDBRANCH  21  24
ENDBRANCH  14  18
BRANCH   1  33
ATOM     32  N   UNL     1       2.370   5.418  21.258  0.00  0.00    +0.000 NA
ATOM     33  C   UNL     1       2.755   5.107  20.204  0.00  0.00    +0.000 C 
ENDBRANCH   1  33
TORSDOF 4
ENDMDL
MODEL 8
REMARK VINA RESULT:      -8.2      4.128      7.573
REMARK  Name = 
REMARK  4 active torsions:
REMARK  status: ('A' for Active; 'I' for Inactive)
REMARK    1  A    between atoms: C_2  and  C_3
REMARK    2  A    between atoms: N_16  and  C_17
REMARK    3  A    between atoms: C_20  and  O_21
REMARK    4  A    between atoms: O_21  and  C_22
REMARK                            x       y       z     vdW  Elec       q    Type
REMARK                         _______ _______ _______ _____ _____    ______ ____
ROOT
ATOM      1  C   UNL     1       1.872   9.039  19.047  0.00  0.00    +0.000 A 
ATOM      2  C   UNL     1       0.963   8.883  20.082  0.00  0.00    +0.000 A 
ATOM      3  C   UNL     1       0.903   7.670  20.769  0.00  0.00    +0.000 A 
ATOM      4  C   UNL     1       1.735   6.593  20.411  0.00  0.00    +0.000 A 
ATOM      5  C   UNL     1       1.638   5.355  21.178  0.00  0.00    +0.000 A 
ATOM      6  C   UNL     1       2.417   4.305  20.897  0.00  0.00    +0.000 A 
ATOM      7  C   UNL     1       2.309   3.057  21.672  0.00  0.00    +0.000 A 
ATOM      8  O   UNL     1       1.523   2.907  22.596  0.00  0.00    +0.000 OA
ATOM      9  N   UNL     1       3.146   2.079  21.250  0.00  0.00    +0.000 N 
ATOM     10  C   UNL     1       4.064   2.177  20.241  0.00  0.00    +0.000 A 
ATOM     11  O   UNL     1       4.839   1.254  20.055  0.00  0.00    +0.000 OA
ATOM     12  N   UNL     1       4.099   3.322  19.495  0.00  0.00    +0.000 NA
ATOM     13  C   UNL     1       3.392   4.388  19.766  0.00  0.00    +0.000 A 
ATOM     14  N   UNL     1       3.524   5.604  19.010  0.00  0.00    +0.000 N 
ATOM     15  C   UNL     1       2.662   6.721  19.355  0.00  0.00    +0.000 A 
ATOM     16  C   UNL     1       2.721   7.978  18.715  0.00  0.00    +0.000 A 
ATOM     17  H   UNL     1       3.165   1.210  21.762  0.00  0.00    +0.000 HD
ENDROOT
BRANCH  14  18
ATOM     18  C   UNL     1       4.552   5.663  17.998  0.00  0.00    +0.000 A 
ATOM     19  C   UNL     1       4.279   5.955  16.650  0.00  0.00    +0.000 A 
ATOM     20  C   UNL     1       5.288   6.044  15.685  0.00  0.00    +0.000 A 
ATOM     21  C   UNL     1       6.595   5.739  16.026  0.00  0.00    +0.000 A 
ATOM     22  C   UNL     1       6.888   5.385  17.344  0.00  0.00    +0.000 A 
ATOM     23  C   UNL     1       5.894   5.404  18.318  0.00  0.00    +0.000 A 
BRANCH  21  24
ATOM     24  O   UNL     1       7.522   5.784  15.004  0.00  0.00    +0.000 OA
BRANCH  24  25
ATOM     25  C   UNL     1       7.266   5.037  13.876  0.00  0.00    +0.000 A 
ATOM     26  C   UNL     1       6.376   3.966  13.986  0.00  0.00    +0.000 A 
ATOM     27  C   UNL     1       6.231   3.092  12.906  0.00  0.00    +0.000 A 
ATOM     28  C   UNL     1       6.959   3.313  11.737  0.00  0.00    +0.000 A 
ATOM     29  F   UNL     1       6.875   2.435  10.729  0.00  0.00    +0.000 F 
ATOM     30  C   UNL     1       7.774   4.424  11.596  0.00  0.00    +0.000 A 
ATOM     31  C   UNL     1       7.888   5.312  12.654  0.00  0.00    +0.000 A 
ENDBRANCH  24  25
ENDBRANCH  21  24
ENDBRANCH  14  18
BRANCH   1  33
ATOM     32  N   UNL     1       2.040  11.264  17.719  0.00  0.00    +0.000 NA
ATOM     33  C   UNL     1       1.958  10.271  18.320  0.00  0.00    +0.000 C 
ENDBRANCH   1  33
TORSDOF 4
ENDMDL
MODEL 9
REMARK VINA RESULT:      -8.2      1.464      1.965
REMARK  Name = 
REMARK  4 active torsions:
REMARK  status: ('A' for Active; 'I' for Inactive)
REMARK    1  A    between atoms: C_2  and  C_3
REMARK    2  A    between atoms: N_16  and  C_17
REMARK    3  A    between atoms: C_20  and  O_21
REMARK    4  A    between atoms: O_21  and  C_22
REMARK                            x       y       z     vdW  Elec       q    Type
REMARK                         _______ _______ _______ _____ _____    ______ ____
ROOT
ATOM      1  C   UNL     1       6.847   7.330  17.599  0.00  0.00    +0.000 A 
ATOM      2  C   UNL     1       7.527   6.243  17.071  0.00  0.00    +0.000 A 
ATOM      3  C   UNL     1       6.906   4.993  17.037  0.00  0.00    +0.000 A 
ATOM      4  C   UNL     1       5.610   4.814  17.554  0.00  0.00    +0.000 A 
ATOM      5  C   UNL     1       5.007   3.486  17.475  0.00  0.00    +0.000 A 
ATOM      6  C   UNL     1       3.770   3.261  17.932  0.00  0.00    +0.000 A 
ATOM      7  C   UNL     1       3.172   1.917  17.854  0.00  0.00    +0.000 A 
ATOM      8  O   UNL     1       3.751   0.951  17.378  0.00  0.00    +0.000 OA
ATOM      9  N   UNL     1       1.926   1.844  18.380  0.00  0.00    +0.000 N 
ATOM     10  C   UNL     1       1.207   2.880  18.909  0.00  0.00    +0.000 A 
ATOM     11  O   UNL     1       0.046   2.692  19.231  0.00  0.00    +0.000 OA
ATOM     12  N   UNL     1       1.810   4.102  19.029  0.00  0.00    +0.000 NA
ATOM     13  C   UNL     1       2.995   4.379  18.553  0.00  0.00    +0.000 A 
ATOM     14  N   UNL     1       3.556   5.701  18.621  0.00  0.00    +0.000 N 
ATOM     15  C   UNL     1       4.900   5.901  18.107  0.00  0.00    +0.000 A 
ATOM     16  C   UNL     1       5.546   7.156  18.082  0.00  0.00    +0.000 A 
ATOM     17  H   UNL     1       1.431   0.967  18.320  0.00  0.00    +0.000 HD
ENDROOT
BRANCH  14  18
ATOM     18  C   UNL     1       2.724   6.763  19.135  0.00  0.00    +0.000 A 
ATOM     19  C   UNL     1       2.353   7.879  18.366  0.00  0.00    +0.000 A 
ATOM     20  C   UNL     1       1.518   8.885  18.863  0.00  0.00    +0.000 A 
ATOM     21  C   UNL     1       1.114   8.853  20.188  0.00  0.00    +0.000 A 
ATOM     22  C   UNL     1       1.520   7.788  20.994  0.00  0.00    +0.000 A 
ATOM     23  C   UNL     1       2.262   6.739  20.460  0.00  0.00    +0.000 A 
BRANCH  21  24
ATOM     24  O   UNL     1       0.348   9.916  20.622  0.00  0.00    +0.000 OA
BRANCH  24  25
ATOM     25  C   UNL     1       0.239  11.007  19.789  0.00  0.00    +0.000 A 
ATOM     26  C   UNL     1       1.225  11.993  19.864  0.00  0.00    +0.000 A 
ATOM     27  C   UNL     1       1.048  13.184  19.156  0.00  0.00    +0.000 A 
ATOM     28  C   UNL     1      -0.095  13.361  18.379  0.00  0.00    +0.000 A 
ATOM     29  F   UNL     1      -0.301  14.530  17.760  0.00  0.00    +0.000 F 
ATOM     30  C   UNL     1      -1.031  12.350  18.234  0.00  0.00    +0.000 A 
ATOM     31  C   UNL     1      -0.836  11.153  18.905  0.00  0.00    +0.000 A 
ENDBRANCH  24  25
ENDBRANCH  21  24
ENDBRANCH  14  18
BRANCH   1  33
ATOM     32  N   UNL     1       7.966   9.671  17.682  0.00  0.00    +0.000 NA
ATOM     33  C   UNL     1       7.456   8.625  17.650  0.00  0.00    +0.000 C 
ENDBRANCH   1  33
TORSDOF 4
ENDMDL
