MODEL 1
REMARK VINA RESULT:      -8.2      0.000      0.000
REMARK  Name = 
REMARK  5 active torsions:
REMARK  status: ('A' for Active; 'I' for Inactive)
REMARK    1  A    between atoms: C_1  and  C_2
REMARK    2  A    between atoms: C_2  and  O_3
REMARK    3  A    between atoms: C_2  and  C_12
REMARK    4  A    between atoms: O_3  and  C_4
REMARK    5  A    between atoms: N_17  and  C_18
REMARK                            x       y       z     vdW  Elec       q    Type
REMARK                         _______ _______ _______ _____ _____    ______ ____
ROOT
ATOM      1  C   UNL     1       3.342   5.671  19.152  0.00  0.00    +0.000 C 
ATOM      2  O   UNL     1       4.347   5.945  19.810  0.00  0.00    +0.000 OA
ATOM      3  N   UNL     1       3.410   5.157  17.870  0.00  0.00    +0.000 N 
ATOM      4  C   UNL     1       4.584   4.873  17.235  0.00  0.00    +0.000 C 
ATOM      5  N   UNL     1       4.683   4.694  15.955  0.00  0.00    +0.000 NA
ATOM      6  N   UNL     1       6.034   4.424  15.713  0.00  0.00    +0.000 N 
ATOM      7  C   UNL     1       6.822   4.396  16.874  0.00  0.00    +0.000 C 
ATOM      8  O   UNL     1       8.020   4.210  17.033  0.00  0.00    +0.000 OA
ATOM      9  C   UNL     1       5.884   4.741  17.973  0.00  0.00    +0.000 C 
ATOM     10  H   UNL     1       2.560   5.137  17.316  0.00  0.00    +0.000 HD
ENDROOT
BRANCH   6  11
ATOM     11  C   UNL     1       6.525   4.372  14.382  0.00  0.00    +0.000 A 
ATOM     12  C   UNL     1       7.493   5.281  13.926  0.00  0.00    +0.000 A 
ATOM     13  C   UNL     1       7.903   5.298  12.589  0.00  0.00    +0.000 A 
ATOM     14  C   UNL     1       7.350   4.400  11.683  0.00  0.00    +0.000 A 
ATOM     15  C   UNL     1       6.401   3.477  12.121  0.00  0.00    +0.000 A 
ATOM     16  C   UNL     1       6.005   3.449  13.463  0.00  0.00    +0.000 A 
ENDBRANCH   6  11
BRANCH   1  18
ATOM     17  C   UNL     1       1.604   4.599  20.547  0.00  0.00    +0.000 C 
ATOM     18  C   UNL     1       1.947   5.883  19.781  0.00  0.00    +0.000 C 
BRANCH  18  19
ATOM     19  O   UNL     1       1.884   7.030  20.623  0.00  0.00    +0.000 OA
BRANCH  19  20
ATOM     20  C   UNL     1       1.602   8.247  20.045  0.00  0.00    +0.000 A 
ATOM     21  C   UNL     1       1.823   8.563  18.698  0.00  0.00    +0.000 A 
ATOM     22  C   UNL     1       1.461   9.813  18.183  0.00  0.00    +0.000 A 
ATOM     23  C   UNL     1       0.891  10.764  19.014  0.00  0.00    +0.000 A 
ATOM     24 CL   UNL     1       0.456  12.303  18.378  0.00  0.00    +0.000 Cl
ATOM     25  C   UNL     1       0.670  10.482  20.360  0.00  0.00    +0.000 A 
ATOM     26  C   UNL     1       1.017   9.225  20.867  0.00  0.00    +0.000 A 
ATOM     27 CL   UNL     1       0.737   8.926  22.548  0.00  0.00    +0.000 Cl
ENDBRANCH  19  20
ENDBRANCH  18  19
ENDBRANCH   1  18
TORSDOF 4
ENDMDL
MODEL 2
REMARK VINA RESULT:      -8.1      3.644      5.277
REMARK  Name = 
REMARK  5 active torsions:
REMARK  status: ('A' for Active; 'I' for Inactive)
REMARK    1  A    between atoms: C_1  and  C_2
REMARK    2  A    between atoms: C_2  and  O_3
REMARK    3  A    between atoms: C_2  and  C_12
REMARK    4  A    between atoms: O_3  and  C_4
REMARK    5  A    between atoms: N_17  and  C_18
REMARK                            x       y       z     vdW  Elec       q    Type
REMARK                         _______ _______ _______ _____ _____    ______ ____
ROOT
ATOM      1  C   UNL     1       1.445   9.752  18.578  0.00  0.00    +0.000 C 
ATOM      2  O   UNL     1       1.920  10.017  17.472  0.00  0.00    +0.000 OA
ATOM      3  N   UNL     1       1.667   8.544  19.214  0.00  0.00    +0.000 N 
ATOM      4  C   UNL     1       2.457   7.557  18.699  0.00  0.00    +0.000 C 
ATOM      5  N   UNL     1       2.430   6.328  19.109  0.00  0.00    +0.000 NA
ATOM      6  N   UNL     1       3.380   5.650  18.339  0.00  0.00    +0.000 N 
ATOM      7  C   UNL     1       4.061   6.472  17.427  0.00  0.00    +0.000 C 
ATOM      8  O   UNL     1       4.926   6.219  16.602  0.00  0.00    +0.000 OA
ATOM      9  C   UNL     1       3.440   7.812  17.594  0.00  0.00    +0.000 C 
ATOM     10  H   UNL     1       1.096   8.315  20.021  0.00  0.00    +0.000 HD
ENDROOT
BRANCH   6  11
ATOM     11  C   UNL     1       3.468   4.234  18.397  0.00  0.00    +0.000 A 
ATOM     12  C   UNL     1       2.697   3.420  17.552  0.00  0.00    +0.000 A 
ATOM     13  C   UNL     1       2.705   2.028  17.676  0.00  0.00    +0.000 A 
ATOM     14  C   UNL     1       3.490   1.424  18.652  0.00  0.00    +0.000 A 
ATOM     15  C   UNL     1       4.277   2.214  19.488  0.00  0.00    +0.000 A 
ATOM     16  C   UNL     1       4.282   3.607  19.350  0.00  0.00    +0.000 A 
ENDBRANCH   6  11
BRANCH   1  18
ATOM     17  C   UNL     1      -0.883  10.439  19.055  0.00  0.00    +0.000 C 
ATOM     18  C   UNL     1       0.585  10.811  19.303  0.00  0.00    +0.000 C 
BRANCH  18  19
ATOM     19  O   UNL     1       0.874  10.907  20.694  0.00  0.00    +0.000 OA
BRANCH  19  20
ATOM     20  C   UNL     1       0.019  11.637  21.488  0.00  0.00    +0.000 A 
ATOM     21  C   UNL     1      -0.168  13.023  21.401  0.00  0.00    +0.000 A 
ATOM     22  C   UNL     1      -1.096  13.677  22.217  0.00  0.00    +0.000 A 
ATOM     23  C   UNL     1      -1.834  12.955  23.142  0.00  0.00    +0.000 A 
ATOM     24 CL   UNL     1      -2.968  13.766  24.151  0.00  0.00    +0.000 Cl
ATOM     25  C   UNL     1      -1.662  11.578  23.260  0.00  0.00    +0.000 A 
ATOM     26  C   UNL     1      -0.745  10.924  22.429  0.00  0.00    +0.000 A 
ATOM     27 CL   UNL     1      -0.554   9.215  22.622  0.00  0.00    +0.000 Cl
ENDBRANCH  19  20
ENDBRANCH  18  19
ENDBRANCH   1  18
TORSDOF 4
ENDMDL
MODEL 3
REMARK VINA RESULT:      -8.0      2.487      4.157
REMARK  Name = 
REMARK  5 active torsions:
REMARK  status: ('A' for Active; 'I' for Inactive)
REMARK    1  A    between atoms: C_1  and  C_2
REMARK    2  A    between atoms: C_2  and  O_3
REMARK    3  A    between atoms: C_2  and  C_12
REMARK    4  A    between atoms: O_3  and  C_4
REMARK    5  A    between atoms: N_17  and  C_18
REMARK                            x       y       z     vdW  Elec       q    Type
REMARK                         _______ _______ _______ _____ _____    ______ ____
ROOT
ATOM      1  C   UNL     1       1.120   8.349  20.630  0.00  0.00    +0.000 C 
ATOM      2  O   UNL     1       1.354   7.621  21.596  0.00  0.00    +0.000 OA
ATOM      3  N   UNL     1       1.654   8.116  19.376  0.00  0.00    +0.000 N 
ATOM      4  C   UNL     1       2.451   7.047  19.085  0.00  0.00    +0.000 C 
ATOM      5  N   UNL     1       3.201   6.976  18.030  0.00  0.00    +0.000 NA
ATOM      6  N   UNL     1       3.843   5.736  18.102  0.00  0.00    +0.000 N 
ATOM      7  C   UNL     1       3.471   4.971  19.219  0.00  0.00    +0.000 C 
ATOM      8  O   UNL     1       3.835   3.868  19.600  0.00  0.00    +0.000 OA
ATOM      9  C   UNL     1       2.530   5.840  19.973  0.00  0.00    +0.000 C 
ATOM     10  H   UNL     1       1.584   8.852  18.680  0.00  0.00    +0.000 HD
ENDROOT
BRANCH   6  11
ATOM     11  C   UNL     1       4.891   5.419  17.199  0.00  0.00    +0.000 A 
ATOM     12  C   UNL     1       4.785   4.339  16.308  0.00  0.00    +0.000 A 
ATOM     13  C   UNL     1       5.854   3.963  15.490  0.00  0.00    +0.000 A 
ATOM     14  C   UNL     1       7.052   4.665  15.549  0.00  0.00    +0.000 A 
ATOM     15  C   UNL     1       7.171   5.752  16.413  0.00  0.00    +0.000 A 
ATOM     16  C   UNL     1       6.094   6.139  17.218  0.00  0.00    +0.000 A 
ENDBRANCH   6  11
BRANCH   1  18
ATOM     17  C   UNL     1       0.511  10.188  22.168  0.00  0.00    +0.000 C 
ATOM     18  C   UNL     1       0.178   9.559  20.808  0.00  0.00    +0.000 C 
BRANCH  18  19
ATOM     19  O   UNL     1       0.283  10.509  19.752  0.00  0.00    +0.000 OA
BRANCH  19  20
ATOM     20  C   UNL     1      -0.789  10.656  18.900  0.00  0.00    +0.000 A 
ATOM     21  C   UNL     1      -0.991   9.911  17.731  0.00  0.00    +0.000 A 
ATOM     22  C   UNL     1      -2.136  10.095  16.949  0.00  0.00    +0.000 A 
ATOM     23  C   UNL     1      -3.081  11.039  17.318  0.00  0.00    +0.000 A 
ATOM     24 CL   UNL     1      -4.484  11.268  16.348  0.00  0.00    +0.000 Cl
ATOM     25  C   UNL     1      -2.902  11.802  18.469  0.00  0.00    +0.000 A 
ATOM     26  C   UNL     1      -1.764  11.603  19.258  0.00  0.00    +0.000 A 
ATOM     27 CL   UNL     1      -1.577  12.586  20.670  0.00  0.00    +0.000 Cl
ENDBRANCH  19  20
ENDBRANCH  18  19
ENDBRANCH   1  18
TORSDOF 4
ENDMDL
MODEL 4
REMARK VINA RESULT:      -8.0      3.309      5.251
REMARK  Name = 
REMARK  5 active torsions:
REMARK  status: ('A' for Active; 'I' for Inactive)
REMARK    1  A    between atoms: C_1  and  C_2
REMARK    2  A    between atoms: C_2  and  O_3
REMARK    3  A    between atoms: C_2  and  C_12
REMARK    4  A    between atoms: O_3  and  C_4
REMARK    5  A    between atoms: N_17  and  C_18
REMARK                            x       y       z     vdW  Elec       q    Type
REMARK                         _______ _______ _______ _____ _____    ______ ____
ROOT
ATOM      1  C   UNL     1       0.970   9.941  19.500  0.00  0.00    +0.000 C 
ATOM      2  O   UNL     1       1.023   9.491  20.646  0.00  0.00    +0.000 OA
ATOM      3  N   UNL     1       1.596   9.329  18.430  0.00  0.00    +0.000 N 
ATOM      4  C   UNL     1       2.292   8.159  18.535  0.00  0.00    +0.000 C 
ATOM      5  N   UNL     1       3.131   7.740  17.640  0.00  0.00    +0.000 NA
ATOM      6  N   UNL     1       3.619   6.520  18.118  0.00  0.00    +0.000 N 
ATOM      7  C   UNL     1       3.054   6.126  19.341  0.00  0.00    +0.000 C 
ATOM      8  O   UNL     1       3.253   5.145  20.044  0.00  0.00    +0.000 OA
ATOM      9  C   UNL     1       2.147   7.243  19.714  0.00  0.00    +0.000 C 
ATOM     10  H   UNL     1       1.678   9.847  17.561  0.00  0.00    +0.000 HD
ENDROOT
BRANCH   6  11
ATOM     11  C   UNL     1       4.709   5.883  17.470  0.00  0.00    +0.000 A 
ATOM     12  C   UNL     1       5.981   6.476  17.429  0.00  0.00    +0.000 A 
ATOM     13  C   UNL     1       7.030   5.901  16.706  0.00  0.00    +0.000 A 
ATOM     14  C   UNL     1       6.823   4.716  16.009  0.00  0.00    +0.000 A 
ATOM     15  C   UNL     1       5.572   4.101  16.053  0.00  0.00    +0.000 A 
ATOM     16  C   UNL     1       4.529   4.669  16.793  0.00  0.00    +0.000 A 
ENDBRANCH   6  11
BRANCH   1  18
ATOM     17  C   UNL     1       1.167  12.337  18.919  0.00  0.00    +0.000 C 
ATOM     18  C   UNL     1       0.156  11.226  19.231  0.00  0.00    +0.000 C 
BRANCH  18  19
ATOM     19  O   UNL     1      -0.796  11.074  18.183  0.00  0.00    +0.000 OA
BRANCH  19  20
ATOM     20  C   UNL     1      -2.114  11.367  18.454  0.00  0.00    +0.000 A 
ATOM     21  C   UNL     1      -2.556  12.145  19.532  0.00  0.00    +0.000 A 
ATOM     22  C   UNL     1      -3.914  12.432  19.704  0.00  0.00    +0.000 A 
ATOM     23  C   UNL     1      -4.846  11.927  18.810  0.00  0.00    +0.000 A 
ATOM     24 CL   UNL     1      -6.517  12.275  19.031  0.00  0.00    +0.000 Cl
ATOM     25  C   UNL     1      -4.437  11.141  17.736  0.00  0.00    +0.000 A 
ATOM     26  C   UNL     1      -3.076  10.871  17.557  0.00  0.00    +0.000 A 
ATOM     27 CL   UNL     1      -2.618   9.877  16.217  0.00  0.00    +0.000 Cl
ENDBRANCH  19  20
ENDBRANCH  18  19
ENDBRANCH   1  18
TORSDOF 4
ENDMDL
MODEL 5
REMARK VINA RESULT:      -8.0      3.831      5.538
REMARK  Name = 
REMARK  5 active torsions:
REMARK  status: ('A' for Active; 'I' for Inactive)
REMARK    1  A    between atoms: C_1  and  C_2
REMARK    2  A    between atoms: C_2  and  O_3
REMARK    3  A    between atoms: C_2  and  C_12
REMARK    4  A    between atoms: O_3  and  C_4
REMARK    5  A    between atoms: N_17  and  C_18
REMARK                            x       y       z     vdW  Elec       q    Type
REMARK                         _______ _______ _______ _____ _____    ______ ____
ROOT
ATOM      1  C   UNL     1       1.322   9.880  18.663  0.00  0.00    +0.000 C 
ATOM      2  O   UNL     1       1.825  10.124  17.564  0.00  0.00    +0.000 OA
ATOM      3  N   UNL     1       1.506   8.673  19.313  0.00  0.00    +0.000 N 
ATOM      4  C   UNL     1       2.285   7.665  18.822  0.00  0.00    +0.000 C 
ATOM      5  N   UNL     1       2.224   6.441  19.242  0.00  0.00    +0.000 NA
ATOM      6  N   UNL     1       3.174   5.735  18.496  0.00  0.00    +0.000 N 
ATOM      7  C   UNL     1       3.890   6.535  17.592  0.00  0.00    +0.000 C 
ATOM      8  O   UNL     1       4.766   6.256  16.786  0.00  0.00    +0.000 OA
ATOM      9  C   UNL     1       3.295   7.889  17.735  0.00  0.00    +0.000 C 
ATOM     10  H   UNL     1       0.915   8.463  20.110  0.00  0.00    +0.000 HD
ENDROOT
BRANCH   6  11
ATOM     11  C   UNL     1       3.231   4.319  18.568  0.00  0.00    +0.000 A 
ATOM     12  C   UNL     1       4.087   3.668  19.471  0.00  0.00    +0.000 A 
ATOM     13  C   UNL     1       4.220   2.277  19.474  0.00  0.00    +0.000 A 
ATOM     14  C   UNL     1       3.496   1.509  18.570  0.00  0.00    +0.000 A 
ATOM     15  C   UNL     1       2.626   2.135  17.678  0.00  0.00    +0.000 A 
ATOM     16  C   UNL     1       2.480   3.527  17.689  0.00  0.00    +0.000 A 
ENDBRANCH   6  11
BRANCH   1  18
ATOM     17  C   UNL     1       1.432  11.810  20.205  0.00  0.00    +0.000 C 
ATOM     18  C   UNL     1       0.471  10.963  19.361  0.00  0.00    +0.000 C 
BRANCH  18  19
ATOM     19  O   UNL     1      -0.270  11.765  18.446  0.00  0.00    +0.000 OA
BRANCH  19  20
ATOM     20  C   UNL     1      -1.612  11.502  18.291  0.00  0.00    +0.000 A 
ATOM     21  C   UNL     1      -2.146  10.561  17.401  0.00  0.00    +0.000 A 
ATOM     22  C   UNL     1      -3.524  10.325  17.343  0.00  0.00    +0.000 A 
ATOM     23  C   UNL     1      -4.383  11.041  18.161  0.00  0.00    +0.000 A 
ATOM     24 CL   UNL     1      -6.078  10.754  18.080  0.00  0.00    +0.000 Cl
ATOM     25  C   UNL     1      -3.883  11.991  19.047  0.00  0.00    +0.000 A 
ATOM     26  C   UNL     1      -2.503  12.212  19.115  0.00  0.00    +0.000 A 
ATOM     27 CL   UNL     1      -1.929  13.413  20.221  0.00  0.00    +0.000 Cl
ENDBRANCH  19  20
ENDBRANCH  18  19
ENDBRANCH   1  18
TORSDOF 4
ENDMDL
MODEL 6
REMARK VINA RESULT:      -7.9      3.911      5.702
REMARK  Name = 
REMARK  5 active torsions:
REMARK  status: ('A' for Active; 'I' for Inactive)
REMARK    1  A    between atoms: C_1  and  C_2
REMARK    2  A    between atoms: C_2  and  O_3
REMARK    3  A    between atoms: C_2  and  C_12
REMARK    4  A    between atoms: O_3  and  C_4
REMARK    5  A    between atoms: N_17  and  C_18
REMARK                            x       y       z     vdW  Elec       q    Type
REMARK                         _______ _______ _______ _____ _____    ______ ____
ROOT
ATOM      1  C   UNL     1       1.251   9.870  18.746  0.00  0.00    +0.000 C 
ATOM      2  O   UNL     1       1.708  10.115  17.629  0.00  0.00    +0.000 OA
ATOM      3  N   UNL     1       1.474   8.669  19.395  0.00  0.00    +0.000 N 
ATOM      4  C   UNL     1       2.247   7.669  18.879  0.00  0.00    +0.000 C 
ATOM      5  N   UNL     1       2.217   6.446  19.307  0.00  0.00    +0.000 NA
ATOM      6  N   UNL     1       3.147   5.749  18.530  0.00  0.00    +0.000 N 
ATOM      7  C   UNL     1       3.818   6.552  17.595  0.00  0.00    +0.000 C 
ATOM      8  O   UNL     1       4.666   6.281  16.758  0.00  0.00    +0.000 OA
ATOM      9  C   UNL     1       3.212   7.900  17.754  0.00  0.00    +0.000 C 
ATOM     10  H   UNL     1       0.916   8.456  20.215  0.00  0.00    +0.000 HD
ENDROOT
BRANCH   6  11
ATOM     11  C   UNL     1       3.225   4.333  18.606  0.00  0.00    +0.000 A 
ATOM     12  C   UNL     1       4.034   3.698  19.561  0.00  0.00    +0.000 A 
ATOM     13  C   UNL     1       4.192   2.309  19.573  0.00  0.00    +0.000 A 
ATOM     14  C   UNL     1       3.539   1.529  18.626  0.00  0.00    +0.000 A 
ATOM     15  C   UNL     1       2.717   2.140  17.681  0.00  0.00    +0.000 A 
ATOM     16  C   UNL     1       2.545   3.529  17.681  0.00  0.00    +0.000 A 
ENDBRANCH   6  11
BRANCH   1  18
ATOM     17  C   UNL     1       1.395  11.815  20.267  0.00  0.00    +0.000 C 
ATOM     18  C   UNL     1       0.413  10.946  19.471  0.00  0.00    +0.000 C 
BRANCH  18  19
ATOM     19  O   UNL     1      -0.379  11.728  18.583  0.00  0.00    +0.000 OA
BRANCH  19  20
ATOM     20  C   UNL     1      -1.726  11.845  18.843  0.00  0.00    +0.000 A 
ATOM     21  C   UNL     1      -2.281  12.649  19.847  0.00  0.00    +0.000 A 
ATOM     22  C   UNL     1      -3.667  12.744  20.010  0.00  0.00    +0.000 A 
ATOM     23  C   UNL     1      -4.512  12.022  19.182  0.00  0.00    +0.000 A 
ATOM     24 CL   UNL     1      -6.216  12.135  19.392  0.00  0.00    +0.000 Cl
ATOM     25  C   UNL     1      -3.989  11.205  18.182  0.00  0.00    +0.000 A 
ATOM     26  C   UNL     1      -2.603  11.126  18.011  0.00  0.00    +0.000 A 
ATOM     27 CL   UNL     1      -1.999  10.087  16.766  0.00  0.00    +0.000 Cl
ENDBRANCH  19  20
ENDBRANCH  18  19
ENDBRANCH   1  18
TORSDOF 4
ENDMDL
MODEL 7
REMARK VINA RESULT:      -7.8      3.722      5.303
REMARK  Name = 
REMARK  5 active torsions:
REMARK  status: ('A' for Active; 'I' for Inactive)
REMARK    1  A    between atoms: C_1  and  C_2
REMARK    2  A    between atoms: C_2  and  O_3
REMARK    3  A    between atoms: C_2  and  C_12
REMARK    4  A    between atoms: O_3  and  C_4
REMARK    5  A    between atoms: N_17  and  C_18
REMARK                            x       y       z     vdW  Elec       q    Type
REMARK                         _______ _______ _______ _____ _____    ______ ____
ROOT
ATOM      1  C   UNL     1       1.406   9.828  18.568  0.00  0.00    +0.000 C 
ATOM      2  O   UNL     1       1.923  10.060  17.474  0.00  0.00    +0.000 OA
ATOM      3  N   UNL     1       1.572   8.625  19.230  0.00  0.00    +0.000 N 
ATOM      4  C   UNL     1       2.347   7.607  18.756  0.00  0.00    +0.000 C 
ATOM      5  N   UNL     1       2.271   6.386  19.186  0.00  0.00    +0.000 NA
ATOM      6  N   UNL     1       3.223   5.667  18.456  0.00  0.00    +0.000 N 
ATOM      7  C   UNL     1       3.956   6.453  17.553  0.00  0.00    +0.000 C 
ATOM      8  O   UNL     1       4.838   6.160  16.760  0.00  0.00    +0.000 OA
ATOM      9  C   UNL     1       3.371   7.813  17.679  0.00  0.00    +0.000 C 
ATOM     10  H   UNL     1       0.970   8.427  20.022  0.00  0.00    +0.000 HD
ENDROOT
BRANCH   6  11
ATOM     11  C   UNL     1       3.267   4.251  18.540  0.00  0.00    +0.000 A 
ATOM     12  C   UNL     1       4.136   3.599  19.429  0.00  0.00    +0.000 A 
ATOM     13  C   UNL     1       4.256   2.206  19.442  0.00  0.00    +0.000 A 
ATOM     14  C   UNL     1       3.502   1.438  18.562  0.00  0.00    +0.000 A 
ATOM     15  C   UNL     1       2.619   2.066  17.684  0.00  0.00    +0.000 A 
ATOM     16  C   UNL     1       2.487   3.459  17.685  0.00  0.00    +0.000 A 
ENDBRANCH   6  11
BRANCH   1  18
ATOM     17  C   UNL     1      -0.911  10.619  18.920  0.00  0.00    +0.000 C 
ATOM     18  C   UNL     1       0.556  10.924  19.248  0.00  0.00    +0.000 C 
BRANCH  18  19
ATOM     19  O   UNL     1       0.774  11.006  20.654  0.00  0.00    +0.000 OA
BRANCH  19  20
ATOM     20  C   UNL     1       0.208  12.057  21.339  0.00  0.00    +0.000 A 
ATOM     21  C   UNL     1       0.371  13.409  21.009  0.00  0.00    +0.000 A 
ATOM     22  C   UNL     1      -0.282  14.411  21.734  0.00  0.00    +0.000 A 
ATOM     23  C   UNL     1      -1.089  14.073  22.809  0.00  0.00    +0.000 A 
ATOM     24 CL   UNL     1      -1.882  15.311  23.704  0.00  0.00    +0.000 Cl
ATOM     25  C   UNL     1      -1.260  12.739  23.169  0.00  0.00    +0.000 A 
ATOM     26  C   UNL     1      -0.620  11.738  22.430  0.00  0.00    +0.000 A 
ATOM     27 CL   UNL     1      -0.851  10.096  22.923  0.00  0.00    +0.000 Cl
ENDBRANCH  19  20
ENDBRANCH  18  19
ENDBRANCH   1  18
TORSDOF 4
ENDMDL
MODEL 8
REMARK VINA RESULT:      -7.8      2.849      4.722
REMARK  Name = 
REMARK  5 active torsions:
REMARK  status: ('A' for Active; 'I' for Inactive)
REMARK    1  A    between atoms: C_1  and  C_2
REMARK    2  A    between atoms: C_2  and  O_3
REMARK    3  A    between atoms: C_2  and  C_12
REMARK    4  A    between atoms: O_3  and  C_4
REMARK    5  A    between atoms: N_17  and  C_18
REMARK                            x       y       z     vdW  Elec       q    Type
REMARK                         _______ _______ _______ _____ _____    ______ ____
ROOT
ATOM      1  C   UNL     1       1.084   9.185  20.064  0.00  0.00    +0.000 C 
ATOM      2  O   UNL     1       1.026   8.539  21.111  0.00  0.00    +0.000 OA
ATOM      3  N   UNL     1       1.780   8.743  18.954  0.00  0.00    +0.000 N 
ATOM      4  C   UNL     1       2.429   7.543  18.902  0.00  0.00    +0.000 C 
ATOM      5  N   UNL     1       3.327   7.250  18.015  0.00  0.00    +0.000 NA
ATOM      6  N   UNL     1       3.734   5.944  18.304  0.00  0.00    +0.000 N 
ATOM      7  C   UNL     1       3.056   5.367  19.389  0.00  0.00    +0.000 C 
ATOM      8  O   UNL     1       3.164   4.270  19.917  0.00  0.00    +0.000 OA
ATOM      9  C   UNL     1       2.155   6.441  19.883  0.00  0.00    +0.000 C 
ATOM     10  H   UNL     1       1.951   9.402  18.201  0.00  0.00    +0.000 HD
ENDROOT
BRANCH   6  11
ATOM     11  C   UNL     1       4.856   5.382  17.640  0.00  0.00    +0.000 A 
ATOM     12  C   UNL     1       6.152   5.509  18.163  0.00  0.00    +0.000 A 
ATOM     13  C   UNL     1       7.270   5.046  17.461  0.00  0.00    +0.000 A 
ATOM     14  C   UNL     1       7.107   4.444  16.219  0.00  0.00    +0.000 A 
ATOM     15  C   UNL     1       5.826   4.291  15.691  0.00  0.00    +0.000 A 
ATOM     16  C   UNL     1       4.707   4.739  16.403  0.00  0.00    +0.000 A 
ENDBRANCH   6  11
BRANCH   1  18
ATOM     17  C   UNL     1       1.286  11.610  20.507  0.00  0.00    +0.000 C 
ATOM     18  C   UNL     1       0.336  10.533  19.967  0.00  0.00    +0.000 C 
BRANCH  18  19
ATOM     19  O   UNL     1      -0.101  10.834  18.645  0.00  0.00    +0.000 OA
BRANCH  19  20
ATOM     20  C   UNL     1      -1.453  10.826  18.389  0.00  0.00    +0.000 A 
ATOM     21  C   UNL     1      -2.140   9.789  17.743  0.00  0.00    +0.000 A 
ATOM     22  C   UNL     1      -3.526   9.844  17.568  0.00  0.00    +0.000 A 
ATOM     23  C   UNL     1      -4.238  10.944  18.020  0.00  0.00    +0.000 A 
ATOM     24 CL   UNL     1      -5.943  11.011  17.793  0.00  0.00    +0.000 Cl
ATOM     25  C   UNL     1      -3.582  11.995  18.655  0.00  0.00    +0.000 A 
ATOM     26  C   UNL     1      -2.197  11.929  18.845  0.00  0.00    +0.000 A 
ATOM     27 CL   UNL     1      -1.423  13.265  19.625  0.00  0.00    +0.000 Cl
ENDBRANCH  19  20
ENDBRANCH  18  19
ENDBRANCH   1  18
TORSDOF 4
ENDMDL
MODEL 9
REMARK VINA RESULT:      -7.7      2.783      4.836
REMARK  Name = 
REMARK  5 active torsions:
REMARK  status: ('A' for Active; 'I' for Inactive)
REMARK    1  A    between atoms: C_1  and  C_2
REMARK    2  A    between atoms: C_2  and  O_3
REMARK    3  A    between atoms: C_2  and  C_12
REMARK    4  A    between atoms: O_3  and  C_4
REMARK    5  A    between atoms: N_17  and  C_18
REMARK                            x       y       z     vdW  Elec       q    Type
REMARK                         _______ _______ _______ _____ _____    ______ ____
ROOT
ATOM      1  C   UNL     1       1.081   9.605  19.101  0.00  0.00    +0.000 C 
ATOM      2  O   UNL     1       0.992   9.204  20.263  0.00  0.00    +0.000 OA
ATOM      3  N   UNL     1       1.846   8.959  18.148  0.00  0.00    +0.000 N 
ATOM      4  C   UNL     1       2.538   7.808  18.392  0.00  0.00    +0.000 C 
ATOM      5  N   UNL     1       3.489   7.366  17.631  0.00  0.00    +0.000 NA
ATOM      6  N   UNL     1       3.926   6.176  18.221  0.00  0.00    +0.000 N 
ATOM      7  C   UNL     1       3.214   5.824  19.378  0.00  0.00    +0.000 C 
ATOM      8  O   UNL     1       3.334   4.878  20.143  0.00  0.00    +0.000 OA
ATOM      9  C   UNL     1       2.254   6.939  19.582  0.00  0.00    +0.000 C 
ATOM     10  H   UNL     1       2.032   9.442  17.275  0.00  0.00    +0.000 HD
ENDROOT
BRANCH   6  11
ATOM     11  C   UNL     1       5.099   5.532  17.746  0.00  0.00    +0.000 A 
ATOM     12  C   UNL     1       6.323   5.655  18.422  0.00  0.00    +0.000 A 
ATOM     13  C   UNL     1       7.500   5.107  17.902  0.00  0.00    +0.000 A 
ATOM     14  C   UNL     1       7.470   4.422  16.694  0.00  0.00    +0.000 A 
ATOM     15  C   UNL     1       6.261   4.273  16.017  0.00  0.00    +0.000 A 
ATOM     16  C   UNL     1       5.080   4.806  16.547  0.00  0.00    +0.000 A 
ENDBRANCH   6  11
BRANCH   1  18
ATOM     17  C   UNL     1      -1.180  10.448  18.559  0.00  0.00    +0.000 C 
ATOM     18  C   UNL     1       0.292  10.863  18.675  0.00  0.00    +0.000 C 
BRANCH  18  19
ATOM     19  O   UNL     1       0.461  11.957  19.572  0.00  0.00    +0.000 OA
BRANCH  19  20
ATOM     20  C   UNL     1       1.197  13.039  19.146  0.00  0.00    +0.000 A 
ATOM     21  C   UNL     1       2.487  12.966  18.604  0.00  0.00    +0.000 A 
ATOM     22  C   UNL     1       3.144  14.116  18.152  0.00  0.00    +0.000 A 
ATOM     23  C   UNL     1       2.526  15.352  18.256  0.00  0.00    +0.000 A 
ATOM     24 CL   UNL     1       3.342  16.764  17.708  0.00  0.00    +0.000 Cl
ATOM     25  C   UNL     1       1.249  15.457  18.802  0.00  0.00    +0.000 A 
ATOM     26  C   UNL     1       0.587  14.302  19.235  0.00  0.00    +0.000 A 
ATOM     27 CL   UNL     1      -0.992  14.484  19.920  0.00  0.00    +0.000 Cl
ENDBRANCH  19  20
ENDBRANCH  18  19
ENDBRANCH   1  18
TORSDOF 4
ENDMDL
