MODEL 1
REMARK VINA RESULT:      -7.5      0.000      0.000
REMARK  Name = 
REMARK  11 active torsions:
REMARK  status: ('A' for Active; 'I' for Inactive)
REMARK    1  A    between atoms: C_1  and  C_2
REMARK    2  A    between atoms: C_2  and  C_3
REMARK    3  A    between atoms: C_2  and  C_4
REMARK    4  A    between atoms: C_4  and  C_5
REMARK    5  A    between atoms: C_5  and  N_6
REMARK    6  A    between atoms: C_13  and  C_14
REMARK    7  A    between atoms: C_13  and  C_18
REMARK    8  A    between atoms: C_14  and  C_15
REMARK    9  A    between atoms: C_15  and  C_16
REMARK   10  A    between atoms: C_16  and  N_17
REMARK   11  A    between atoms: C_18  and  O_20
REMARK                            x       y       z     vdW  Elec       q    Type
REMARK                         _______ _______ _______ _____ _____    ______ ____
ROOT
ATOM      1  N   UNL     1       3.377   5.559  19.056  0.00  0.00    +0.000 N 
ATOM      2  C   UNL     1       3.327   6.896  18.859  0.00  0.00    +0.000 A 
ATOM      3  N   UNL     1       3.911   7.270  17.699  0.00  0.00    +0.000 NA
ATOM      4  C   UNL     1       4.332   6.112  17.154  0.00  0.00    +0.000 A 
ATOM      5  C   UNL     1       4.002   5.062  17.971  0.00  0.00    +0.000 A 
ATOM      6  C   UNL     1       4.381   3.632  17.697  0.00  0.00    +0.000 C 
ATOM      7  C   UNL     1       5.062   3.492  16.315  0.00  0.00    +0.000 C 
ATOM      8  C   UNL     1       6.032   4.677  15.985  0.00  0.00    +0.000 C 
ATOM      9  C   UNL     1       5.156   5.969  15.912  0.00  0.00    +0.000 C 
ENDROOT
BRANCH   8  10
ATOM     10  C   UNL     1       6.712   4.505  14.622  0.00  0.00    +0.000 C 
ATOM     11  O   UNL     1       7.561   5.315  14.279  0.00  0.00    +0.000 OA
BRANCH  10  12
ATOM     12  O   UNL     1       6.419   3.493  13.771  0.00  0.00    +0.000 OA
ATOM     13  H   UNL     1       6.213   3.607  12.835  0.00  0.00    +0.000 HD
ENDBRANCH  10  12
ENDBRANCH   8  10
BRANCH   1  14
ATOM     14  C   UNL     1       2.885   4.834  20.227  0.00  0.00    +0.000 C 
BRANCH  14  15
ATOM     15  C   UNL     1       1.352   4.729  20.210  0.00  0.00    +0.000 C 
BRANCH  15  17
ATOM     16  C   UNL     1       1.043   2.486  19.031  0.00  0.00    +0.000 C 
ATOM     17  C   UNL     1       0.826   3.281  20.327  0.00  0.00    +0.000 C 
ATOM     18  C   UNL     1       1.530   2.571  21.489  0.00  0.00    +0.000 C 
ENDBRANCH  15  17
ENDBRANCH  14  15
ENDBRANCH   1  14
BRANCH   8  19
ATOM     19  C   UNL     1       7.136   4.849  17.090  0.00  0.00    +0.000 C 
BRANCH  19  20
ATOM     20  C   UNL     1       7.466   6.312  17.434  0.00  0.00    +0.000 C 
BRANCH  20  21
ATOM     21  C   UNL     1       7.861   6.462  18.910  0.00  0.00    +0.000 C 
BRANCH  21  22
ATOM     22  N   UNL     1       7.199   5.439  19.713  0.00  0.00    +0.000 NA
ATOM     23  H   UNL     1       6.889   5.860  20.620  0.00  0.00    +0.000 HD
ATOM     24  H   UNL     1       7.891   4.686  19.932  0.00  0.00    +0.000 HD
ENDBRANCH  21  22
ENDBRANCH  20  21
ENDBRANCH  19  20
ENDBRANCH   8  19
TORSDOF 9
ENDMDL
MODEL 2
REMARK VINA RESULT:      -7.1      0.774      1.028
REMARK  Name = 
REMARK  11 active torsions:
REMARK  status: ('A' for Active; 'I' for Inactive)
REMARK    1  A    between atoms: C_1  and  C_2
REMARK    2  A    between atoms: C_2  and  C_3
REMARK    3  A    between atoms: C_2  and  C_4
REMARK    4  A    between atoms: C_4  and  C_5
REMARK    5  A    between atoms: C_5  and  N_6
REMARK    6  A    between atoms: C_13  and  C_14
REMARK    7  A    between atoms: C_13  and  C_18
REMARK    8  A    between atoms: C_14  and  C_15
REMARK    9  A    between atoms: C_15  and  C_16
REMARK   10  A    between atoms: C_16  and  N_17
REMARK   11  A    between atoms: C_18  and  O_20
REMARK                            x       y       z     vdW  Elec       q    Type
REMARK                         _______ _______ _______ _____ _____    ______ ____
ROOT
ATOM      1  N   UNL     1       3.294   5.625  19.029  0.00  0.00    +0.000 N 
ATOM      2  C   UNL     1       3.123   6.945  18.789  0.00  0.00    +0.000 A 
ATOM      3  N   UNL     1       3.684   7.334  17.623  0.00  0.00    +0.000 NA
ATOM      4  C   UNL     1       4.217   6.204  17.120  0.00  0.00    +0.000 A 
ATOM      5  C   UNL     1       3.976   5.154  17.967  0.00  0.00    +0.000 A 
ATOM      6  C   UNL     1       4.488   3.757  17.744  0.00  0.00    +0.000 C 
ATOM      7  C   UNL     1       5.197   3.638  16.374  0.00  0.00    +0.000 C 
ATOM      8  C   UNL     1       6.058   4.896  16.015  0.00  0.00    +0.000 C 
ATOM      9  C   UNL     1       5.066   6.099  15.892  0.00  0.00    +0.000 C 
ENDROOT
BRANCH   8  10
ATOM     10  C   UNL     1       6.767   4.744  14.665  0.00  0.00    +0.000 C 
ATOM     11  O   UNL     1       6.365   3.900  13.878  0.00  0.00    +0.000 OA
BRANCH  10  12
ATOM     12  O   UNL     1       7.825   5.505  14.296  0.00  0.00    +0.000 OA
ATOM     13  H   UNL     1       8.747   5.293  14.491  0.00  0.00    +0.000 HD
ENDBRANCH  10  12
ENDBRANCH   8  10
BRANCH   1  14
ATOM     14  C   UNL     1       2.856   4.895  20.220  0.00  0.00    +0.000 C 
BRANCH  14  15
ATOM     15  C   UNL     1       1.327   4.746  20.246  0.00  0.00    +0.000 C 
BRANCH  15  17
ATOM     16  C   UNL     1       1.103   2.521  19.014  0.00  0.00    +0.000 C 
ATOM     17  C   UNL     1       0.847   3.279  20.325  0.00  0.00    +0.000 C 
ATOM     18  C   UNL     1       1.559   2.567  21.480  0.00  0.00    +0.000 C 
ENDBRANCH  15  17
ENDBRANCH  14  15
ENDBRANCH   1  14
BRANCH   8  19
ATOM     19  C   UNL     1       7.126   5.204  17.124  0.00  0.00    +0.000 C 
BRANCH  19  20
ATOM     20  C   UNL     1       7.400   6.702  17.343  0.00  0.00    +0.000 C 
BRANCH  20  21
ATOM     21  C   UNL     1       8.113   6.950  18.679  0.00  0.00    +0.000 C 
BRANCH  21  22
ATOM     22  N   UNL     1       8.615   8.319  18.735  0.00  0.00    +0.000 NA
ATOM     23  H   UNL     1       8.208   8.867  17.942  0.00  0.00    +0.000 HD
ATOM     24  H   UNL     1       9.653   8.300  18.609  0.00  0.00    +0.000 HD
ENDBRANCH  21  22
ENDBRANCH  20  21
ENDBRANCH  19  20
ENDBRANCH   8  19
TORSDOF 9
ENDMDL
MODEL 3
REMARK VINA RESULT:      -6.8      3.297      6.231
REMARK  Name = 
REMARK  11 active torsions:
REMARK  status: ('A' for Active; 'I' for Inactive)
REMARK    1  A    between atoms: C_1  and  C_2
REMARK    2  A    between atoms: C_2  and  C_3
REMARK    3  A    between atoms: C_2  and  C_4
REMARK    4  A    between atoms: C_4  and  C_5
REMARK    5  A    between atoms: C_5  and  N_6
REMARK    6  A    between atoms: C_13  and  C_14
REMARK    7  A    between atoms: C_13  and  C_18
REMARK    8  A    between atoms: C_14  and  C_15
REMARK    9  A    between atoms: C_15  and  C_16
REMARK   10  A    between atoms: C_16  and  N_17
REMARK   11  A    between atoms: C_18  and  O_20
REMARK                            x       y       z     vdW  Elec       q    Type
REMARK                         _______ _______ _______ _____ _____    ______ ____
ROOT
ATOM      1  N   UNL     1       6.092   4.361  16.543  0.00  0.00    +0.000 N 
ATOM      2  C   UNL     1       6.924   5.326  16.994  0.00  0.00    +0.000 A 
ATOM      3  N   UNL     1       6.463   5.924  18.114  0.00  0.00    +0.000 NA
ATOM      4  C   UNL     1       5.300   5.294  18.368  0.00  0.00    +0.000 A 
ATOM      5  C   UNL     1       5.070   4.332  17.420  0.00  0.00    +0.000 A 
ATOM      6  C   UNL     1       3.828   3.484  17.365  0.00  0.00    +0.000 C 
ATOM      7  C   UNL     1       2.922   3.746  18.592  0.00  0.00    +0.000 C 
ATOM      8  C   UNL     1       2.869   5.255  19.005  0.00  0.00    +0.000 C 
ATOM      9  C   UNL     1       4.317   5.655  19.439  0.00  0.00    +0.000 C 
ENDROOT
BRANCH   8  10
ATOM     10  C   UNL     1       1.947   5.493  20.208  0.00  0.00    +0.000 C 
ATOM     11  O   UNL     1       1.146   4.624  20.518  0.00  0.00    +0.000 OA
BRANCH  10  12
ATOM     12  O   UNL     1       1.977   6.624  20.951  0.00  0.00    +0.000 OA
ATOM     13  H   UNL     1       2.734   6.916  21.474  0.00  0.00    +0.000 HD
ENDBRANCH  10  12
ENDBRANCH   8  10
BRANCH   1  14
ATOM     14  C   UNL     1       6.267   3.557  15.332  0.00  0.00    +0.000 C 
BRANCH  14  15
ATOM     15  C   UNL     1       5.653   4.256  14.110  0.00  0.00    +0.000 C 
BRANCH  15  17
ATOM     16  C   UNL     1       4.705   3.484  11.869  0.00  0.00    +0.000 C 
ATOM     17  C   UNL     1       5.946   3.541  12.772  0.00  0.00    +0.000 C 
ATOM     18  C   UNL     1       7.082   4.265  12.040  0.00  0.00    +0.000 C 
ENDBRANCH  15  17
ENDBRANCH  14  15
ENDBRANCH   1  14
BRANCH   8  19
ATOM     19  C   UNL     1       2.403   6.168  17.816  0.00  0.00    +0.000 C 
BRANCH  19  20
ATOM     20  C   UNL     1       2.851   7.636  17.928  0.00  0.00    +0.000 C 
BRANCH  20  21
ATOM     21  C   UNL     1       1.650   8.590  17.888  0.00  0.00    +0.000 C 
BRANCH  21  22
ATOM     22  N   UNL     1       2.084   9.928  17.499  0.00  0.00    +0.000 NA
ATOM     23  H   UNL     1       2.223  10.509  18.358  0.00  0.00    +0.000 HD
ATOM     24  H   UNL     1       1.327  10.373  16.932  0.00  0.00    +0.000 HD
ENDBRANCH  21  22
ENDBRANCH  20  21
ENDBRANCH  19  20
ENDBRANCH   8  19
TORSDOF 9
ENDMDL
MODEL 4
REMARK VINA RESULT:      -6.8      1.463      1.745
REMARK  Name = 
REMARK  11 active torsions:
REMARK  status: ('A' for Active; 'I' for Inactive)
REMARK    1  A    between atoms: C_1  and  C_2
REMARK    2  A    between atoms: C_2  and  C_3
REMARK    3  A    between atoms: C_2  and  C_4
REMARK    4  A    between atoms: C_4  and  C_5
REMARK    5  A    between atoms: C_5  and  N_6
REMARK    6  A    between atoms: C_13  and  C_14
REMARK    7  A    between atoms: C_13  and  C_18
REMARK    8  A    between atoms: C_14  and  C_15
REMARK    9  A    between atoms: C_15  and  C_16
REMARK   10  A    between atoms: C_16  and  N_17
REMARK   11  A    between atoms: C_18  and  O_20
REMARK                            x       y       z     vdW  Elec       q    Type
REMARK                         _______ _______ _______ _____ _____    ______ ____
ROOT
ATOM      1  N   UNL     1       2.743   6.313  19.363  0.00  0.00    +0.000 N 
ATOM      2  C   UNL     1       2.386   7.483  18.787  0.00  0.00    +0.000 A 
ATOM      3  N   UNL     1       3.032   7.703  17.620  0.00  0.00    +0.000 NA
ATOM      4  C   UNL     1       3.815   6.618  17.468  0.00  0.00    +0.000 A 
ATOM      5  C   UNL     1       3.639   5.760  18.522  0.00  0.00    +0.000 A 
ATOM      6  C   UNL     1       4.408   4.480  18.704  0.00  0.00    +0.000 C 
ATOM      7  C   UNL     1       5.313   4.197  17.481  0.00  0.00    +0.000 C 
ATOM      8  C   UNL     1       5.989   5.488  16.906  0.00  0.00    +0.000 C 
ATOM      9  C   UNL     1       4.835   6.409  16.392  0.00  0.00    +0.000 C 
ENDROOT
BRANCH   8  10
ATOM     10  C   UNL     1       6.898   5.180  15.710  0.00  0.00    +0.000 C 
ATOM     11  O   UNL     1       7.881   4.475  15.882  0.00  0.00    +0.000 OA
BRANCH  10  12
ATOM     12  O   UNL     1       6.665   5.652  14.462  0.00  0.00    +0.000 OA
ATOM     13  H   UNL     1       6.565   5.099  13.677  0.00  0.00    +0.000 HD
ENDBRANCH  10  12
ENDBRANCH   8  10
BRANCH   1  14
ATOM     14  C   UNL     1       2.272   5.798  20.650  0.00  0.00    +0.000 C 
BRANCH  14  15
ATOM     15  C   UNL     1       1.123   4.797  20.458  0.00  0.00    +0.000 C 
BRANCH  15  17
ATOM     16  C   UNL     1       1.458   2.576  21.672  0.00  0.00    +0.000 C 
ATOM     17  C   UNL     1       1.591   3.329  20.339  0.00  0.00    +0.000 C 
ATOM     18  C   UNL     1       0.770   2.614  19.260  0.00  0.00    +0.000 C 
ENDBRANCH  15  17
ENDBRANCH  14  15
ENDBRANCH   1  14
BRANCH   8  19
ATOM     19  C   UNL     1       6.822   6.245  18.000  0.00  0.00    +0.000 C 
BRANCH  19  20
ATOM     20  C   UNL     1       7.482   7.545  17.509  0.00  0.00    +0.000 C 
BRANCH  20  21
ATOM     21  C   UNL     1       8.440   8.117  18.563  0.00  0.00    +0.000 C 
BRANCH  21  22
ATOM     22  N   UNL     1       8.602   9.555  18.367  0.00  0.00    +0.000 NA
ATOM     23  H   UNL     1       9.616   9.799  18.435  0.00  0.00    +0.000 HD
ATOM     24  H   UNL     1       8.101  10.055  19.138  0.00  0.00    +0.000 HD
ENDBRANCH  21  22
ENDBRANCH  20  21
ENDBRANCH  19  20
ENDBRANCH   8  19
TORSDOF 9
ENDMDL
MODEL 5
REMARK VINA RESULT:      -6.8      0.865      1.133
REMARK  Name = 
REMARK  11 active torsions:
REMARK  status: ('A' for Active; 'I' for Inactive)
REMARK    1  A    between atoms: C_1  and  C_2
REMARK    2  A    between atoms: C_2  and  C_3
REMARK    3  A    between atoms: C_2  and  C_4
REMARK    4  A    between atoms: C_4  and  C_5
REMARK    5  A    between atoms: C_5  and  N_6
REMARK    6  A    between atoms: C_13  and  C_14
REMARK    7  A    between atoms: C_13  and  C_18
REMARK    8  A    between atoms: C_14  and  C_15
REMARK    9  A    between atoms: C_15  and  C_16
REMARK   10  A    between atoms: C_16  and  N_17
REMARK   11  A    between atoms: C_18  and  O_20
REMARK                            x       y       z     vdW  Elec       q    Type
REMARK                         _______ _______ _______ _____ _____    ______ ____
ROOT
ATOM      1  N   UNL     1       2.951   6.095  19.250  0.00  0.00    +0.000 N 
ATOM      2  C   UNL     1       2.535   7.272  18.730  0.00  0.00    +0.000 A 
ATOM      3  N   UNL     1       3.058   7.511  17.507  0.00  0.00    +0.000 NA
ATOM      4  C   UNL     1       3.824   6.431  17.261  0.00  0.00    +0.000 A 
ATOM      5  C   UNL     1       3.757   5.557  18.314  0.00  0.00    +0.000 A 
ATOM      6  C   UNL     1       4.544   4.277  18.398  0.00  0.00    +0.000 C 
ATOM      7  C   UNL     1       5.321   4.016  17.085  0.00  0.00    +0.000 C 
ATOM      8  C   UNL     1       5.932   5.317  16.464  0.00  0.00    +0.000 C 
ATOM      9  C   UNL     1       4.729   6.241  16.083  0.00  0.00    +0.000 C 
ENDROOT
BRANCH   8  10
ATOM     10  C   UNL     1       6.715   5.029  15.177  0.00  0.00    +0.000 C 
ATOM     11  O   UNL     1       6.314   4.154  14.425  0.00  0.00    +0.000 OA
BRANCH  10  12
ATOM     12  O   UNL     1       7.837   5.702  14.829  0.00  0.00    +0.000 OA
ATOM     13  H   UNL     1       8.662   5.689  15.331  0.00  0.00    +0.000 HD
ENDBRANCH  10  12
ENDBRANCH   8  10
BRANCH   1  14
ATOM     14  C   UNL     1       2.614   5.560  20.570  0.00  0.00    +0.000 C 
BRANCH  14  15
ATOM     15  C   UNL     1       1.204   4.951  20.577  0.00  0.00    +0.000 C 
BRANCH  15  17
ATOM     16  C   UNL     1       1.211   2.724  19.328  0.00  0.00    +0.000 C 
ATOM     17  C   UNL     1       1.192   3.411  20.702  0.00  0.00    +0.000 C 
ATOM     18  C   UNL     1       2.403   2.953  21.523  0.00  0.00    +0.000 C 
ENDBRANCH  15  17
ENDBRANCH  14  15
ENDBRANCH   1  14
BRANCH   8  19
ATOM     19  C   UNL     1       6.870   6.061  17.479  0.00  0.00    +0.000 C 
BRANCH  19  20
ATOM     20  C   UNL     1       7.600   5.133  18.466  0.00  0.00    +0.000 C 
BRANCH  20  21
ATOM     21  C   UNL     1       8.307   5.936  19.567  0.00  0.00    +0.000 C 
BRANCH  21  22
ATOM     22  N   UNL     1       8.213   5.231  20.841  0.00  0.00    +0.000 NA
ATOM     23  H   UNL     1       9.154   5.221  21.299  0.00  0.00    +0.000 HD
ATOM     24  H   UNL     1       7.938   4.240  20.656  0.00  0.00    +0.000 HD
ENDBRANCH  21  22
ENDBRANCH  20  21
ENDBRANCH  19  20
ENDBRANCH   8  19
TORSDOF 9
ENDMDL
MODEL 6
REMARK VINA RESULT:      -6.7      0.955      1.272
REMARK  Name = 
REMARK  11 active torsions:
REMARK  status: ('A' for Active; 'I' for Inactive)
REMARK    1  A    between atoms: C_1  and  C_2
REMARK    2  A    between atoms: C_2  and  C_3
REMARK    3  A    between atoms: C_2  and  C_4
REMARK    4  A    between atoms: C_4  and  C_5
REMARK    5  A    between atoms: C_5  and  N_6
REMARK    6  A    between atoms: C_13  and  C_14
REMARK    7  A    between atoms: C_13  and  C_18
REMARK    8  A    between atoms: C_14  and  C_15
REMARK    9  A    between atoms: C_15  and  C_16
REMARK   10  A    between atoms: C_16  and  N_17
REMARK   11  A    between atoms: C_18  and  O_20
REMARK                            x       y       z     vdW  Elec       q    Type
REMARK                         _______ _______ _______ _____ _____    ______ ____
ROOT
ATOM      1  N   UNL     1       2.800   6.332  19.157  0.00  0.00    +0.000 N 
ATOM      2  C   UNL     1       2.475   7.520  18.599  0.00  0.00    +0.000 A 
ATOM      3  N   UNL     1       3.095   7.722  17.415  0.00  0.00    +0.000 NA
ATOM      4  C   UNL     1       3.827   6.607  17.233  0.00  0.00    +0.000 A 
ATOM      5  C   UNL     1       3.646   5.749  18.285  0.00  0.00    +0.000 A 
ATOM      6  C   UNL     1       4.366   4.436  18.435  0.00  0.00    +0.000 C 
ATOM      7  C   UNL     1       5.222   4.127  17.184  0.00  0.00    +0.000 C 
ATOM      8  C   UNL     1       5.934   5.393  16.597  0.00  0.00    +0.000 C 
ATOM      9  C   UNL     1       4.805   6.365  16.125  0.00  0.00    +0.000 C 
ENDROOT
BRANCH   8  10
ATOM     10  C   UNL     1       6.794   5.057  15.373  0.00  0.00    +0.000 C 
ATOM     11  O   UNL     1       7.747   5.774  15.107  0.00  0.00    +0.000 OA
BRANCH  10  12
ATOM     12  O   UNL     1       6.549   3.998  14.565  0.00  0.00    +0.000 OA
ATOM     13  H   UNL     1       7.232   3.466  14.137  0.00  0.00    +0.000 HD
ENDBRANCH  10  12
ENDBRANCH   8  10
BRANCH   1  14
ATOM     14  C   UNL     1       2.346   5.826  20.453  0.00  0.00    +0.000 C 
BRANCH  14  15
ATOM     15  C   UNL     1       1.181   4.839  20.285  0.00  0.00    +0.000 C 
BRANCH  15  17
ATOM     16  C   UNL     1       1.412   2.672  21.613  0.00  0.00    +0.000 C 
ATOM     17  C   UNL     1       1.620   3.358  20.255  0.00  0.00    +0.000 C 
ATOM     18  C   UNL     1       0.832   2.610  19.174  0.00  0.00    +0.000 C 
ENDBRANCH  15  17
ENDBRANCH  14  15
ENDBRANCH   1  14
BRANCH   8  19
ATOM     19  C   UNL     1       6.830   6.106  17.672  0.00  0.00    +0.000 C 
BRANCH  19  20
ATOM     20  C   UNL     1       7.595   5.145  18.599  0.00  0.00    +0.000 C 
BRANCH  20  21
ATOM     21  C   UNL     1       8.348   5.910  19.696  0.00  0.00    +0.000 C 
BRANCH  21  22
ATOM     22  N   UNL     1       8.295   5.168  20.952  0.00  0.00    +0.000 NA
ATOM     23  H   UNL     1       7.302   4.916  21.162  0.00  0.00    +0.000 HD
ATOM     24  H   UNL     1       8.636   5.789  21.721  0.00  0.00    +0.000 HD
ENDBRANCH  21  22
ENDBRANCH  20  21
ENDBRANCH  19  20
ENDBRANCH   8  19
TORSDOF 9
ENDMDL
MODEL 7
REMARK VINA RESULT:      -6.7      3.372      6.418
REMARK  Name = 
REMARK  11 active torsions:
REMARK  status: ('A' for Active; 'I' for Inactive)
REMARK    1  A    between atoms: C_1  and  C_2
REMARK    2  A    between atoms: C_2  and  C_3
REMARK    3  A    between atoms: C_2  and  C_4
REMARK    4  A    between atoms: C_4  and  C_5
REMARK    5  A    between atoms: C_5  and  N_6
REMARK    6  A    between atoms: C_13  and  C_14
REMARK    7  A    between atoms: C_13  and  C_18
REMARK    8  A    between atoms: C_14  and  C_15
REMARK    9  A    between atoms: C_15  and  C_16
REMARK   10  A    between atoms: C_16  and  N_17
REMARK   11  A    between atoms: C_18  and  O_20
REMARK                            x       y       z     vdW  Elec       q    Type
REMARK                         _______ _______ _______ _____ _____    ______ ____
ROOT
ATOM      1  N   UNL     1       5.343   4.323  16.523  0.00  0.00    +0.000 N 
ATOM      2  C   UNL     1       6.372   4.693  17.319  0.00  0.00    +0.000 A 
ATOM      3  N   UNL     1       6.126   4.454  18.626  0.00  0.00    +0.000 NA
ATOM      4  C   UNL     1       4.895   3.907  18.634  0.00  0.00    +0.000 A 
ATOM      5  C   UNL     1       4.414   3.814  17.354  0.00  0.00    +0.000 A 
ATOM      6  C   UNL     1       3.040   3.309  17.006  0.00  0.00    +0.000 C 
ATOM      7  C   UNL     1       2.306   2.783  18.263  0.00  0.00    +0.000 C 
ATOM      8  C   UNL     1       2.562   3.659  19.535  0.00  0.00    +0.000 C 
ATOM      9  C   UNL     1       4.090   3.563  19.849  0.00  0.00    +0.000 C 
ENDROOT
BRANCH   8  10
ATOM     10  C   UNL     1       1.807   3.132  20.761  0.00  0.00    +0.000 C 
ATOM     11  O   UNL     1       2.424   2.947  21.800  0.00  0.00    +0.000 OA
BRANCH  10  12
ATOM     12  O   UNL     1       0.480   2.859  20.752  0.00  0.00    +0.000 OA
ATOM     13  H   UNL     1      -0.216   3.526  20.714  0.00  0.00    +0.000 HD
ENDBRANCH  10  12
ENDBRANCH   8  10
BRANCH   1  14
ATOM     14  C   UNL     1       5.265   4.488  15.071  0.00  0.00    +0.000 C 
BRANCH  14  15
ATOM     15  C   UNL     1       6.535   3.963  14.384  0.00  0.00    +0.000 C 
BRANCH  15  17
ATOM     16  C   UNL     1       4.847   3.677  12.490  0.00  0.00    +0.000 C 
ATOM     17  C   UNL     1       6.319   3.547  12.912  0.00  0.00    +0.000 C 
ATOM     18  C   UNL     1       7.194   4.413  11.999  0.00  0.00    +0.000 C 
ENDBRANCH  15  17
ENDBRANCH  14  15
ENDBRANCH   1  14
BRANCH   8  19
ATOM     19  C   UNL     1       2.165   5.160  19.297  0.00  0.00    +0.000 C 
BRANCH  19  20
ATOM     20  C   UNL     1       1.891   5.957  20.584  0.00  0.00    +0.000 C 
BRANCH  20  21
ATOM     21  C   UNL     1       1.805   7.462  20.301  0.00  0.00    +0.000 C 
BRANCH  21  22
ATOM     22  N   UNL     1       1.737   8.207  21.555  0.00  0.00    +0.000 NA
ATOM     23  H   UNL     1       1.813   7.539  22.356  0.00  0.00    +0.000 HD
ATOM     24  H   UNL     1       0.804   8.674  21.616  0.00  0.00    +0.000 HD
ENDBRANCH  21  22
ENDBRANCH  20  21
ENDBRANCH  19  20
ENDBRANCH   8  19
TORSDOF 9
ENDMDL
MODEL 8
REMARK VINA RESULT:      -6.6      2.234      3.524
REMARK  Name = 
REMARK  11 active torsions:
REMARK  status: ('A' for Active; 'I' for Inactive)
REMARK    1  A    between atoms: C_1  and  C_2
REMARK    2  A    between atoms: C_2  and  C_3
REMARK    3  A    between atoms: C_2  and  C_4
REMARK    4  A    between atoms: C_4  and  C_5
REMARK    5  A    between atoms: C_5  and  N_6
REMARK    6  A    between atoms: C_13  and  C_14
REMARK    7  A    between atoms: C_13  and  C_18
REMARK    8  A    between atoms: C_14  and  C_15
REMARK    9  A    between atoms: C_15  and  C_16
REMARK   10  A    between atoms: C_16  and  N_17
REMARK   11  A    between atoms: C_18  and  O_20
REMARK                            x       y       z     vdW  Elec       q    Type
REMARK                         _______ _______ _______ _____ _____    ______ ____
ROOT
ATOM      1  N   UNL     1       3.624   3.236  18.540  0.00  0.00    +0.000 N 
ATOM      2  C   UNL     1       4.257   2.591  19.544  0.00  0.00    +0.000 A 
ATOM      3  N   UNL     1       5.357   3.250  19.970  0.00  0.00    +0.000 NA
ATOM      4  C   UNL     1       5.398   4.354  19.200  0.00  0.00    +0.000 A 
ATOM      5  C   UNL     1       4.339   4.359  18.330  0.00  0.00    +0.000 A 
ATOM      6  C   UNL     1       4.115   5.414  17.281  0.00  0.00    +0.000 C 
ATOM      7  C   UNL     1       5.154   6.554  17.410  0.00  0.00    +0.000 C 
ATOM      8  C   UNL     1       6.590   6.039  17.765  0.00  0.00    +0.000 C 
ATOM      9  C   UNL     1       6.493   5.375  19.177  0.00  0.00    +0.000 C 
ENDROOT
BRANCH   8  10
ATOM     10  C   UNL     1       7.606   7.184  17.865  0.00  0.00    +0.000 C 
ATOM     11  O   UNL     1       7.586   8.065  17.018  0.00  0.00    +0.000 OA
BRANCH  10  12
ATOM     12  O   UNL     1       8.529   7.269  18.851  0.00  0.00    +0.000 OA
ATOM     13  H   UNL     1       9.426   7.608  18.734  0.00  0.00    +0.000 HD
ENDBRANCH  10  12
ENDBRANCH   8  10
BRANCH   1  14
ATOM     14  C   UNL     1       2.436   2.773  17.821  0.00  0.00    +0.000 C 
BRANCH  14  15
ATOM     15  C   UNL     1       1.457   2.063  18.769  0.00  0.00    +0.000 C 
BRANCH  15  17
ATOM     16  C   UNL     1       1.238   2.743  21.220  0.00  0.00    +0.000 C 
ATOM     17  C   UNL     1       0.774   3.010  19.780  0.00  0.00    +0.000 C 
ATOM     18  C   UNL     1       1.074   4.466  19.405  0.00  0.00    +0.000 C 
ENDBRANCH  15  17
ENDBRANCH  14  15
ENDBRANCH   1  14
BRANCH   8  19
ATOM     19  C   UNL     1       7.106   4.986  16.721  0.00  0.00    +0.000 C 
BRANCH  19  20
ATOM     20  C   UNL     1       6.827   5.359  15.254  0.00  0.00    +0.000 C 
BRANCH  20  21
ATOM     21  C   UNL     1       6.248   4.169  14.477  0.00  0.00    +0.000 C 
BRANCH  21  22
ATOM     22  N   UNL     1       5.994   3.053  15.382  0.00  0.00    +0.000 NA
ATOM     23  H   UNL     1       6.905   2.694  15.750  0.00  0.00    +0.000 HD
ATOM     24  H   UNL     1       5.542   2.280  14.841  0.00  0.00    +0.000 HD
ENDBRANCH  21  22
ENDBRANCH  20  21
ENDBRANCH  19  20
ENDBRANCH   8  19
TORSDOF 9
ENDMDL
MODEL 9
REMARK VINA RESULT:      -6.6      2.258      3.528
REMARK  Name = 
REMARK  11 active torsions:
REMARK  status: ('A' for Active; 'I' for Inactive)
REMARK    1  A    between atoms: C_1  and  C_2
REMARK    2  A    between atoms: C_2  and  C_3
REMARK    3  A    between atoms: C_2  and  C_4
REMARK    4  A    between atoms: C_4  and  C_5
REMARK    5  A    between atoms: C_5  and  N_6
REMARK    6  A    between atoms: C_13  and  C_14
REMARK    7  A    between atoms: C_13  and  C_18
REMARK    8  A    between atoms: C_14  and  C_15
REMARK    9  A    between atoms: C_15  and  C_16
REMARK   10  A    between atoms: C_16  and  N_17
REMARK   11  A    between atoms: C_18  and  O_20
REMARK                            x       y       z     vdW  Elec       q    Type
REMARK                         _______ _______ _______ _____ _____    ______ ____
ROOT
ATOM      1  N   UNL     1       3.020   3.483  18.433  0.00  0.00    +0.000 N 
ATOM      2  C   UNL     1       3.808   2.439  18.776  0.00  0.00    +0.000 A 
ATOM      3  N   UNL     1       5.103   2.794  18.920  0.00  0.00    +0.000 NA
ATOM      4  C   UNL     1       5.113   4.115  18.662  0.00  0.00    +0.000 A 
ATOM      5  C   UNL     1       3.844   4.547  18.373  0.00  0.00    +0.000 A 
ATOM      6  C   UNL     1       3.505   5.957  17.972  0.00  0.00    +0.000 C 
ATOM      7  C   UNL     1       4.747   6.875  18.067  0.00  0.00    +0.000 C 
ATOM      8  C   UNL     1       6.065   6.179  17.586  0.00  0.00    +0.000 C 
ATOM      9  C   UNL     1       6.326   4.987  18.564  0.00  0.00    +0.000 C 
ENDROOT
BRANCH   8  10
ATOM     10  C   UNL     1       7.276   7.115  17.668  0.00  0.00    +0.000 C 
ATOM     11  O   UNL     1       8.155   6.874  18.483  0.00  0.00    +0.000 OA
BRANCH  10  12
ATOM     12  O   UNL     1       7.424   8.204  16.877  0.00  0.00    +0.000 OA
ATOM     13  H   UNL     1       6.853   8.419  16.129  0.00  0.00    +0.000 HD
ENDBRANCH  10  12
ENDBRANCH   8  10
BRANCH   1  14
ATOM     14  C   UNL     1       1.584   3.434  18.153  0.00  0.00    +0.000 C 
BRANCH  14  15
ATOM     15  C   UNL     1       0.848   2.566  19.185  0.00  0.00    +0.000 C 
BRANCH  15  17
ATOM     16  C   UNL     1       1.636   2.622  21.613  0.00  0.00    +0.000 C 
ATOM     17  C   UNL     1       0.695   3.239  20.567  0.00  0.00    +0.000 C 
ATOM     18  C   UNL     1       0.979   4.740  20.442  0.00  0.00    +0.000 C 
ENDBRANCH  15  17
ENDBRANCH  14  15
ENDBRANCH   1  14
BRANCH   8  19
ATOM     19  C   UNL     1       5.934   5.638  16.118  0.00  0.00    +0.000 C 
BRANCH  19  20
ATOM     20  C   UNL     1       7.144   4.821  15.632  0.00  0.00    +0.000 C 
BRANCH  20  21
ATOM     21  C   UNL     1       7.160   4.705  14.102  0.00  0.00    +0.000 C 
BRANCH  21  22
ATOM     22  N   UNL     1       8.138   5.630  13.538  0.00  0.00    +0.000 NA
ATOM     23  H   UNL     1       7.852   6.612  13.760  0.00  0.00    +0.000 HD
ATOM     24  H   UNL     1       8.136   5.526  12.497  0.00  0.00    +0.000 HD
ENDBRANCH  21  22
ENDBRANCH  20  21
ENDBRANCH  19  20
ENDBRANCH   8  19
TORSDOF 9
ENDMDL
