MODEL 1
REMARK VINA RESULT:      -9.2      0.000      0.000
REMARK  Name = 
REMARK  10 active torsions:
REMARK  status: ('A' for Active; 'I' for Inactive)
REMARK    1  A    between atoms: C_2  and  O_3
REMARK    2  A    between atoms: C_2  and  C_4
REMARK    3  A    between atoms: C_4  and  C_5
REMARK    4  A    between atoms: C_5  and  C_6
REMARK    5  A    between atoms: C_6  and  N_7
REMARK    6  A    between atoms: C_8  and  C_10
REMARK    7  A    between atoms: C_15  and  N_16
REMARK    8  A    between atoms: C_17  and  C_19
REMARK    9  A    between atoms: C_19  and  C_20
REMARK   10  A    between atoms: C_19  and  C_26
REMARK                            x       y       z     vdW  Elec       q    Type
REMARK                         _______ _______ _______ _____ _____    ______ ____
ROOT
ATOM      1  C   UNL     1       6.688   5.471  16.450  0.00  0.00    +0.000 A 
ATOM      2  C   UNL     1       7.462   5.146  15.319  0.00  0.00    +0.000 A 
ATOM      3  C   UNL     1       6.904   4.459  14.239  0.00  0.00    +0.000 A 
ATOM      4  C   UNL     1       5.574   4.066  14.286  0.00  0.00    +0.000 A 
ATOM      5  C   UNL     1       4.810   4.320  15.426  0.00  0.00    +0.000 A 
ATOM      6  C   UNL     1       5.355   5.004  16.525  0.00  0.00    +0.000 A 
ENDROOT
BRANCH   1   8
ATOM      7  N   UNL     1       7.691   7.538  17.348  0.00  0.00    +0.000 N 
ATOM      8  C   UNL     1       7.299   6.235  17.589  0.00  0.00    +0.000 C 
ATOM      9  O   UNL     1       7.421   5.711  18.693  0.00  0.00    +0.000 OA
ATOM     10  H   UNL     1       7.473   7.995  16.474  0.00  0.00    +0.000 HD
BRANCH   7  11
ATOM     11  C   UNL     1       8.326   8.359  18.356  0.00  0.00    +0.000 C 
BRANCH  11  12
ATOM     12  C   UNL     1       8.388   9.839  17.968  0.00  0.00    +0.000 C 
BRANCH  12  13
ATOM     13  C   UNL     1       9.457  10.636  18.708  0.00  0.00    +0.000 C 
BRANCH  13  15
ATOM     14  O   UNL     1      11.091  12.011  17.594  0.00  0.00    +0.000 OA
ATOM     15  C   UNL     1       9.926  11.819  17.906  0.00  0.00    +0.000 C 
BRANCH  15  16
ATOM     16  O   UNL     1       8.921  12.630  17.503  0.00  0.00    +0.000 OA
ATOM     17  H   UNL     1       8.895  13.491  17.961  0.00  0.00    +0.000 HD
ENDBRANCH  15  16
ENDBRANCH  13  15
ENDBRANCH  12  13
ENDBRANCH  11  12
ENDBRANCH   7  11
ENDBRANCH   1   8
BRANCH   6  18
ATOM     18  N   UNL     1       4.551   5.235  17.676  0.00  0.00    +0.000 N 
ATOM     19  C   UNL     1       3.837   6.418  17.885  0.00  0.00    +0.000 C 
ATOM     20  O   UNL     1       3.802   7.335  17.061  0.00  0.00    +0.000 OA
ATOM     21  H   UNL     1       4.133   4.394  18.082  0.00  0.00    +0.000 HD
BRANCH  19  22
ATOM     22  C   UNL     1       3.032   6.451  19.216  0.00  0.00    +0.000 C 
BRANCH  22  23
ATOM     23  C   UNL     1       2.124   7.691  19.263  0.00  0.00    +0.000 A 
ATOM     24  C   UNL     1       1.594   8.168  20.476  0.00  0.00    +0.000 A 
ATOM     25  C   UNL     1       0.826   9.334  20.517  0.00  0.00    +0.000 A 
ATOM     26  C   UNL     1       0.577  10.045  19.347  0.00  0.00    +0.000 A 
ATOM     27  C   UNL     1       1.087   9.585  18.136  0.00  0.00    +0.000 A 
ATOM     28  C   UNL     1       1.854   8.416  18.091  0.00  0.00    +0.000 A 
ENDBRANCH  22  23
BRANCH  22  29
ATOM     29  C   UNL     1       2.304   5.125  19.517  0.00  0.00    +0.000 A 
ATOM     30  C   UNL     1       1.700   4.384  18.487  0.00  0.00    +0.000 A 
ATOM     31  C   UNL     1       1.041   3.178  18.746  0.00  0.00    +0.000 A 
ATOM     32  C   UNL     1       0.986   2.673  20.040  0.00  0.00    +0.000 A 
ATOM     33  C   UNL     1       1.618   3.359  21.070  0.00  0.00    +0.000 A 
ATOM     34  C   UNL     1       2.283   4.562  20.809  0.00  0.00    +0.000 A 
ENDBRANCH  22  29
ENDBRANCH  19  22
ENDBRANCH   6  18
TORSDOF 10
ENDMDL
MODEL 2
REMARK VINA RESULT:      -9.2      0.546      1.021
REMARK  Name = 
REMARK  10 active torsions:
REMARK  status: ('A' for Active; 'I' for Inactive)
REMARK    1  A    between atoms: C_2  and  O_3
REMARK    2  A    between atoms: C_2  and  C_4
REMARK    3  A    between atoms: C_4  and  C_5
REMARK    4  A    between atoms: C_5  and  C_6
REMARK    5  A    between atoms: C_6  and  N_7
REMARK    6  A    between atoms: C_8  and  C_10
REMARK    7  A    between atoms: C_15  and  N_16
REMARK    8  A    between atoms: C_17  and  C_19
REMARK    9  A    between atoms: C_19  and  C_20
REMARK   10  A    between atoms: C_19  and  C_26
REMARK                            x       y       z     vdW  Elec       q    Type
REMARK                         _______ _______ _______ _____ _____    ______ ____
ROOT
ATOM      1  C   UNL     1       6.745   5.559  16.484  0.00  0.00    +0.000 A 
ATOM      2  C   UNL     1       7.534   5.231  15.363  0.00  0.00    +0.000 A 
ATOM      3  C   UNL     1       7.009   4.479  14.310  0.00  0.00    +0.000 A 
ATOM      4  C   UNL     1       5.699   4.024  14.374  0.00  0.00    +0.000 A 
ATOM      5  C   UNL     1       4.925   4.282  15.506  0.00  0.00    +0.000 A 
ATOM      6  C   UNL     1       5.437   5.031  16.579  0.00  0.00    +0.000 A 
ENDROOT
BRANCH   1   8
ATOM      7  N   UNL     1       7.735   7.672  17.282  0.00  0.00    +0.000 N 
ATOM      8  C   UNL     1       7.319   6.392  17.593  0.00  0.00    +0.000 C 
ATOM      9  O   UNL     1       7.393   5.941  18.734  0.00  0.00    +0.000 OA
ATOM     10  H   UNL     1       7.556   8.072  16.372  0.00  0.00    +0.000 HD
BRANCH   7  11
ATOM     11  C   UNL     1       8.338   8.553  18.258  0.00  0.00    +0.000 C 
BRANCH  11  12
ATOM     12  C   UNL     1       8.115  10.035  17.943  0.00  0.00    +0.000 C 
BRANCH  12  13
ATOM     13  C   UNL     1       9.337  10.917  18.177  0.00  0.00    +0.000 C 
BRANCH  13  15
ATOM     14  O   UNL     1       9.319  13.163  19.046  0.00  0.00    +0.000 OA
ATOM     15  C   UNL     1       8.980  12.378  18.174  0.00  0.00    +0.000 C 
BRANCH  15  16
ATOM     16  O   UNL     1       8.292  12.763  17.075  0.00  0.00    +0.000 OA
ATOM     17  H   UNL     1       8.780  12.645  16.238  0.00  0.00    +0.000 HD
ENDBRANCH  15  16
ENDBRANCH  13  15
ENDBRANCH  12  13
ENDBRANCH  11  12
ENDBRANCH   7  11
ENDBRANCH   1   8
BRANCH   6  18
ATOM     18  N   UNL     1       4.623   5.264  17.723  0.00  0.00    +0.000 N 
ATOM     19  C   UNL     1       3.869   6.427  17.899  0.00  0.00    +0.000 C 
ATOM     20  O   UNL     1       3.804   7.320  17.052  0.00  0.00    +0.000 OA
ATOM     21  H   UNL     1       4.234   4.420  18.150  0.00  0.00    +0.000 HD
BRANCH  19  22
ATOM     22  C   UNL     1       3.061   6.466  19.229  0.00  0.00    +0.000 C 
BRANCH  22  23
ATOM     23  C   UNL     1       2.137   7.696  19.258  0.00  0.00    +0.000 A 
ATOM     24  C   UNL     1       1.615   8.194  20.466  0.00  0.00    +0.000 A 
ATOM     25  C   UNL     1       0.833   9.351  20.490  0.00  0.00    +0.000 A 
ATOM     26  C   UNL     1       0.561  10.031  19.306  0.00  0.00    +0.000 A 
ATOM     27  C   UNL     1       1.062   9.549  18.100  0.00  0.00    +0.000 A 
ATOM     28  C   UNL     1       1.844   8.390  18.073  0.00  0.00    +0.000 A 
ENDBRANCH  22  23
BRANCH  22  29
ATOM     29  C   UNL     1       2.349   5.135  19.546  0.00  0.00    +0.000 A 
ATOM     30  C   UNL     1       2.274   4.654  20.864  0.00  0.00    +0.000 A 
ATOM     31  C   UNL     1       1.627   3.451  21.165  0.00  0.00    +0.000 A 
ATOM     32  C   UNL     1       1.025   2.708  20.157  0.00  0.00    +0.000 A 
ATOM     33  C   UNL     1       1.041   3.185  18.851  0.00  0.00    +0.000 A 
ATOM     34  C   UNL     1       1.681   4.391  18.552  0.00  0.00    +0.000 A 
ENDBRANCH  22  29
ENDBRANCH  19  22
ENDBRANCH   6  18
TORSDOF 10
ENDMDL
MODEL 3
REMARK VINA RESULT:      -8.9      0.333      1.266
REMARK  Name = 
REMARK  10 active torsions:
REMARK  status: ('A' for Active; 'I' for Inactive)
REMARK    1  A    between atoms: C_2  and  O_3
REMARK    2  A    between atoms: C_2  and  C_4
REMARK    3  A    between atoms: C_4  and  C_5
REMARK    4  A    between atoms: C_5  and  C_6
REMARK    5  A    between atoms: C_6  and  N_7
REMARK    6  A    between atoms: C_8  and  C_10
REMARK    7  A    between atoms: C_15  and  N_16
REMARK    8  A    between atoms: C_17  and  C_19
REMARK    9  A    between atoms: C_19  and  C_20
REMARK   10  A    between atoms: C_19  and  C_26
REMARK                            x       y       z     vdW  Elec       q    Type
REMARK                         _______ _______ _______ _____ _____    ______ ____
ROOT
ATOM      1  C   UNL     1       6.790   5.668  16.480  0.00  0.00    +0.000 A 
ATOM      2  C   UNL     1       7.576   5.353  15.354  0.00  0.00    +0.000 A 
ATOM      3  C   UNL     1       7.068   4.563  14.321  0.00  0.00    +0.000 A 
ATOM      4  C   UNL     1       5.780   4.056  14.411  0.00  0.00    +0.000 A 
ATOM      5  C   UNL     1       5.010   4.302  15.550  0.00  0.00    +0.000 A 
ATOM      6  C   UNL     1       5.506   5.090  16.602  0.00  0.00    +0.000 A 
ENDROOT
BRANCH   1   8
ATOM      7  N   UNL     1       7.540   7.879  17.275  0.00  0.00    +0.000 N 
ATOM      8  C   UNL     1       7.345   6.543  17.567  0.00  0.00    +0.000 C 
ATOM      9  O   UNL     1       7.593   6.075  18.675  0.00  0.00    +0.000 OA
ATOM     10  H   UNL     1       7.218   8.276  16.404  0.00  0.00    +0.000 HD
BRANCH   7  11
ATOM     11  C   UNL     1       8.103   8.810  18.229  0.00  0.00    +0.000 C 
BRANCH  11  12
ATOM     12  C   UNL     1       8.943   9.907  17.567  0.00  0.00    +0.000 C 
BRANCH  12  13
ATOM     13  C   UNL     1       8.939  11.236  18.317  0.00  0.00    +0.000 C 
BRANCH  13  15
ATOM     14  O   UNL     1      11.155  11.938  17.686  0.00  0.00    +0.000 OA
ATOM     15  C   UNL     1       9.962  12.190  17.765  0.00  0.00    +0.000 C 
BRANCH  15  16
ATOM     16  O   UNL     1       9.429  13.343  17.301  0.00  0.00    +0.000 OA
ATOM     17  H   UNL     1      10.077  13.943  16.884  0.00  0.00    +0.000 HD
ENDBRANCH  15  16
ENDBRANCH  13  15
ENDBRANCH  12  13
ENDBRANCH  11  12
ENDBRANCH   7  11
ENDBRANCH   1   8
BRANCH   6  18
ATOM     18  N   UNL     1       4.698   5.310  17.753  0.00  0.00    +0.000 N 
ATOM     19  C   UNL     1       3.875   6.428  17.906  0.00  0.00    +0.000 C 
ATOM     20  O   UNL     1       3.739   7.286  17.032  0.00  0.00    +0.000 OA
ATOM     21  H   UNL     1       4.370   4.458  18.215  0.00  0.00    +0.000 HD
BRANCH  19  22
ATOM     22  C   UNL     1       3.089   6.462  19.249  0.00  0.00    +0.000 C 
BRANCH  22  23
ATOM     23  C   UNL     1       2.191   7.709  19.313  0.00  0.00    +0.000 A 
ATOM     24  C   UNL     1       1.865   8.439  18.156  0.00  0.00    +0.000 A 
ATOM     25  C   UNL     1       0.994   9.530  18.214  0.00  0.00    +0.000 A 
ATOM     26  C   UNL     1       0.431   9.907  19.431  0.00  0.00    +0.000 A 
ATOM     27  C   UNL     1       0.748   9.201  20.588  0.00  0.00    +0.000 A 
ATOM     28  C   UNL     1       1.622   8.110  20.532  0.00  0.00    +0.000 A 
ENDBRANCH  22  23
BRANCH  22  29
ATOM     29  C   UNL     1       2.355   5.140  19.555  0.00  0.00    +0.000 A 
ATOM     30  C   UNL     1       2.289   4.639  20.867  0.00  0.00    +0.000 A 
ATOM     31  C   UNL     1       1.622   3.445  21.158  0.00  0.00    +0.000 A 
ATOM     32  C   UNL     1       0.991   2.730  20.147  0.00  0.00    +0.000 A 
ATOM     33  C   UNL     1       0.998   3.227  18.849  0.00  0.00    +0.000 A 
ATOM     34  C   UNL     1       1.658   4.426  18.560  0.00  0.00    +0.000 A 
ENDBRANCH  22  29
ENDBRANCH  19  22
ENDBRANCH   6  18
TORSDOF 10
ENDMDL
MODEL 4
REMARK VINA RESULT:      -8.7      2.972      7.178
REMARK  Name = 
REMARK  10 active torsions:
REMARK  status: ('A' for Active; 'I' for Inactive)
REMARK    1  A    between atoms: C_2  and  O_3
REMARK    2  A    between atoms: C_2  and  C_4
REMARK    3  A    between atoms: C_4  and  C_5
REMARK    4  A    between atoms: C_5  and  C_6
REMARK    5  A    between atoms: C_6  and  N_7
REMARK    6  A    between atoms: C_8  and  C_10
REMARK    7  A    between atoms: C_15  and  N_16
REMARK    8  A    between atoms: C_17  and  C_19
REMARK    9  A    between atoms: C_19  and  C_20
REMARK   10  A    between atoms: C_19  and  C_26
REMARK                            x       y       z     vdW  Elec       q    Type
REMARK                         _______ _______ _______ _____ _____    ______ ____
ROOT
ATOM      1  C   UNL     1       2.122   5.212  19.836  0.00  0.00    +0.000 A 
ATOM      2  C   UNL     1       1.204   4.480  20.614  0.00  0.00    +0.000 A 
ATOM      3  C   UNL     1       1.233   3.084  20.634  0.00  0.00    +0.000 A 
ATOM      4  C   UNL     1       2.160   2.402  19.859  0.00  0.00    +0.000 A 
ATOM      5  C   UNL     1       3.033   3.110  19.030  0.00  0.00    +0.000 A 
ATOM      6  C   UNL     1       3.015   4.514  18.991  0.00  0.00    +0.000 A 
ENDROOT
BRANCH   1   8
ATOM      7  N   UNL     1       1.623   7.334  20.990  0.00  0.00    +0.000 N 
ATOM      8  C   UNL     1       2.093   6.713  19.849  0.00  0.00    +0.000 C 
ATOM      9  O   UNL     1       2.494   7.351  18.879  0.00  0.00    +0.000 OA
ATOM     10  H   UNL     1       1.413   6.804  21.824  0.00  0.00    +0.000 HD
BRANCH   7  11
ATOM     11  C   UNL     1       1.513   8.772  21.105  0.00  0.00    +0.000 C 
BRANCH  11  12
ATOM     12  C   UNL     1       0.136   9.301  20.690  0.00  0.00    +0.000 C 
BRANCH  12  13
ATOM     13  C   UNL     1       0.184  10.498  19.746  0.00  0.00    +0.000 C 
BRANCH  13  15
ATOM     14  O   UNL     1      -0.907   9.955  17.669  0.00  0.00    +0.000 OA
ATOM     15  C   UNL     1       0.130  10.074  18.304  0.00  0.00    +0.000 C 
BRANCH  15  16
ATOM     16  O   UNL     1       1.350   9.893  17.748  0.00  0.00    +0.000 OA
ATOM     17  H   UNL     1       1.746   9.020  17.931  0.00  0.00    +0.000 HD
ENDBRANCH  15  16
ENDBRANCH  13  15
ENDBRANCH  12  13
ENDBRANCH  11  12
ENDBRANCH   7  11
ENDBRANCH   1   8
BRANCH   6  18
ATOM     18  N   UNL     1       3.911   5.202  18.125  0.00  0.00    +0.000 N 
ATOM     19  C   UNL     1       4.355   4.674  16.910  0.00  0.00    +0.000 C 
ATOM     20  O   UNL     1       3.964   3.593  16.465  0.00  0.00    +0.000 OA
ATOM     21  H   UNL     1       3.841   6.221  18.160  0.00  0.00    +0.000 HD
BRANCH  19  22
ATOM     22  C   UNL     1       5.335   5.600  16.133  0.00  0.00    +0.000 C 
BRANCH  22  23
ATOM     23  C   UNL     1       6.445   6.110  17.068  0.00  0.00    +0.000 A 
ATOM     24  C   UNL     1       6.866   7.452  17.046  0.00  0.00    +0.000 A 
ATOM     25  C   UNL     1       7.826   7.921  17.945  0.00  0.00    +0.000 A 
ATOM     26  C   UNL     1       8.381   7.056  18.884  0.00  0.00    +0.000 A 
ATOM     27  C   UNL     1       7.984   5.723  18.916  0.00  0.00    +0.000 A 
ATOM     28  C   UNL     1       7.024   5.250  18.016  0.00  0.00    +0.000 A 
ENDBRANCH  22  23
BRANCH  22  29
ATOM     29  C   UNL     1       5.853   4.972  14.823  0.00  0.00    +0.000 A 
ATOM     30  C   UNL     1       5.024   4.148  14.042  0.00  0.00    +0.000 A 
ATOM     31  C   UNL     1       5.481   3.577  12.850  0.00  0.00    +0.000 A 
ATOM     32  C   UNL     1       6.771   3.830  12.400  0.00  0.00    +0.000 A 
ATOM     33  C   UNL     1       7.596   4.681  13.127  0.00  0.00    +0.000 A 
ATOM     34  C   UNL     1       7.136   5.258  14.315  0.00  0.00    +0.000 A 
ENDBRANCH  22  29
ENDBRANCH  19  22
ENDBRANCH   6  18
TORSDOF 10
ENDMDL
MODEL 5
REMARK VINA RESULT:      -8.7      0.569      1.136
REMARK  Name = 
REMARK  10 active torsions:
REMARK  status: ('A' for Active; 'I' for Inactive)
REMARK    1  A    between atoms: C_2  and  O_3
REMARK    2  A    between atoms: C_2  and  C_4
REMARK    3  A    between atoms: C_4  and  C_5
REMARK    4  A    between atoms: C_5  and  C_6
REMARK    5  A    between atoms: C_6  and  N_7
REMARK    6  A    between atoms: C_8  and  C_10
REMARK    7  A    between atoms: C_15  and  N_16
REMARK    8  A    between atoms: C_17  and  C_19
REMARK    9  A    between atoms: C_19  and  C_20
REMARK   10  A    between atoms: C_19  and  C_26
REMARK                            x       y       z     vdW  Elec       q    Type
REMARK                         _______ _______ _______ _____ _____    ______ ____
ROOT
ATOM      1  C   UNL     1       6.787   5.725  16.652  0.00  0.00    +0.000 A 
ATOM      2  C   UNL     1       7.524   5.407  15.495  0.00  0.00    +0.000 A 
ATOM      3  C   UNL     1       6.968   4.622  14.483  0.00  0.00    +0.000 A 
ATOM      4  C   UNL     1       5.681   4.123  14.625  0.00  0.00    +0.000 A 
ATOM      5  C   UNL     1       4.961   4.372  15.795  0.00  0.00    +0.000 A 
ATOM      6  C   UNL     1       5.505   5.154  16.827  0.00  0.00    +0.000 A 
ENDROOT
BRANCH   1   8
ATOM      7  N   UNL     1       7.667   7.908  17.390  0.00  0.00    +0.000 N 
ATOM      8  C   UNL     1       7.392   6.594  17.717  0.00  0.00    +0.000 C 
ATOM      9  O   UNL     1       7.611   6.142  18.838  0.00  0.00    +0.000 OA
ATOM     10  H   UNL     1       7.370   8.300  16.507  0.00  0.00    +0.000 HD
BRANCH   7  11
ATOM     11  C   UNL     1       8.284   8.829  18.319  0.00  0.00    +0.000 C 
BRANCH  11  12
ATOM     12  C   UNL     1       8.829  10.088  17.639  0.00  0.00    +0.000 C 
BRANCH  12  13
ATOM     13  C   UNL     1       8.926  11.304  18.556  0.00  0.00    +0.000 C 
BRANCH  13  15
ATOM     14  O   UNL     1      10.249  13.226  17.960  0.00  0.00    +0.000 OA
ATOM     15  C   UNL     1      10.205  12.065  18.339  0.00  0.00    +0.000 C 
BRANCH  15  16
ATOM     16  O   UNL     1      11.313  11.362  18.664  0.00  0.00    +0.000 OA
ATOM     17  H   UNL     1      12.147  11.768  18.359  0.00  0.00    +0.000 HD
ENDBRANCH  15  16
ENDBRANCH  13  15
ENDBRANCH  12  13
ENDBRANCH  11  12
ENDBRANCH   7  11
ENDBRANCH   1   8
BRANCH   6  18
ATOM     18  N   UNL     1       4.748   5.377  18.012  0.00  0.00    +0.000 N 
ATOM     19  C   UNL     1       3.737   6.338  18.102  0.00  0.00    +0.000 C 
ATOM     20  O   UNL     1       3.383   7.031  17.147  0.00  0.00    +0.000 OA
ATOM     21  H   UNL     1       4.620   4.550  18.599  0.00  0.00    +0.000 HD
BRANCH  19  22
ATOM     22  C   UNL     1       3.049   6.408  19.497  0.00  0.00    +0.000 C 
BRANCH  22  23
ATOM     23  C   UNL     1       2.149   7.653  19.587  0.00  0.00    +0.000 A 
ATOM     24  C   UNL     1       1.949   8.496  18.480  0.00  0.00    +0.000 A 
ATOM     25  C   UNL     1       1.076   9.585  18.552  0.00  0.00    +0.000 A 
ATOM     26  C   UNL     1       0.387   9.847  19.734  0.00  0.00    +0.000 A 
ATOM     27  C   UNL     1       0.579   9.028  20.843  0.00  0.00    +0.000 A 
ATOM     28  C   UNL     1       1.454   7.939  20.773  0.00  0.00    +0.000 A 
ENDBRANCH  22  23
BRANCH  22  29
ATOM     29  C   UNL     1       2.348   5.093  19.894  0.00  0.00    +0.000 A 
ATOM     30  C   UNL     1       1.591   4.368  18.958  0.00  0.00    +0.000 A 
ATOM     31  C   UNL     1       0.955   3.172  19.304  0.00  0.00    +0.000 A 
ATOM     32  C   UNL     1       1.075   2.662  20.592  0.00  0.00    +0.000 A 
ATOM     33  C   UNL     1       1.858   3.332  21.524  0.00  0.00    +0.000 A 
ATOM     34  C   UNL     1       2.500   4.524  21.175  0.00  0.00    +0.000 A 
ENDBRANCH  22  29
ENDBRANCH  19  22
ENDBRANCH   6  18
TORSDOF 10
ENDMDL
MODEL 6
REMARK VINA RESULT:      -8.7      2.973      6.996
REMARK  Name = 
REMARK  10 active torsions:
REMARK  status: ('A' for Active; 'I' for Inactive)
REMARK    1  A    between atoms: C_2  and  O_3
REMARK    2  A    between atoms: C_2  and  C_4
REMARK    3  A    between atoms: C_4  and  C_5
REMARK    4  A    between atoms: C_5  and  C_6
REMARK    5  A    between atoms: C_6  and  N_7
REMARK    6  A    between atoms: C_8  and  C_10
REMARK    7  A    between atoms: C_15  and  N_16
REMARK    8  A    between atoms: C_17  and  C_19
REMARK    9  A    between atoms: C_19  and  C_20
REMARK   10  A    between atoms: C_19  and  C_26
REMARK                            x       y       z     vdW  Elec       q    Type
REMARK                         _______ _______ _______ _____ _____    ______ ____
ROOT
ATOM      1  C   UNL     1       1.877   4.863  19.561  0.00  0.00    +0.000 A 
ATOM      2  C   UNL     1       0.938   4.086  20.267  0.00  0.00    +0.000 A 
ATOM      3  C   UNL     1       0.684   2.762  19.906  0.00  0.00    +0.000 A 
ATOM      4  C   UNL     1       1.345   2.205  18.820  0.00  0.00    +0.000 A 
ATOM      5  C   UNL     1       2.229   2.980  18.067  0.00  0.00    +0.000 A 
ATOM      6  C   UNL     1       2.493   4.316  18.411  0.00  0.00    +0.000 A 
ENDROOT
BRANCH   1   8
ATOM      7  N   UNL     1       1.346   6.826  20.957  0.00  0.00    +0.000 N 
ATOM      8  C   UNL     1       2.157   6.277  19.983  0.00  0.00    +0.000 C 
ATOM      9  O   UNL     1       3.088   6.902  19.481  0.00  0.00    +0.000 OA
ATOM     10  H   UNL     1       0.666   6.263  21.448  0.00  0.00    +0.000 HD
BRANCH   7  11
ATOM     11  C   UNL     1       1.495   8.189  21.417  0.00  0.00    +0.000 C 
BRANCH  11  12
ATOM     12  C   UNL     1       0.359   9.104  20.949  0.00  0.00    +0.000 C 
BRANCH  12  13
ATOM     13  C   UNL     1       0.827  10.423  20.341  0.00  0.00    +0.000 C 
BRANCH  13  15
ATOM     14  O   UNL     1       1.068   9.309  18.219  0.00  0.00    +0.000 OA
ATOM     15  C   UNL     1       0.906  10.348  18.841  0.00  0.00    +0.000 C 
BRANCH  15  16
ATOM     16  O   UNL     1       0.717  11.540  18.230  0.00  0.00    +0.000 OA
ATOM     17  H   UNL     1       0.838  12.312  18.815  0.00  0.00    +0.000 HD
ENDBRANCH  15  16
ENDBRANCH  13  15
ENDBRANCH  12  13
ENDBRANCH  11  12
ENDBRANCH   7  11
ENDBRANCH   1   8
BRANCH   6  18
ATOM     18  N   UNL     1       3.390   5.081  17.614  0.00  0.00    +0.000 N 
ATOM     19  C   UNL     1       4.460   4.517  16.914  0.00  0.00    +0.000 C 
ATOM     20  O   UNL     1       4.679   3.305  16.886  0.00  0.00    +0.000 OA
ATOM     21  H   UNL     1       2.979   5.915  17.189  0.00  0.00    +0.000 HD
BRANCH  19  22
ATOM     22  C   UNL     1       5.311   5.546  16.115  0.00  0.00    +0.000 C 
BRANCH  22  23
ATOM     23  C   UNL     1       6.343   6.219  17.036  0.00  0.00    +0.000 A 
ATOM     24  C   UNL     1       7.008   5.497  18.044  0.00  0.00    +0.000 A 
ATOM     25  C   UNL     1       7.993   6.099  18.831  0.00  0.00    +0.000 A 
ATOM     26  C   UNL     1       8.331   7.433  18.622  0.00  0.00    +0.000 A 
ATOM     27  C   UNL     1       7.679   8.166  17.634  0.00  0.00    +0.000 A 
ATOM     28  C   UNL     1       6.691   7.566  16.847  0.00  0.00    +0.000 A 
ENDBRANCH  22  23
BRANCH  22  29
ATOM     29  C   UNL     1       5.909   4.962  14.819  0.00  0.00    +0.000 A 
ATOM     30  C   UNL     1       5.165   4.083  14.014  0.00  0.00    +0.000 A 
ATOM     31  C   UNL     1       5.694   3.550  12.834  0.00  0.00    +0.000 A 
ATOM     32  C   UNL     1       6.975   3.896  12.421  0.00  0.00    +0.000 A 
ATOM     33  C   UNL     1       7.715   4.802  13.172  0.00  0.00    +0.000 A 
ATOM     34  C   UNL     1       7.183   5.340  14.348  0.00  0.00    +0.000 A 
ENDBRANCH  22  29
ENDBRANCH  19  22
ENDBRANCH   6  18
TORSDOF 10
ENDMDL
MODEL 7
REMARK VINA RESULT:      -8.6      3.169      7.533
REMARK  Name = 
REMARK  10 active torsions:
REMARK  status: ('A' for Active; 'I' for Inactive)
REMARK    1  A    between atoms: C_2  and  O_3
REMARK    2  A    between atoms: C_2  and  C_4
REMARK    3  A    between atoms: C_4  and  C_5
REMARK    4  A    between atoms: C_5  and  C_6
REMARK    5  A    between atoms: C_6  and  N_7
REMARK    6  A    between atoms: C_8  and  C_10
REMARK    7  A    between atoms: C_15  and  N_16
REMARK    8  A    between atoms: C_17  and  C_19
REMARK    9  A    between atoms: C_19  and  C_20
REMARK   10  A    between atoms: C_19  and  C_26
REMARK                            x       y       z     vdW  Elec       q    Type
REMARK                         _______ _______ _______ _____ _____    ______ ____
ROOT
ATOM      1  C   UNL     1       1.851   4.838  19.336  0.00  0.00    +0.000 A 
ATOM      2  C   UNL     1       0.918   4.036  20.023  0.00  0.00    +0.000 A 
ATOM      3  C   UNL     1       0.821   2.667  19.768  0.00  0.00    +0.000 A 
ATOM      4  C   UNL     1       1.636   2.085  18.807  0.00  0.00    +0.000 A 
ATOM      5  C   UNL     1       2.519   2.876  18.069  0.00  0.00    +0.000 A 
ATOM      6  C   UNL     1       2.626   4.256  18.306  0.00  0.00    +0.000 A 
ENDROOT
BRANCH   1   8
ATOM      7  N   UNL     1       1.740   6.700  20.948  0.00  0.00    +0.000 N 
ATOM      8  C   UNL     1       1.959   6.303  19.643  0.00  0.00    +0.000 C 
ATOM      9  O   UNL     1       2.251   7.104  18.758  0.00  0.00    +0.000 OA
ATOM     10  H   UNL     1       1.623   6.022  21.688  0.00  0.00    +0.000 HD
BRANCH   7  11
ATOM     11  C   UNL     1       1.779   8.088  21.356  0.00  0.00    +0.000 C 
BRANCH  11  12
ATOM     12  C   UNL     1       0.385   8.693  21.548  0.00  0.00    +0.000 C 
BRANCH  12  13
ATOM     13  C   UNL     1       0.371  10.217  21.633  0.00  0.00    +0.000 C 
BRANCH  13  15
ATOM     14  O   UNL     1      -0.614  11.879  23.071  0.00  0.00    +0.000 OA
ATOM     15  C   UNL     1      -0.494  10.703  22.764  0.00  0.00    +0.000 C 
BRANCH  15  16
ATOM     16  O   UNL     1      -1.184   9.715  23.379  0.00  0.00    +0.000 OA
ATOM     17  H   UNL     1      -2.152   9.780  23.274  0.00  0.00    +0.000 HD
ENDBRANCH  15  16
ENDBRANCH  13  15
ENDBRANCH  12  13
ENDBRANCH  11  12
ENDBRANCH   7  11
ENDBRANCH   1   8
BRANCH   6  18
ATOM     18  N   UNL     1       3.528   5.033  17.525  0.00  0.00    +0.000 N 
ATOM     19  C   UNL     1       4.578   4.476  16.792  0.00  0.00    +0.000 C 
ATOM     20  O   UNL     1       4.775   3.261  16.717  0.00  0.00    +0.000 OA
ATOM     21  H   UNL     1       3.127   5.889  17.135  0.00  0.00    +0.000 HD
BRANCH  19  22
ATOM     22  C   UNL     1       5.439   5.518  16.019  0.00  0.00    +0.000 C 
BRANCH  22  23
ATOM     23  C   UNL     1       6.507   6.123  16.946  0.00  0.00    +0.000 A 
ATOM     24  C   UNL     1       6.887   7.473  16.845  0.00  0.00    +0.000 A 
ATOM     25  C   UNL     1       7.808   8.031  17.735  0.00  0.00    +0.000 A 
ATOM     26  C   UNL     1       8.364   7.247  18.743  0.00  0.00    +0.000 A 
ATOM     27  C   UNL     1       8.006   5.906  18.853  0.00  0.00    +0.000 A 
ATOM     28  C   UNL     1       7.086   5.345  17.962  0.00  0.00    +0.000 A 
ENDBRANCH  22  23
BRANCH  22  29
ATOM     29  C   UNL     1       5.994   4.976  14.686  0.00  0.00    +0.000 A 
ATOM     30  C   UNL     1       7.246   5.395  14.204  0.00  0.00    +0.000 A 
ATOM     31  C   UNL     1       7.763   4.907  12.999  0.00  0.00    +0.000 A 
ATOM     32  C   UNL     1       7.047   3.977  12.254  0.00  0.00    +0.000 A 
ATOM     33  C   UNL     1       5.828   3.509  12.732  0.00  0.00    +0.000 A 
ATOM     34  C   UNL     1       5.316   3.990  13.941  0.00  0.00    +0.000 A 
ENDBRANCH  22  29
ENDBRANCH  19  22
ENDBRANCH   6  18
TORSDOF 10
ENDMDL
MODEL 8
REMARK VINA RESULT:      -8.6      2.801      7.047
REMARK  Name = 
REMARK  10 active torsions:
REMARK  status: ('A' for Active; 'I' for Inactive)
REMARK    1  A    between atoms: C_2  and  O_3
REMARK    2  A    between atoms: C_2  and  C_4
REMARK    3  A    between atoms: C_4  and  C_5
REMARK    4  A    between atoms: C_5  and  C_6
REMARK    5  A    between atoms: C_6  and  N_7
REMARK    6  A    between atoms: C_8  and  C_10
REMARK    7  A    between atoms: C_15  and  N_16
REMARK    8  A    between atoms: C_17  and  C_19
REMARK    9  A    between atoms: C_19  and  C_20
REMARK   10  A    between atoms: C_19  and  C_26
REMARK                            x       y       z     vdW  Elec       q    Type
REMARK                         _______ _______ _______ _____ _____    ______ ____
ROOT
ATOM      1  C   UNL     1       2.575   4.123  19.005  0.00  0.00    +0.000 A 
ATOM      2  C   UNL     1       1.267   3.785  19.403  0.00  0.00    +0.000 A 
ATOM      3  C   UNL     1       0.798   2.475  19.294  0.00  0.00    +0.000 A 
ATOM      4  C   UNL     1       1.619   1.491  18.761  0.00  0.00    +0.000 A 
ATOM      5  C   UNL     1       2.894   1.821  18.298  0.00  0.00    +0.000 A 
ATOM      6  C   UNL     1       3.382   3.134  18.394  0.00  0.00    +0.000 A 
ENDROOT
BRANCH   1   8
ATOM      7  N   UNL     1       2.160   6.554  18.973  0.00  0.00    +0.000 N 
ATOM      8  C   UNL     1       3.071   5.532  19.156  0.00  0.00    +0.000 C 
ATOM      9  O   UNL     1       4.244   5.749  19.451  0.00  0.00    +0.000 OA
ATOM     10  H   UNL     1       1.176   6.360  18.854  0.00  0.00    +0.000 HD
BRANCH   7  11
ATOM     11  C   UNL     1       2.529   7.950  19.056  0.00  0.00    +0.000 C 
BRANCH  11  12
ATOM     12  C   UNL     1       2.160   8.741  17.797  0.00  0.00    +0.000 C 
BRANCH  12  13
ATOM     13  C   UNL     1       1.000   9.714  17.987  0.00  0.00    +0.000 C 
BRANCH  13  15
ATOM     14  O   UNL     1       1.137  11.409  19.692  0.00  0.00    +0.000 OA
ATOM     15  C   UNL     1       1.459  11.018  18.581  0.00  0.00    +0.000 C 
BRANCH  15  16
ATOM     16  O   UNL     1       2.319  11.698  17.789  0.00  0.00    +0.000 OA
ATOM     17  H   UNL     1       2.235  11.492  16.839  0.00  0.00    +0.000 HD
ENDBRANCH  15  16
ENDBRANCH  13  15
ENDBRANCH  12  13
ENDBRANCH  11  12
ENDBRANCH   7  11
ENDBRANCH   1   8
BRANCH   6  18
ATOM     18  N   UNL     1       4.682   3.437  17.901  0.00  0.00    +0.000 N 
ATOM     19  C   UNL     1       4.914   3.941  16.619  0.00  0.00    +0.000 C 
ATOM     20  O   UNL     1       4.006   4.217  15.832  0.00  0.00    +0.000 OA
ATOM     21  H   UNL     1       5.353   3.730  18.615  0.00  0.00    +0.000 HD
BRANCH  19  22
ATOM     22  C   UNL     1       6.415   4.191  16.294  0.00  0.00    +0.000 C 
BRANCH  22  23
ATOM     23  C   UNL     1       6.624   4.296  14.774  0.00  0.00    +0.000 A 
ATOM     24  C   UNL     1       7.582   5.166  14.222  0.00  0.00    +0.000 A 
ATOM     25  C   UNL     1       7.812   5.204  12.845  0.00  0.00    +0.000 A 
ATOM     26  C   UNL     1       7.090   4.370  11.995  0.00  0.00    +0.000 A 
ATOM     27  C   UNL     1       6.133   3.508  12.522  0.00  0.00    +0.000 A 
ATOM     28  C   UNL     1       5.899   3.469  13.900  0.00  0.00    +0.000 A 
ENDBRANCH  22  23
BRANCH  22  29
ATOM     29  C   UNL     1       7.022   5.360  17.096  0.00  0.00    +0.000 A 
ATOM     30  C   UNL     1       6.883   6.687  16.653  0.00  0.00    +0.000 A 
ATOM     31  C   UNL     1       7.425   7.756  17.374  0.00  0.00    +0.000 A 
ATOM     32  C   UNL     1       8.105   7.527  18.564  0.00  0.00    +0.000 A 
ATOM     33  C   UNL     1       8.214   6.229  19.051  0.00  0.00    +0.000 A 
ATOM     34  C   UNL     1       7.666   5.161  18.334  0.00  0.00    +0.000 A 
ENDBRANCH  22  29
ENDBRANCH  19  22
ENDBRANCH   6  18
TORSDOF 10
ENDMDL
MODEL 9
REMARK VINA RESULT:      -8.6      3.084      7.353
REMARK  Name = 
REMARK  10 active torsions:
REMARK  status: ('A' for Active; 'I' for Inactive)
REMARK    1  A    between atoms: C_2  and  O_3
REMARK    2  A    between atoms: C_2  and  C_4
REMARK    3  A    between atoms: C_4  and  C_5
REMARK    4  A    between atoms: C_5  and  C_6
REMARK    5  A    between atoms: C_6  and  N_7
REMARK    6  A    between atoms: C_8  and  C_10
REMARK    7  A    between atoms: C_15  and  N_16
REMARK    8  A    between atoms: C_17  and  C_19
REMARK    9  A    between atoms: C_19  and  C_20
REMARK   10  A    between atoms: C_19  and  C_26
REMARK                            x       y       z     vdW  Elec       q    Type
REMARK                         _______ _______ _______ _____ _____    ______ ____
ROOT
ATOM      1  C   UNL     1       1.886   4.689  19.548  0.00  0.00    +0.000 A 
ATOM      2  C   UNL     1       0.947   3.900  20.240  0.00  0.00    +0.000 A 
ATOM      3  C   UNL     1       0.598   2.628  19.781  0.00  0.00    +0.000 A 
ATOM      4  C   UNL     1       1.163   2.139  18.611  0.00  0.00    +0.000 A 
ATOM      5  C   UNL     1       2.044   2.934  17.876  0.00  0.00    +0.000 A 
ATOM      6  C   UNL     1       2.402   4.218  18.318  0.00  0.00    +0.000 A 
ENDROOT
BRANCH   1   8
ATOM      7  N   UNL     1       1.315   6.746  20.782  0.00  0.00    +0.000 N 
ATOM      8  C   UNL     1       2.269   6.042  20.073  0.00  0.00    +0.000 C 
ATOM      9  O   UNL     1       3.399   6.485  19.884  0.00  0.00    +0.000 OA
ATOM     10  H   UNL     1       0.434   6.321  21.036  0.00  0.00    +0.000 HD
BRANCH   7  11
ATOM     11  C   UNL     1       1.555   8.074  21.304  0.00  0.00    +0.000 C 
BRANCH  11  12
ATOM     12  C   UNL     1       0.681   9.142  20.641  0.00  0.00    +0.000 C 
BRANCH  12  13
ATOM     13  C   UNL     1       0.722  10.502  21.332  0.00  0.00    +0.000 C 
BRANCH  13  15
ATOM     14  O   UNL     1      -0.120  10.131  23.558  0.00  0.00    +0.000 OA
ATOM     15  C   UNL     1      -0.291  10.594  22.440  0.00  0.00    +0.000 C 
BRANCH  15  16
ATOM     16  O   UNL     1      -1.395  11.298  22.104  0.00  0.00    +0.000 OA
ATOM     17  H   UNL     1      -1.225  12.041  21.495  0.00  0.00    +0.000 HD
ENDBRANCH  15  16
ENDBRANCH  13  15
ENDBRANCH  12  13
ENDBRANCH  11  12
ENDBRANCH   7  11
ENDBRANCH   1   8
BRANCH   6  18
ATOM     18  N   UNL     1       3.294   5.005  17.536  0.00  0.00    +0.000 N 
ATOM     19  C   UNL     1       4.440   4.485  16.929  0.00  0.00    +0.000 C 
ATOM     20  O   UNL     1       4.741   3.291  16.976  0.00  0.00    +0.000 OA
ATOM     21  H   UNL     1       2.855   5.788  17.046  0.00  0.00    +0.000 HD
BRANCH  19  22
ATOM     22  C   UNL     1       5.268   5.532  16.129  0.00  0.00    +0.000 C 
BRANCH  22  23
ATOM     23  C   UNL     1       6.310   6.201  17.041  0.00  0.00    +0.000 A 
ATOM     24  C   UNL     1       6.967   5.482  18.056  0.00  0.00    +0.000 A 
ATOM     25  C   UNL     1       7.961   6.080  18.834  0.00  0.00    +0.000 A 
ATOM     26  C   UNL     1       8.317   7.407  18.610  0.00  0.00    +0.000 A 
ATOM     27  C   UNL     1       7.672   8.137  17.615  0.00  0.00    +0.000 A 
ATOM     28  C   UNL     1       6.675   7.542  16.836  0.00  0.00    +0.000 A 
ENDBRANCH  22  23
BRANCH  22  29
ATOM     29  C   UNL     1       5.848   4.971  14.815  0.00  0.00    +0.000 A 
ATOM     30  C   UNL     1       7.149   5.303  14.401  0.00  0.00    +0.000 A 
ATOM     31  C   UNL     1       7.688   4.797  13.214  0.00  0.00    +0.000 A 
ATOM     32  C   UNL     1       6.945   3.931  12.420  0.00  0.00    +0.000 A 
ATOM     33  C   UNL     1       5.674   3.546  12.830  0.00  0.00    +0.000 A 
ATOM     34  C   UNL     1       5.138   4.047  14.021  0.00  0.00    +0.000 A 
ENDBRANCH  22  29
ENDBRANCH  19  22
ENDBRANCH   6  18
TORSDOF 10
ENDMDL
