MODEL 1
REMARK VINA RESULT:      -8.1      0.000      0.000
REMARK  Name = 
REMARK  9 active torsions:
REMARK  status: ('A' for Active; 'I' for Inactive)
REMARK    1  A    between atoms: C_1  and  C_2
REMARK    2  A    between atoms: C_2  and  C_3
REMARK    3  A    between atoms: C_2  and  N_4
REMARK    4  A    between atoms: N_4  and  C_5
REMARK    5  A    between atoms: C_5  and  C_6
REMARK    6  A    between atoms: C_12  and  C_14
REMARK    7  A    between atoms: C_14  and  C_15
REMARK    8  A    between atoms: N_17  and  C_18
REMARK    9  A    between atoms: C_18  and  C_19
REMARK                            x       y       z     vdW  Elec       q    Type
REMARK                         _______ _______ _______ _____ _____    ______ ____
ROOT
ATOM      1  C   UNL     1       2.447   6.724  19.012  0.00  0.00    +0.000 A 
ATOM      2  C   UNL     1       3.712   6.696  18.459  0.00  0.00    +0.000 A 
ATOM      3  N   UNL     1       4.316   5.516  18.804  0.00  0.00    +0.000 N 
ATOM      4  C   UNL     1       3.436   4.722  19.511  0.00  0.00    +0.000 A 
ATOM      5  C   UNL     1       3.572   3.424  20.036  0.00  0.00    +0.000 A 
ATOM      6  C   UNL     1       2.497   2.879  20.743  0.00  0.00    +0.000 A 
ATOM      7  C   UNL     1       1.322   3.602  20.925  0.00  0.00    +0.000 A 
ATOM      8  C   UNL     1       1.195   4.890  20.397  0.00  0.00    +0.000 A 
ATOM      9  C   UNL     1       2.261   5.464  19.675  0.00  0.00    +0.000 A 
ENDROOT
BRANCH   1  10
ATOM     10  C   UNL     1       1.446   7.838  18.909  0.00  0.00    +0.000 C 
BRANCH  10  12
ATOM     11  N   UNL     1       0.815   9.987  20.076  0.00  0.00    +0.000 N 
ATOM     12  C   UNL     1       1.371   8.701  20.175  0.00  0.00    +0.000 C 
ATOM     13  O   UNL     1       1.832   8.279  21.239  0.00  0.00    +0.000 OA
BRANCH  11  15
ATOM     14  C   UNL     1       0.912  12.356  21.012  0.00  0.00    +0.000 C 
ATOM     15  C   UNL     1       0.706  10.858  21.273  0.00  0.00    +0.000 C 
ATOM     16  C   UNL     1      -0.600  10.623  22.035  0.00  0.00    +0.000 C 
ENDBRANCH  11  15
BRANCH  11  17
ATOM     17  C   UNL     1       0.594  10.642  18.778  0.00  0.00    +0.000 C 
BRANCH  17  18
ATOM     18  C   UNL     1      -0.853  10.673  18.343  0.00  0.00    +0.000 A 
ATOM     19  C   UNL     1      -1.746  11.638  18.817  0.00  0.00    +0.000 A 
ATOM     20  C   UNL     1      -3.063  11.606  18.383  0.00  0.00    +0.000 A 
ATOM     21  N   UNL     1      -3.542  10.697  17.510  0.00  0.00    +0.000 NA
ATOM     22  C   UNL     1      -2.664   9.788  17.040  0.00  0.00    +0.000 A 
ATOM     23  C   UNL     1      -1.329   9.742  17.411  0.00  0.00    +0.000 A 
ENDBRANCH  17  18
ENDBRANCH  11  17
ENDBRANCH  10  12
ENDBRANCH   1  10
BRANCH   3  24
ATOM     24  C   UNL     1       5.693   5.173  18.457  0.00  0.00    +0.000 C 
BRANCH  24  25
ATOM     25  C   UNL     1       5.827   4.906  16.976  0.00  0.00    +0.000 A 
ATOM     26  C   UNL     1       4.857   4.159  16.292  0.00  0.00    +0.000 A 
ATOM     27  C   UNL     1       5.045   3.803  14.955  0.00  0.00    +0.000 A 
ATOM     28  C   UNL     1       6.202   4.201  14.291  0.00  0.00    +0.000 A 
ATOM     29 BR   UNL     1       6.495   3.650  12.506  0.00  0.00    +0.000 Br
ATOM     30  C   UNL     1       7.156   4.981  14.940  0.00  0.00    +0.000 A 
ATOM     31  C   UNL     1       6.969   5.333  16.278  0.00  0.00    +0.000 A 
ENDBRANCH  24  25
ENDBRANCH   3  24
TORSDOF 7
ENDMDL
MODEL 2
REMARK VINA RESULT:      -8.1      0.236      1.228
REMARK  Name = 
REMARK  9 active torsions:
REMARK  status: ('A' for Active; 'I' for Inactive)
REMARK    1  A    between atoms: C_1  and  C_2
REMARK    2  A    between atoms: C_2  and  C_3
REMARK    3  A    between atoms: C_2  and  N_4
REMARK    4  A    between atoms: N_4  and  C_5
REMARK    5  A    between atoms: C_5  and  C_6
REMARK    6  A    between atoms: C_12  and  C_14
REMARK    7  A    between atoms: C_14  and  C_15
REMARK    8  A    between atoms: N_17  and  C_18
REMARK    9  A    between atoms: C_18  and  C_19
REMARK                            x       y       z     vdW  Elec       q    Type
REMARK                         _______ _______ _______ _____ _____    ______ ____
ROOT
ATOM      1  C   UNL     1       2.561   6.715  19.051  0.00  0.00    +0.000 A 
ATOM      2  C   UNL     1       3.860   6.657  18.584  0.00  0.00    +0.000 A 
ATOM      3  N   UNL     1       4.408   5.460  18.961  0.00  0.00    +0.000 N 
ATOM      4  C   UNL     1       3.464   4.686  19.603  0.00  0.00    +0.000 A 
ATOM      5  C   UNL     1       3.532   3.382  20.128  0.00  0.00    +0.000 A 
ATOM      6  C   UNL     1       2.398   2.863  20.759  0.00  0.00    +0.000 A 
ATOM      7  C   UNL     1       1.232   3.615  20.866  0.00  0.00    +0.000 A 
ATOM      8  C   UNL     1       1.174   4.908  20.338  0.00  0.00    +0.000 A 
ATOM      9  C   UNL     1       2.300   5.458  19.693  0.00  0.00    +0.000 A 
ENDROOT
BRANCH   1  10
ATOM     10  C   UNL     1       1.598   7.855  18.888  0.00  0.00    +0.000 C 
BRANCH  10  12
ATOM     11  N   UNL     1       0.861   9.969  20.056  0.00  0.00    +0.000 N 
ATOM     12  C   UNL     1       1.427   8.687  20.165  0.00  0.00    +0.000 C 
ATOM     13  O   UNL     1       1.821   8.247  21.247  0.00  0.00    +0.000 OA
BRANCH  11  15
ATOM     14  C   UNL     1       0.918  12.309  21.063  0.00  0.00    +0.000 C 
ATOM     15  C   UNL     1       0.660  10.810  21.262  0.00  0.00    +0.000 C 
ATOM     16  C   UNL     1      -0.715  10.585  21.896  0.00  0.00    +0.000 C 
ENDBRANCH  11  15
BRANCH  11  17
ATOM     17  C   UNL     1       0.718  10.650  18.761  0.00  0.00    +0.000 C 
BRANCH  17  18
ATOM     18  C   UNL     1      -0.700  10.690  18.241  0.00  0.00    +0.000 A 
ATOM     19  C   UNL     1      -1.233   9.653  17.470  0.00  0.00    +0.000 A 
ATOM     20  C   UNL     1      -2.540   9.755  17.018  0.00  0.00    +0.000 A 
ATOM     21  N   UNL     1      -3.348  10.801  17.288  0.00  0.00    +0.000 NA
ATOM     22  C   UNL     1      -2.830  11.782  18.055  0.00  0.00    +0.000 A 
ATOM     23  C   UNL     1      -1.537  11.768  18.557  0.00  0.00    +0.000 A 
ENDBRANCH  17  18
ENDBRANCH  11  17
ENDBRANCH  10  12
ENDBRANCH   1  10
BRANCH   3  24
ATOM     24  C   UNL     1       5.797   5.083  18.704  0.00  0.00    +0.000 C 
BRANCH  24  25
ATOM     25  C   UNL     1       5.986   4.660  17.267  0.00  0.00    +0.000 A 
ATOM     26  C   UNL     1       7.062   5.148  16.512  0.00  0.00    +0.000 A 
ATOM     27  C   UNL     1       7.164   4.861  15.149  0.00  0.00    +0.000 A 
ATOM     28  C   UNL     1       6.193   4.074  14.535  0.00  0.00    +0.000 A 
ATOM     29 BR   UNL     1       6.286   3.753  12.674  0.00  0.00    +0.000 Br
ATOM     30  C   UNL     1       5.141   3.544  15.277  0.00  0.00    +0.000 A 
ATOM     31  C   UNL     1       5.037   3.835  16.639  0.00  0.00    +0.000 A 
ENDBRANCH  24  25
ENDBRANCH   3  24
TORSDOF 7
ENDMDL
MODEL 3
REMARK VINA RESULT:      -7.9      3.237      8.626
REMARK  Name = 
REMARK  9 active torsions:
REMARK  status: ('A' for Active; 'I' for Inactive)
REMARK    1  A    between atoms: C_1  and  C_2
REMARK    2  A    between atoms: C_2  and  C_3
REMARK    3  A    between atoms: C_2  and  N_4
REMARK    4  A    between atoms: N_4  and  C_5
REMARK    5  A    between atoms: C_5  and  C_6
REMARK    6  A    between atoms: C_12  and  C_14
REMARK    7  A    between atoms: C_14  and  C_15
REMARK    8  A    between atoms: N_17  and  C_18
REMARK    9  A    between atoms: C_18  and  C_19
REMARK                            x       y       z     vdW  Elec       q    Type
REMARK                         _______ _______ _______ _____ _____    ______ ____
ROOT
ATOM      1  C   UNL     1       2.099   8.373  18.463  0.00  0.00    +0.000 A 
ATOM      2  C   UNL     1       1.670   9.479  17.755  0.00  0.00    +0.000 A 
ATOM      3  N   UNL     1       0.821  10.205  18.547  0.00  0.00    +0.000 N 
ATOM      4  C   UNL     1       0.742   9.638  19.802  0.00  0.00    +0.000 A 
ATOM      5  C   UNL     1       0.046  10.034  20.959  0.00  0.00    +0.000 A 
ATOM      6  C   UNL     1       0.139   9.228  22.097  0.00  0.00    +0.000 A 
ATOM      7  C   UNL     1       0.898   8.062  22.087  0.00  0.00    +0.000 A 
ATOM      8  C   UNL     1       1.589   7.678  20.933  0.00  0.00    +0.000 A 
ATOM      9  C   UNL     1       1.518   8.474  19.772  0.00  0.00    +0.000 A 
ENDROOT
BRANCH   1  10
ATOM     10  C   UNL     1       3.020   7.294  17.971  0.00  0.00    +0.000 C 
BRANCH  10  12
ATOM     11  N   UNL     1       3.255   5.017  19.036  0.00  0.00    +0.000 N 
ATOM     12  C   UNL     1       2.489   5.880  18.235  0.00  0.00    +0.000 C 
ATOM     13  O   UNL     1       1.435   5.509  17.714  0.00  0.00    +0.000 OA
BRANCH  11  15
ATOM     14  C   UNL     1       3.870   2.654  19.768  0.00  0.00    +0.000 C 
ATOM     15  C   UNL     1       2.780   3.642  19.334  0.00  0.00    +0.000 C 
ATOM     16  C   UNL     1       1.626   3.640  20.339  0.00  0.00    +0.000 C 
ENDBRANCH  11  15
BRANCH  11  17
ATOM     17  C   UNL     1       4.659   5.301  19.365  0.00  0.00    +0.000 C 
BRANCH  17  18
ATOM     18  C   UNL     1       5.567   5.386  18.161  0.00  0.00    +0.000 A 
ATOM     19  C   UNL     1       5.461   4.492  17.091  0.00  0.00    +0.000 A 
ATOM     20  C   UNL     1       6.330   4.622  16.019  0.00  0.00    +0.000 A 
ATOM     21  N   UNL     1       7.279   5.578  15.932  0.00  0.00    +0.000 NA
ATOM     22  C   UNL     1       7.353   6.450  16.958  0.00  0.00    +0.000 A 
ATOM     23  C   UNL     1       6.526   6.404  18.070  0.00  0.00    +0.000 A 
ENDBRANCH  17  18
ENDBRANCH  11  17
ENDBRANCH  10  12
ENDBRANCH   1  10
BRANCH   3  24
ATOM     24  C   UNL     1       0.114  11.404  18.101  0.00  0.00    +0.000 C 
BRANCH  24  25
ATOM     25  C   UNL     1      -1.382  11.221  18.207  0.00  0.00    +0.000 A 
ATOM     26  C   UNL     1      -2.037  10.235  17.455  0.00  0.00    +0.000 A 
ATOM     27  C   UNL     1      -3.431  10.151  17.454  0.00  0.00    +0.000 A 
ATOM     28  C   UNL     1      -4.178  11.049  18.214  0.00  0.00    +0.000 A 
ATOM     29 BR   UNL     1      -6.066  10.989  18.149  0.00  0.00    +0.000 Br
ATOM     30  C   UNL     1      -3.542  12.007  19.001  0.00  0.00    +0.000 A 
ATOM     31  C   UNL     1      -2.149  12.092  18.998  0.00  0.00    +0.000 A 
ENDBRANCH  24  25
ENDBRANCH   3  24
TORSDOF 7
ENDMDL
MODEL 4
REMARK VINA RESULT:      -7.8      3.333      8.613
REMARK  Name = 
REMARK  9 active torsions:
REMARK  status: ('A' for Active; 'I' for Inactive)
REMARK    1  A    between atoms: C_1  and  C_2
REMARK    2  A    between atoms: C_2  and  C_3
REMARK    3  A    between atoms: C_2  and  N_4
REMARK    4  A    between atoms: N_4  and  C_5
REMARK    5  A    between atoms: C_5  and  C_6
REMARK    6  A    between atoms: C_12  and  C_14
REMARK    7  A    between atoms: C_14  and  C_15
REMARK    8  A    between atoms: N_17  and  C_18
REMARK    9  A    between atoms: C_18  and  C_19
REMARK                            x       y       z     vdW  Elec       q    Type
REMARK                         _______ _______ _______ _____ _____    ______ ____
ROOT
ATOM      1  C   UNL     1       1.191   8.765  19.800  0.00  0.00    +0.000 A 
ATOM      2  C   UNL     1       0.887   9.680  18.810  0.00  0.00    +0.000 A 
ATOM      3  N   UNL     1       0.098  10.661  19.349  0.00  0.00    +0.000 N 
ATOM      4  C   UNL     1      -0.060  10.454  20.703  0.00  0.00    +0.000 A 
ATOM      5  C   UNL     1      -0.736  11.202  21.685  0.00  0.00    +0.000 A 
ATOM      6  C   UNL     1      -0.745  10.718  22.996  0.00  0.00    +0.000 A 
ATOM      7  C   UNL     1      -0.103   9.528  23.323  0.00  0.00    +0.000 A 
ATOM      8  C   UNL     1       0.568   8.793  22.340  0.00  0.00    +0.000 A 
ATOM      9  C   UNL     1       0.598   9.258  21.011  0.00  0.00    +0.000 A 
ENDROOT
BRANCH   1  10
ATOM     10  C   UNL     1       2.011   7.516  19.647  0.00  0.00    +0.000 C 
BRANCH  10  12
ATOM     11  N   UNL     1       3.750   6.430  18.173  0.00  0.00    +0.000 N 
ATOM     12  C   UNL     1       2.910   7.532  18.405  0.00  0.00    +0.000 C 
ATOM     13  O   UNL     1       2.917   8.515  17.659  0.00  0.00    +0.000 OA
BRANCH  11  15
ATOM     14  C   UNL     1       6.018   7.014  17.168  0.00  0.00    +0.000 C 
ATOM     15  C   UNL     1       4.630   6.389  16.978  0.00  0.00    +0.000 C 
ATOM     16  C   UNL     1       4.755   4.974  16.408  0.00  0.00    +0.000 C 
ENDBRANCH  11  15
BRANCH  11  17
ATOM     17  C   UNL     1       4.024   5.428  19.214  0.00  0.00    +0.000 C 
BRANCH  17  18
ATOM     18  C   UNL     1       2.875   4.482  19.474  0.00  0.00    +0.000 A 
ATOM     19  C   UNL     1       2.453   4.172  20.771  0.00  0.00    +0.000 A 
ATOM     20  C   UNL     1       1.396   3.291  20.940  0.00  0.00    +0.000 A 
ATOM     21  N   UNL     1       0.729   2.714  19.920  0.00  0.00    +0.000 NA
ATOM     22  C   UNL     1       1.129   3.042  18.674  0.00  0.00    +0.000 A 
ATOM     23  C   UNL     1       2.171   3.916  18.404  0.00  0.00    +0.000 A 
ENDBRANCH  17  18
ENDBRANCH  11  17
ENDBRANCH  10  12
ENDBRANCH   1  10
BRANCH   3  24
ATOM     24  C   UNL     1      -0.478  11.759  18.575  0.00  0.00    +0.000 C 
BRANCH  24  25
ATOM     25  C   UNL     1      -1.976  11.605  18.449  0.00  0.00    +0.000 A 
ATOM     26  C   UNL     1      -2.844  12.425  19.184  0.00  0.00    +0.000 A 
ATOM     27  C   UNL     1      -4.222  12.198  19.168  0.00  0.00    +0.000 A 
ATOM     28  C   UNL     1      -4.740  11.152  18.408  0.00  0.00    +0.000 A 
ATOM     29 BR   UNL     1      -6.596  10.792  18.451  0.00  0.00    +0.000 Br
ATOM     30  C   UNL     1      -3.898  10.354  17.638  0.00  0.00    +0.000 A 
ATOM     31  C   UNL     1      -2.520  10.580  17.657  0.00  0.00    +0.000 A 
ENDBRANCH  24  25
ENDBRANCH   3  24
TORSDOF 7
ENDMDL
MODEL 5
REMARK VINA RESULT:      -7.8      1.279      1.868
REMARK  Name = 
REMARK  9 active torsions:
REMARK  status: ('A' for Active; 'I' for Inactive)
REMARK    1  A    between atoms: C_1  and  C_2
REMARK    2  A    between atoms: C_2  and  C_3
REMARK    3  A    between atoms: C_2  and  N_4
REMARK    4  A    between atoms: N_4  and  C_5
REMARK    5  A    between atoms: C_5  and  C_6
REMARK    6  A    between atoms: C_12  and  C_14
REMARK    7  A    between atoms: C_14  and  C_15
REMARK    8  A    between atoms: N_17  and  C_18
REMARK    9  A    between atoms: C_18  and  C_19
REMARK                            x       y       z     vdW  Elec       q    Type
REMARK                         _______ _______ _______ _____ _____    ______ ____
ROOT
ATOM      1  C   UNL     1       2.522   7.445  18.097  0.00  0.00    +0.000 A 
ATOM      2  C   UNL     1       3.785   7.378  17.540  0.00  0.00    +0.000 A 
ATOM      3  N   UNL     1       4.476   6.361  18.143  0.00  0.00    +0.000 N 
ATOM      4  C   UNL     1       3.662   5.697  19.036  0.00  0.00    +0.000 A 
ATOM      5  C   UNL     1       3.897   4.575  19.852  0.00  0.00    +0.000 A 
ATOM      6  C   UNL     1       2.868   4.139  20.691  0.00  0.00    +0.000 A 
ATOM      7  C   UNL     1       1.642   4.796  20.720  0.00  0.00    +0.000 A 
ATOM      8  C   UNL     1       1.417   5.909  19.904  0.00  0.00    +0.000 A 
ATOM      9  C   UNL     1       2.434   6.370  19.044  0.00  0.00    +0.000 A 
ENDROOT
BRANCH   1  10
ATOM     10  C   UNL     1       1.440   8.427  17.753  0.00  0.00    +0.000 C 
BRANCH  10  12
ATOM     11  N   UNL     1       0.985  10.527  19.080  0.00  0.00    +0.000 N 
ATOM     12  C   UNL     1       1.791   9.870  18.135  0.00  0.00    +0.000 C 
ATOM     13  O   UNL     1       2.735  10.443  17.586  0.00  0.00    +0.000 OA
BRANCH  11  15
ATOM     14  C   UNL     1       0.831  13.007  18.515  0.00  0.00    +0.000 C 
ATOM     15  C   UNL     1       1.289  11.919  19.495  0.00  0.00    +0.000 C 
ATOM     16  C   UNL     1       0.775  12.221  20.905  0.00  0.00    +0.000 C 
ENDBRANCH  11  15
BRANCH  11  17
ATOM     17  C   UNL     1      -0.333  10.007  19.474  0.00  0.00    +0.000 C 
BRANCH  17  18
ATOM     18  C   UNL     1      -1.461  10.446  18.570  0.00  0.00    +0.000 A 
ATOM     19  C   UNL     1      -1.625   9.921  17.284  0.00  0.00    +0.000 A 
ATOM     20  C   UNL     1      -2.678  10.372  16.503  0.00  0.00    +0.000 A 
ATOM     21  N   UNL     1      -3.577  11.290  16.914  0.00  0.00    +0.000 NA
ATOM     22  C   UNL     1      -3.424  11.769  18.165  0.00  0.00    +0.000 A 
ATOM     23  C   UNL     1      -2.406  11.377  19.021  0.00  0.00    +0.000 A 
ENDBRANCH  17  18
ENDBRANCH  11  17
ENDBRANCH  10  12
ENDBRANCH   1  10
BRANCH   3  24
ATOM     24  C   UNL     1       5.875   6.046  17.858  0.00  0.00    +0.000 C 
BRANCH  24  25
ATOM     25  C   UNL     1       6.005   5.287  16.559  0.00  0.00    +0.000 A 
ATOM     26  C   UNL     1       7.092   5.514  15.703  0.00  0.00    +0.000 A 
ATOM     27  C   UNL     1       7.146   4.910  14.445  0.00  0.00    +0.000 A 
ATOM     28  C   UNL     1       6.114   4.068  14.039  0.00  0.00    +0.000 A 
ATOM     29 BR   UNL     1       6.145   3.316  12.305  0.00  0.00    +0.000 Br
ATOM     30  C   UNL     1       5.047   3.797  14.892  0.00  0.00    +0.000 A 
ATOM     31  C   UNL     1       4.992   4.404  16.148  0.00  0.00    +0.000 A 
ENDBRANCH  24  25
ENDBRANCH   3  24
TORSDOF 7
ENDMDL
MODEL 6
REMARK VINA RESULT:      -7.8      1.730      2.765
REMARK  Name = 
REMARK  9 active torsions:
REMARK  status: ('A' for Active; 'I' for Inactive)
REMARK    1  A    between atoms: C_1  and  C_2
REMARK    2  A    between atoms: C_2  and  C_3
REMARK    3  A    between atoms: C_2  and  N_4
REMARK    4  A    between atoms: N_4  and  C_5
REMARK    5  A    between atoms: C_5  and  C_6
REMARK    6  A    between atoms: C_12  and  C_14
REMARK    7  A    between atoms: C_14  and  C_15
REMARK    8  A    between atoms: N_17  and  C_18
REMARK    9  A    between atoms: C_18  and  C_19
REMARK                            x       y       z     vdW  Elec       q    Type
REMARK                         _______ _______ _______ _____ _____    ______ ____
ROOT
ATOM      1  C   UNL     1       2.384   7.310  18.317  0.00  0.00    +0.000 A 
ATOM      2  C   UNL     1       3.643   7.346  17.750  0.00  0.00    +0.000 A 
ATOM      3  N   UNL     1       4.382   6.311  18.258  0.00  0.00    +0.000 N 
ATOM      4  C   UNL     1       3.604   5.538  19.095  0.00  0.00    +0.000 A 
ATOM      5  C   UNL     1       3.894   4.361  19.809  0.00  0.00    +0.000 A 
ATOM      6  C   UNL     1       2.892   3.810  20.612  0.00  0.00    +0.000 A 
ATOM      7  C   UNL     1       1.640   4.410  20.705  0.00  0.00    +0.000 A 
ATOM      8  C   UNL     1       1.361   5.578  19.990  0.00  0.00    +0.000 A 
ATOM      9  C   UNL     1       2.350   6.155  19.168  0.00  0.00    +0.000 A 
ENDROOT
BRANCH   1  10
ATOM     10  C   UNL     1       1.258   8.271  18.065  0.00  0.00    +0.000 C 
BRANCH  10  12
ATOM     11  N   UNL     1       0.974  10.704  18.680  0.00  0.00    +0.000 N 
ATOM     12  C   UNL     1       1.717   9.732  17.988  0.00  0.00    +0.000 C 
ATOM     13  O   UNL     1       2.691  10.039  17.296  0.00  0.00    +0.000 OA
BRANCH  11  15
ATOM     14  C   UNL     1       0.253  13.128  18.364  0.00  0.00    +0.000 C 
ATOM     15  C   UNL     1       1.383  12.130  18.650  0.00  0.00    +0.000 C 
ATOM     16  C   UNL     1       2.145  12.534  19.914  0.00  0.00    +0.000 C 
ENDBRANCH  11  15
BRANCH  11  17
ATOM     17  C   UNL     1      -0.371  10.427  19.205  0.00  0.00    +0.000 C 
BRANCH  17  18
ATOM     18  C   UNL     1      -0.442  10.369  20.713  0.00  0.00    +0.000 A 
ATOM     19  C   UNL     1      -1.029  11.391  21.465  0.00  0.00    +0.000 A 
ATOM     20  C   UNL     1      -1.055  11.278  22.847  0.00  0.00    +0.000 A 
ATOM     21  N   UNL     1      -0.556  10.224  23.523  0.00  0.00    +0.000 NA
ATOM     22  C   UNL     1      -0.017   9.232  22.785  0.00  0.00    +0.000 A 
ATOM     23  C   UNL     1       0.052   9.252  21.400  0.00  0.00    +0.000 A 
ENDBRANCH  17  18
ENDBRANCH  11  17
ENDBRANCH  10  12
ENDBRANCH   1  10
BRANCH   3  24
ATOM     24  C   UNL     1       5.790   6.082  17.940  0.00  0.00    +0.000 C 
BRANCH  24  25
ATOM     25  C   UNL     1       5.935   5.331  16.637  0.00  0.00    +0.000 A 
ATOM     26  C   UNL     1       7.048   5.539  15.810  0.00  0.00    +0.000 A 
ATOM     27  C   UNL     1       7.119   4.944  14.549  0.00  0.00    +0.000 A 
ATOM     28  C   UNL     1       6.078   4.128  14.111  0.00  0.00    +0.000 A 
ATOM     29 BR   UNL     1       6.135   3.389  12.372  0.00  0.00    +0.000 Br
ATOM     30  C   UNL     1       4.985   3.875  14.935  0.00  0.00    +0.000 A 
ATOM     31  C   UNL     1       4.913   4.473  16.195  0.00  0.00    +0.000 A 
ENDBRANCH  24  25
ENDBRANCH   3  24
TORSDOF 7
ENDMDL
MODEL 7
REMARK VINA RESULT:      -7.7      3.482      8.842
REMARK  Name = 
REMARK  9 active torsions:
REMARK  status: ('A' for Active; 'I' for Inactive)
REMARK    1  A    between atoms: C_1  and  C_2
REMARK    2  A    between atoms: C_2  and  C_3
REMARK    3  A    between atoms: C_2  and  N_4
REMARK    4  A    between atoms: N_4  and  C_5
REMARK    5  A    between atoms: C_5  and  C_6
REMARK    6  A    between atoms: C_12  and  C_14
REMARK    7  A    between atoms: C_14  and  C_15
REMARK    8  A    between atoms: N_17  and  C_18
REMARK    9  A    between atoms: C_18  and  C_19
REMARK                            x       y       z     vdW  Elec       q    Type
REMARK                         _______ _______ _______ _____ _____    ______ ____
ROOT
ATOM      1  C   UNL     1       1.254   8.705  19.238  0.00  0.00    +0.000 A 
ATOM      2  C   UNL     1       0.906   9.701  18.346  0.00  0.00    +0.000 A 
ATOM      3  N   UNL     1       0.222  10.676  19.023  0.00  0.00    +0.000 N 
ATOM      4  C   UNL     1       0.182  10.380  20.370  0.00  0.00    +0.000 A 
ATOM      5  C   UNL     1      -0.359  11.085  21.461  0.00  0.00    +0.000 A 
ATOM      6  C   UNL     1      -0.270  10.510  22.731  0.00  0.00    +0.000 A 
ATOM      7  C   UNL     1       0.338   9.271  22.914  0.00  0.00    +0.000 A 
ATOM      8  C   UNL     1       0.875   8.580  21.824  0.00  0.00    +0.000 A 
ATOM      9  C   UNL     1       0.804   9.137  20.531  0.00  0.00    +0.000 A 
ENDROOT
BRANCH   1  10
ATOM     10  C   UNL     1       1.991   7.436  18.923  0.00  0.00    +0.000 C 
BRANCH  10  12
ATOM     11  N   UNL     1       4.193   6.708  17.923  0.00  0.00    +0.000 N 
ATOM     12  C   UNL     1       3.137   7.635  17.923  0.00  0.00    +0.000 C 
ATOM     13  O   UNL     1       3.139   8.614  17.173  0.00  0.00    +0.000 OA
BRANCH  11  15
ATOM     14  C   UNL     1       6.715   6.634  17.565  0.00  0.00    +0.000 C 
ATOM     15  C   UNL     1       5.319   6.847  16.966  0.00  0.00    +0.000 C 
ATOM     16  C   UNL     1       5.130   5.967  15.727  0.00  0.00    +0.000 C 
ENDBRANCH  11  15
BRANCH  11  17
ATOM     17  C   UNL     1       4.394   5.757  19.026  0.00  0.00    +0.000 C 
BRANCH  17  18
ATOM     18  C   UNL     1       3.899   4.360  18.731  0.00  0.00    +0.000 A 
ATOM     19  C   UNL     1       2.923   4.112  17.760  0.00  0.00    +0.000 A 
ATOM     20  C   UNL     1       2.508   2.807  17.544  0.00  0.00    +0.000 A 
ATOM     21  N   UNL     1       3.001   1.742  18.211  0.00  0.00    +0.000 NA
ATOM     22  C   UNL     1       3.960   1.993  19.125  0.00  0.00    +0.000 A 
ATOM     23  C   UNL     1       4.442   3.261  19.409  0.00  0.00    +0.000 A 
ENDBRANCH  17  18
ENDBRANCH  11  17
ENDBRANCH  10  12
ENDBRANCH   1  10
BRANCH   3  24
ATOM     24  C   UNL     1      -0.368  11.851  18.384  0.00  0.00    +0.000 C 
BRANCH  24  25
ATOM     25  C   UNL     1      -1.872  11.727  18.309  0.00  0.00    +0.000 A 
ATOM     26  C   UNL     1      -2.690  12.369  19.250  0.00  0.00    +0.000 A 
ATOM     27  C   UNL     1      -4.070  12.151  19.259  0.00  0.00    +0.000 A 
ATOM     28  C   UNL     1      -4.640  11.295  18.319  0.00  0.00    +0.000 A 
ATOM     29 BR   UNL     1      -6.494  10.935  18.382  0.00  0.00    +0.000 Br
ATOM     30  C   UNL     1      -3.848  10.683  17.350  0.00  0.00    +0.000 A 
ATOM     31  C   UNL     1      -2.469  10.899  17.344  0.00  0.00    +0.000 A 
ENDBRANCH  24  25
ENDBRANCH   3  24
TORSDOF 7
ENDMDL
MODEL 8
REMARK VINA RESULT:      -7.7      3.417      8.758
REMARK  Name = 
REMARK  9 active torsions:
REMARK  status: ('A' for Active; 'I' for Inactive)
REMARK    1  A    between atoms: C_1  and  C_2
REMARK    2  A    between atoms: C_2  and  C_3
REMARK    3  A    between atoms: C_2  and  N_4
REMARK    4  A    between atoms: N_4  and  C_5
REMARK    5  A    between atoms: C_5  and  C_6
REMARK    6  A    between atoms: C_12  and  C_14
REMARK    7  A    between atoms: C_14  and  C_15
REMARK    8  A    between atoms: N_17  and  C_18
REMARK    9  A    between atoms: C_18  and  C_19
REMARK                            x       y       z     vdW  Elec       q    Type
REMARK                         _______ _______ _______ _____ _____    ______ ____
ROOT
ATOM      1  C   UNL     1       1.584   8.687  19.704  0.00  0.00    +0.000 A 
ATOM      2  C   UNL     1       1.170   9.485  18.655  0.00  0.00    +0.000 A 
ATOM      3  N   UNL     1       0.252  10.386  19.126  0.00  0.00    +0.000 N 
ATOM      4  C   UNL     1       0.110  10.249  20.492  0.00  0.00    +0.000 A 
ATOM      5  C   UNL     1      -0.669  10.963  21.421  0.00  0.00    +0.000 A 
ATOM      6  C   UNL     1      -0.625  10.570  22.762  0.00  0.00    +0.000 A 
ATOM      7  C   UNL     1       0.166   9.500  23.168  0.00  0.00    +0.000 A 
ATOM      8  C   UNL     1       0.939   8.799  22.237  0.00  0.00    +0.000 A 
ATOM      9  C   UNL     1       0.919   9.175  20.879  0.00  0.00    +0.000 A 
ENDROOT
BRANCH   1  10
ATOM     10  C   UNL     1       2.565   7.552  19.635  0.00  0.00    +0.000 C 
BRANCH  10  12
ATOM     11  N   UNL     1       2.311   5.093  19.120  0.00  0.00    +0.000 N 
ATOM     12  C   UNL     1       1.928   6.185  19.916  0.00  0.00    +0.000 C 
ATOM     13  O   UNL     1       1.069   6.072  20.794  0.00  0.00    +0.000 OA
BRANCH  11  15
ATOM     14  C   UNL     1       1.687   2.829  18.129  0.00  0.00    +0.000 C 
ATOM     15  C   UNL     1       1.735   3.746  19.358  0.00  0.00    +0.000 C 
ATOM     16  C   UNL     1       2.413   3.032  20.530  0.00  0.00    +0.000 C 
ENDBRANCH  11  15
BRANCH  11  17
ATOM     17  C   UNL     1       3.045   5.269  17.858  0.00  0.00    +0.000 C 
BRANCH  17  18
ATOM     18  C   UNL     1       4.510   5.589  18.039  0.00  0.00    +0.000 A 
ATOM     19  C   UNL     1       5.268   5.024  19.069  0.00  0.00    +0.000 A 
ATOM     20  C   UNL     1       6.607   5.366  19.183  0.00  0.00    +0.000 A 
ATOM     21  N   UNL     1       7.240   6.212  18.344  0.00  0.00    +0.000 NA
ATOM     22  C   UNL     1       6.504   6.730  17.340  0.00  0.00    +0.000 A 
ATOM     23  C   UNL     1       5.161   6.445  17.141  0.00  0.00    +0.000 A 
ENDBRANCH  17  18
ENDBRANCH  11  17
ENDBRANCH  10  12
ENDBRANCH   1  10
BRANCH   3  24
ATOM     24  C   UNL     1      -0.459  11.343  18.281  0.00  0.00    +0.000 C 
BRANCH  24  25
ATOM     25  C   UNL     1      -1.954  11.166  18.403  0.00  0.00    +0.000 A 
ATOM     26  C   UNL     1      -2.602  10.091  17.777  0.00  0.00    +0.000 A 
ATOM     27  C   UNL     1      -3.995  10.000  17.781  0.00  0.00    +0.000 A 
ATOM     28  C   UNL     1      -4.749  10.981  18.421  0.00  0.00    +0.000 A 
ATOM     29 BR   UNL     1      -6.637  10.903  18.356  0.00  0.00    +0.000 Br
ATOM     30  C   UNL     1      -4.123  12.033  19.085  0.00  0.00    +0.000 A 
ATOM     31  C   UNL     1      -2.729  12.125  19.077  0.00  0.00    +0.000 A 
ENDBRANCH  24  25
ENDBRANCH   3  24
TORSDOF 7
ENDMDL
MODEL 9
REMARK VINA RESULT:      -7.7      3.267      8.837
REMARK  Name = 
REMARK  9 active torsions:
REMARK  status: ('A' for Active; 'I' for Inactive)
REMARK    1  A    between atoms: C_1  and  C_2
REMARK    2  A    between atoms: C_2  and  C_3
REMARK    3  A    between atoms: C_2  and  N_4
REMARK    4  A    between atoms: N_4  and  C_5
REMARK    5  A    between atoms: C_5  and  C_6
REMARK    6  A    between atoms: C_12  and  C_14
REMARK    7  A    between atoms: C_14  and  C_15
REMARK    8  A    between atoms: N_17  and  C_18
REMARK    9  A    between atoms: C_18  and  C_19
REMARK                            x       y       z     vdW  Elec       q    Type
REMARK                         _______ _______ _______ _____ _____    ______ ____
ROOT
ATOM      1  C   UNL     1       1.442   8.837  19.774  0.00  0.00    +0.000 A 
ATOM      2  C   UNL     1       1.074   9.673  18.738  0.00  0.00    +0.000 A 
ATOM      3  N   UNL     1       0.170  10.586  19.213  0.00  0.00    +0.000 N 
ATOM      4  C   UNL     1      -0.007  10.419  20.570  0.00  0.00    +0.000 A 
ATOM      5  C   UNL     1      -0.787  11.129  21.501  0.00  0.00    +0.000 A 
ATOM      6  C   UNL     1      -0.785  10.700  22.831  0.00  0.00    +0.000 A 
ATOM      7  C   UNL     1      -0.032   9.599  23.226  0.00  0.00    +0.000 A 
ATOM      8  C   UNL     1       0.742   8.901  22.294  0.00  0.00    +0.000 A 
ATOM      9  C   UNL     1       0.764   9.313  20.947  0.00  0.00    +0.000 A 
ENDROOT
BRANCH   1  10
ATOM     10  C   UNL     1       2.393   7.678  19.697  0.00  0.00    +0.000 C 
BRANCH  10  12
ATOM     11  N   UNL     1       2.065   5.208  19.285  0.00  0.00    +0.000 N 
ATOM     12  C   UNL     1       1.741   6.337  20.056  0.00  0.00    +0.000 C 
ATOM     13  O   UNL     1       0.921   6.275  20.975  0.00  0.00    +0.000 OA
BRANCH  11  15
ATOM     14  C   UNL     1       1.212   2.981  18.385  0.00  0.00    +0.000 C 
ATOM     15  C   UNL     1       1.473   3.884  19.598  0.00  0.00    +0.000 C 
ATOM     16  C   UNL     1       2.280   3.132  20.659  0.00  0.00    +0.000 C 
ENDBRANCH  11  15
BRANCH  11  17
ATOM     17  C   UNL     1       2.745   5.322  17.986  0.00  0.00    +0.000 C 
BRANCH  17  18
ATOM     18  C   UNL     1       4.235   5.076  18.049  0.00  0.00    +0.000 A 
ATOM     19  C   UNL     1       4.972   5.300  19.216  0.00  0.00    +0.000 A 
ATOM     20  C   UNL     1       6.338   5.061  19.204  0.00  0.00    +0.000 A 
ATOM     21  N   UNL     1       7.010   4.606  18.127  0.00  0.00    +0.000 NA
ATOM     22  C   UNL     1       6.283   4.368  17.016  0.00  0.00    +0.000 A 
ATOM     23  C   UNL     1       4.915   4.573  16.932  0.00  0.00    +0.000 A 
ENDBRANCH  17  18
ENDBRANCH  11  17
ENDBRANCH  10  12
ENDBRANCH   1  10
BRANCH   3  24
ATOM     24  C   UNL     1      -0.495  11.584  18.377  0.00  0.00    +0.000 C 
BRANCH  24  25
ATOM     25  C   UNL     1      -1.987  11.351  18.340  0.00  0.00    +0.000 A 
ATOM     26  C   UNL     1      -2.868  12.247  18.963  0.00  0.00    +0.000 A 
ATOM     27  C   UNL     1      -4.233  11.964  19.040  0.00  0.00    +0.000 A 
ATOM     28  C   UNL     1      -4.727  10.786  18.485  0.00  0.00    +0.000 A 
ATOM     29 BR   UNL     1      -6.562  10.364  18.662  0.00  0.00    +0.000 Br
ATOM     30  C   UNL     1      -3.875   9.905  17.824  0.00  0.00    +0.000 A 
ATOM     31  C   UNL     1      -2.509  10.187  17.751  0.00  0.00    +0.000 A 
ENDBRANCH  24  25
ENDBRANCH   3  24
TORSDOF 7
ENDMDL
