MODEL 1
REMARK VINA RESULT:      -6.1      0.000      0.000
REMARK  Name = 
REMARK  4 active torsions:
REMARK  status: ('A' for Active; 'I' for Inactive)
REMARK    1  A    between atoms: C_1  and  C_2
REMARK    2  A    between atoms: C_12  and  O_13
REMARK    3  A    between atoms: O_13  and  C_14
REMARK    4  A    between atoms: C_24  and  C_25
REMARK                            x       y       z     vdW  Elec       q    Type
REMARK                         _______ _______ _______ _____ _____    ______ ____
ROOT
ATOM      1  C   UNL     1       2.469  15.424  18.107  0.00  0.00    +0.000 C 
ATOM      2  C   UNL     1       1.477  14.373  18.488  0.00  0.00    +0.000 A 
ATOM      3  S   UNL     1      -0.124  14.805  18.878  0.00  0.00    +0.000 S 
ATOM      4  C   UNL     1      -0.563  13.188  19.167  0.00  0.00    +0.000 A 
ATOM      5  N   UNL     1      -1.816  12.901  19.561  0.00  0.00    +0.000 NA
ATOM      6  C   UNL     1      -1.991  11.595  19.763  0.00  0.00    +0.000 A 
ATOM      7  N   UNL     1      -1.092  10.618  19.607  0.00  0.00    +0.000 NA
ATOM      8  C   UNL     1       0.163  10.931  19.198  0.00  0.00    +0.000 A 
ATOM      9  N   UNL     1       1.123   9.919  19.091  0.00  0.00    +0.000 N 
ATOM     10  C   UNL     1       0.913   8.813  20.028  0.00  0.00    +0.000 C 
ATOM     11  C   UNL     1       2.216   8.021  20.086  0.00  0.00    +0.000 C 
ATOM     12  C   UNL     1       2.618   7.515  18.694  0.00  0.00    +0.000 C 
ATOM     13  C   UNL     1       2.603   8.643  17.655  0.00  0.00    +0.000 C 
ATOM     14  C   UNL     1       1.310   9.461  17.709  0.00  0.00    +0.000 C 
ATOM     15  C   UNL     1       0.477  12.296  18.963  0.00  0.00    +0.000 A 
ATOM     16  C   UNL     1       1.693  13.004  18.580  0.00  0.00    +0.000 A 
ATOM     17  C   UNL     1       3.035  12.399  18.314  0.00  0.00    +0.000 C 
ENDROOT
BRANCH  12  18
ATOM     18  O   UNL     1       1.706   6.498  18.250  0.00  0.00    +0.000 OA
BRANCH  18  19
ATOM     19  C   UNL     1       2.134   5.205  18.288  0.00  0.00    +0.000 A 
ATOM     20  C   UNL     1       3.301   4.939  17.574  0.00  0.00    +0.000 A 
ATOM     21  C   UNL     1       3.823   3.647  17.559  0.00  0.00    +0.000 A 
ATOM     22  C   UNL     1       3.147   2.666  18.263  0.00  0.00    +0.000 A 
ATOM     23 CL   UNL     1       3.725   1.054  18.312  0.00  0.00    +0.000 Cl
ATOM     24  N   UNL     1       2.011   2.873  18.956  0.00  0.00    +0.000 NA
ATOM     25  C   UNL     1       1.531   4.138  18.948  0.00  0.00    +0.000 A 
ENDBRANCH  18  19
ENDBRANCH  12  18
TORSDOF 2
ENDMDL
MODEL 2
REMARK VINA RESULT:      -6.0      5.650      7.939
REMARK  Name = 
REMARK  4 active torsions:
REMARK  status: ('A' for Active; 'I' for Inactive)
REMARK    1  A    between atoms: C_1  and  C_2
REMARK    2  A    between atoms: C_12  and  O_13
REMARK    3  A    between atoms: O_13  and  C_14
REMARK    4  A    between atoms: C_24  and  C_25
REMARK                            x       y       z     vdW  Elec       q    Type
REMARK                         _______ _______ _______ _____ _____    ______ ____
ROOT
ATOM      1  C   UNL     1      -6.711  12.751  20.279  0.00  0.00    +0.000 C 
ATOM      2  C   UNL     1      -5.695  12.254  19.302  0.00  0.00    +0.000 A 
ATOM      3  S   UNL     1      -6.186  11.630  17.795  0.00  0.00    +0.000 S 
ATOM      4  C   UNL     1      -4.583  11.315  17.325  0.00  0.00    +0.000 A 
ATOM      5  N   UNL     1      -4.340  10.752  16.129  0.00  0.00    +0.000 NA
ATOM      6  C   UNL     1      -3.038  10.553  15.923  0.00  0.00    +0.000 A 
ATOM      7  N   UNL     1      -2.027  10.856  16.743  0.00  0.00    +0.000 NA
ATOM      8  C   UNL     1      -2.295  11.434  17.941  0.00  0.00    +0.000 A 
ATOM      9  N   UNL     1      -1.246  11.698  18.828  0.00  0.00    +0.000 N 
ATOM     10  C   UNL     1      -0.125  10.764  18.700  0.00  0.00    +0.000 C 
ATOM     11  C   UNL     1       0.724  10.909  19.960  0.00  0.00    +0.000 C 
ATOM     12  C   UNL     1       1.209  12.354  20.136  0.00  0.00    +0.000 C 
ATOM     13  C   UNL     1       0.054  13.357  20.027  0.00  0.00    +0.000 C 
ATOM     14  C   UNL     1      -0.817  13.102  18.795  0.00  0.00    +0.000 C 
ATOM     15  C   UNL     1      -3.652  11.683  18.283  0.00  0.00    +0.000 A 
ATOM     16  C   UNL     1      -4.316  12.221  19.464  0.00  0.00    +0.000 A 
ATOM     17  C   UNL     1      -3.661  12.689  20.725  0.00  0.00    +0.000 C 
ENDROOT
BRANCH  12  18
ATOM     18  O   UNL     1       2.173  12.683  19.124  0.00  0.00    +0.000 OA
BRANCH  18  19
ATOM     19  C   UNL     1       2.948  13.785  19.324  0.00  0.00    +0.000 A 
ATOM     20  C   UNL     1       3.096  14.623  18.219  0.00  0.00    +0.000 A 
ATOM     21  C   UNL     1       3.864  15.781  18.327  0.00  0.00    +0.000 A 
ATOM     22  C   UNL     1       4.461  16.052  19.546  0.00  0.00    +0.000 A 
ATOM     23 CL   UNL     1       5.409  17.461  19.772  0.00  0.00    +0.000 Cl
ATOM     24  N   UNL     1       4.357  15.267  20.635  0.00  0.00    +0.000 NA
ATOM     25  C   UNL     1       3.606  14.151  20.495  0.00  0.00    +0.000 A 
ENDBRANCH  18  19
ENDBRANCH  12  18
TORSDOF 2
ENDMDL
MODEL 3
REMARK VINA RESULT:      -5.9      2.282      3.758
REMARK  Name = 
REMARK  4 active torsions:
REMARK  status: ('A' for Active; 'I' for Inactive)
REMARK    1  A    between atoms: C_1  and  C_2
REMARK    2  A    between atoms: C_12  and  O_13
REMARK    3  A    between atoms: O_13  and  C_14
REMARK    4  A    between atoms: C_24  and  C_25
REMARK                            x       y       z     vdW  Elec       q    Type
REMARK                         _______ _______ _______ _____ _____    ______ ____
ROOT
ATOM      1  C   UNL     1      -5.757  12.261  17.218  0.00  0.00    +0.000 C 
ATOM      2  C   UNL     1      -4.734  12.264  18.308  0.00  0.00    +0.000 A 
ATOM      3  S   UNL     1      -5.111  12.913  19.837  0.00  0.00    +0.000 S 
ATOM      4  C   UNL     1      -3.561  12.565  20.443  0.00  0.00    +0.000 A 
ATOM      5  N   UNL     1      -3.251  12.904  21.707  0.00  0.00    +0.000 NA
ATOM      6  C   UNL     1      -1.997  12.582  22.019  0.00  0.00    +0.000 A 
ATOM      7  N   UNL     1      -1.090  11.982  21.241  0.00  0.00    +0.000 NA
ATOM      8  C   UNL     1      -1.429  11.639  19.972  0.00  0.00    +0.000 A 
ATOM      9  N   UNL     1      -0.467  11.067  19.134  0.00  0.00    +0.000 N 
ATOM     10  C   UNL     1       0.900  11.498  19.436  0.00  0.00    +0.000 C 
ATOM     11  C   UNL     1       1.760  11.138  18.227  0.00  0.00    +0.000 C 
ATOM     12  C   UNL     1       1.694   9.634  17.930  0.00  0.00    +0.000 C 
ATOM     13  C   UNL     1       0.246   9.135  17.853  0.00  0.00    +0.000 C 
ATOM     14  C   UNL     1      -0.591   9.606  19.045  0.00  0.00    +0.000 C 
ATOM     15  C   UNL     1      -2.740  11.946  19.516  0.00  0.00    +0.000 A 
ATOM     16  C   UNL     1      -3.431  11.787  18.242  0.00  0.00    +0.000 A 
ATOM     17  C   UNL     1      -2.869  11.202  16.985  0.00  0.00    +0.000 C 
ENDROOT
BRANCH  12  18
ATOM     18  O   UNL     1       2.359   8.891  18.963  0.00  0.00    +0.000 OA
BRANCH  18  19
ATOM     19  C   UNL     1       2.739   7.614  18.679  0.00  0.00    +0.000 A 
ATOM     20  C   UNL     1       3.606   7.473  17.597  0.00  0.00    +0.000 A 
ATOM     21  C   UNL     1       4.058   6.206  17.233  0.00  0.00    +0.000 A 
ATOM     22  C   UNL     1       3.617   5.123  17.973  0.00  0.00    +0.000 A 
ATOM     23 CL   UNL     1       4.134   3.531  17.606  0.00  0.00    +0.000 Cl
ATOM     24  N   UNL     1       2.771   5.209  19.017  0.00  0.00    +0.000 NA
ATOM     25  C   UNL     1       2.350   6.453  19.341  0.00  0.00    +0.000 A 
ENDBRANCH  18  19
ENDBRANCH  12  18
TORSDOF 2
ENDMDL
MODEL 4
REMARK VINA RESULT:      -5.9      2.768      4.557
REMARK  Name = 
REMARK  4 active torsions:
REMARK  status: ('A' for Active; 'I' for Inactive)
REMARK    1  A    between atoms: C_1  and  C_2
REMARK    2  A    between atoms: C_12  and  O_13
REMARK    3  A    between atoms: O_13  and  C_14
REMARK    4  A    between atoms: C_24  and  C_25
REMARK                            x       y       z     vdW  Elec       q    Type
REMARK                         _______ _______ _______ _____ _____    ______ ____
ROOT
ATOM      1  C   UNL     1      -6.695  12.415  17.417  0.00  0.00    +0.000 C 
ATOM      2  C   UNL     1      -5.707  12.509  18.535  0.00  0.00    +0.000 A 
ATOM      3  S   UNL     1      -6.179  13.136  20.047  0.00  0.00    +0.000 S 
ATOM      4  C   UNL     1      -4.624  12.921  20.699  0.00  0.00    +0.000 A 
ATOM      5  N   UNL     1      -4.378  13.293  21.967  0.00  0.00    +0.000 NA
ATOM      6  C   UNL     1      -3.111  13.077  22.317  0.00  0.00    +0.000 A 
ATOM      7  N   UNL     1      -2.137  12.548  21.569  0.00  0.00    +0.000 NA
ATOM      8  C   UNL     1      -2.411  12.169  20.296  0.00  0.00    +0.000 A 
ATOM      9  N   UNL     1      -1.382  11.671  19.489  0.00  0.00    +0.000 N 
ATOM     10  C   UNL     1      -0.064  12.215  19.824  0.00  0.00    +0.000 C 
ATOM     11  C   UNL     1       0.856  11.918  18.643  0.00  0.00    +0.000 C 
ATOM     12  C   UNL     1       0.922  10.412  18.358  0.00  0.00    +0.000 C 
ATOM     13  C   UNL     1      -0.478   9.795  18.247  0.00  0.00    +0.000 C 
ATOM     14  C   UNL     1      -1.384  10.205  19.410  0.00  0.00    +0.000 C 
ATOM     15  C   UNL     1      -3.729  12.364  19.800  0.00  0.00    +0.000 A 
ATOM     16  C   UNL     1      -4.369  12.140  18.509  0.00  0.00    +0.000 A 
ATOM     17  C   UNL     1      -3.726  11.595  17.274  0.00  0.00    +0.000 C 
ENDROOT
BRANCH  12  18
ATOM     18  O   UNL     1       1.616   9.734  19.417  0.00  0.00    +0.000 OA
BRANCH  18  19
ATOM     19  C   UNL     1       2.064   8.470  19.171  0.00  0.00    +0.000 A 
ATOM     20  C   UNL     1       2.704   8.289  17.946  0.00  0.00    +0.000 A 
ATOM     21  C   UNL     1       3.206   7.034  17.607  0.00  0.00    +0.000 A 
ATOM     22  C   UNL     1       3.040   6.003  18.514  0.00  0.00    +0.000 A 
ATOM     23 CL   UNL     1       3.639   4.431  18.186  0.00  0.00    +0.000 Cl
ATOM     24  N   UNL     1       2.419   6.127  19.702  0.00  0.00    +0.000 NA
ATOM     25  C   UNL     1       1.943   7.358  19.999  0.00  0.00    +0.000 A 
ENDBRANCH  18  19
ENDBRANCH  12  18
TORSDOF 2
ENDMDL
MODEL 5
REMARK VINA RESULT:      -5.9      2.923      4.277
REMARK  Name = 
REMARK  4 active torsions:
REMARK  status: ('A' for Active; 'I' for Inactive)
REMARK    1  A    between atoms: C_1  and  C_2
REMARK    2  A    between atoms: C_12  and  O_13
REMARK    3  A    between atoms: O_13  and  C_14
REMARK    4  A    between atoms: C_24  and  C_25
REMARK                            x       y       z     vdW  Elec       q    Type
REMARK                         _______ _______ _______ _____ _____    ______ ____
ROOT
ATOM      1  C   UNL     1      -3.945  14.148  23.801  0.00  0.00    +0.000 C 
ATOM      2  C   UNL     1      -2.548  14.156  23.269  0.00  0.00    +0.000 A 
ATOM      3  S   UNL     1      -1.531  15.494  23.548  0.00  0.00    +0.000 S 
ATOM      4  C   UNL     1      -0.243  14.781  22.697  0.00  0.00    +0.000 A 
ATOM      5  N   UNL     1       0.915  15.450  22.562  0.00  0.00    +0.000 NA
ATOM      6  C   UNL     1       1.811  14.764  21.854  0.00  0.00    +0.000 A 
ATOM      7  N   UNL     1       1.668  13.548  21.317  0.00  0.00    +0.000 NA
ATOM      8  C   UNL     1       0.494  12.887  21.476  0.00  0.00    +0.000 A 
ATOM      9  N   UNL     1       0.319  11.640  20.865  0.00  0.00    +0.000 N 
ATOM     10  C   UNL     1       1.085  11.484  19.627  0.00  0.00    +0.000 C 
ATOM     11  C   UNL     1       0.494  10.290  18.882  0.00  0.00    +0.000 C 
ATOM     12  C   UNL     1       0.546   9.021  19.743  0.00  0.00    +0.000 C 
ATOM     13  C   UNL     1      -0.045   9.258  21.138  0.00  0.00    +0.000 C 
ATOM     14  C   UNL     1       0.516  10.522  21.796  0.00  0.00    +0.000 C 
ATOM     15  C   UNL     1      -0.548  13.524  22.201  0.00  0.00    +0.000 A 
ATOM     16  C   UNL     1      -1.924  13.164  22.524  0.00  0.00    +0.000 A 
ATOM     17  C   UNL     1      -2.637  11.910  22.130  0.00  0.00    +0.000 C 
ENDROOT
BRANCH  12  18
ATOM     18  O   UNL     1       1.905   8.587  19.911  0.00  0.00    +0.000 OA
BRANCH  18  19
ATOM     19  C   UNL     1       2.239   7.356  19.433  0.00  0.00    +0.000 A 
ATOM     20  C   UNL     1       1.952   6.286  20.279  0.00  0.00    +0.000 A 
ATOM     21  C   UNL     1       2.249   4.986  19.876  0.00  0.00    +0.000 A 
ATOM     22  C   UNL     1       2.829   4.809  18.632  0.00  0.00    +0.000 A 
ATOM     23 CL   UNL     1       3.213   3.244  18.049  0.00  0.00    +0.000 Cl
ATOM     24  N   UNL     1       3.135   5.811  17.786  0.00  0.00    +0.000 NA
ATOM     25  C   UNL     1       2.835   7.060  18.210  0.00  0.00    +0.000 A 
ENDBRANCH  18  19
ENDBRANCH  12  18
TORSDOF 2
ENDMDL
MODEL 6
REMARK VINA RESULT:      -5.9      2.358      3.655
REMARK  Name = 
REMARK  4 active torsions:
REMARK  status: ('A' for Active; 'I' for Inactive)
REMARK    1  A    between atoms: C_1  and  C_2
REMARK    2  A    between atoms: C_12  and  O_13
REMARK    3  A    between atoms: O_13  and  C_14
REMARK    4  A    between atoms: C_24  and  C_25
REMARK                            x       y       z     vdW  Elec       q    Type
REMARK                         _______ _______ _______ _____ _____    ______ ____
ROOT
ATOM      1  C   UNL     1      -1.281  17.202  19.115  0.00  0.00    +0.000 C 
ATOM      2  C   UNL     1      -0.029  16.414  18.901  0.00  0.00    +0.000 A 
ATOM      3  S   UNL     1       1.423  17.205  18.492  0.00  0.00    +0.000 S 
ATOM      4  C   UNL     1       2.285  15.741  18.433  0.00  0.00    +0.000 A 
ATOM      5  N   UNL     1       3.590  15.751  18.109  0.00  0.00    +0.000 NA
ATOM      6  C   UNL     1       4.111  14.525  18.088  0.00  0.00    +0.000 A 
ATOM      7  N   UNL     1       3.491  13.370  18.355  0.00  0.00    +0.000 NA
ATOM      8  C   UNL     1       2.177  13.386  18.690  0.00  0.00    +0.000 A 
ATOM      9  N   UNL     1       1.509  12.176  18.911  0.00  0.00    +0.000 N 
ATOM     10  C   UNL     1       2.054  11.059  18.137  0.00  0.00    +0.000 C 
ATOM     11  C   UNL     1       1.008   9.948  18.157  0.00  0.00    +0.000 C 
ATOM     12  C   UNL     1       0.674   9.529  19.595  0.00  0.00    +0.000 C 
ATOM     13  C   UNL     1       0.334  10.740  20.473  0.00  0.00    +0.000 C 
ATOM     14  C   UNL     1       1.370  11.859  20.338  0.00  0.00    +0.000 C 
ATOM     15  C   UNL     1       1.503  14.636  18.732  0.00  0.00    +0.000 A 
ATOM     16  C   UNL     1       0.125  15.037  18.989  0.00  0.00    +0.000 A 
ATOM     17  C   UNL     1      -1.025  14.134  19.304  0.00  0.00    +0.000 C 
ENDROOT
BRANCH  12  18
ATOM     18  O   UNL     1       1.793   8.855  20.192  0.00  0.00    +0.000 OA
BRANCH  18  19
ATOM     19  C   UNL     1       1.947   7.528  19.925  0.00  0.00    +0.000 A 
ATOM     20  C   UNL     1       2.557   7.228  18.708  0.00  0.00    +0.000 A 
ATOM     21  C   UNL     1       2.767   5.898  18.349  0.00  0.00    +0.000 A 
ATOM     22  C   UNL     1       2.350   4.915  19.229  0.00  0.00    +0.000 A 
ATOM     23 CL   UNL     1       2.582   3.255  18.876  0.00  0.00    +0.000 Cl
ATOM     24  N   UNL     1       1.746   5.156  20.408  0.00  0.00    +0.000 NA
ATOM     25  C   UNL     1       1.556   6.458  20.724  0.00  0.00    +0.000 A 
ENDBRANCH  18  19
ENDBRANCH  12  18
TORSDOF 2
ENDMDL
MODEL 7
REMARK VINA RESULT:      -5.8      2.761      4.443
REMARK  Name = 
REMARK  4 active torsions:
REMARK  status: ('A' for Active; 'I' for Inactive)
REMARK    1  A    between atoms: C_1  and  C_2
REMARK    2  A    between atoms: C_12  and  O_13
REMARK    3  A    between atoms: O_13  and  C_14
REMARK    4  A    between atoms: C_24  and  C_25
REMARK                            x       y       z     vdW  Elec       q    Type
REMARK                         _______ _______ _______ _____ _____    ______ ____
ROOT
ATOM      1  C   UNL     1      -4.598  15.466  23.067  0.00  0.00    +0.000 C 
ATOM      2  C   UNL     1      -3.494  15.360  22.066  0.00  0.00    +0.000 A 
ATOM      3  S   UNL     1      -2.937  16.748  21.252  0.00  0.00    +0.000 S 
ATOM      4  C   UNL     1      -1.784  15.857  20.376  0.00  0.00    +0.000 A 
ATOM      5  N   UNL     1      -0.999  16.483  19.483  0.00  0.00    +0.000 NA
ATOM      6  C   UNL     1      -0.167  15.643  18.870  0.00  0.00    +0.000 A 
ATOM      7  N   UNL     1      -0.049  14.325  19.063  0.00  0.00    +0.000 NA
ATOM      8  C   UNL     1      -0.845  13.716  19.978  0.00  0.00    +0.000 A 
ATOM      9  N   UNL     1      -0.768  12.329  20.141  0.00  0.00    +0.000 N 
ATOM     10  C   UNL     1      -0.377  11.618  18.921  0.00  0.00    +0.000 C 
ATOM     11  C   UNL     1      -0.730  10.148  19.127  0.00  0.00    +0.000 C 
ATOM     12  C   UNL     1      -0.023   9.578  20.364  0.00  0.00    +0.000 C 
ATOM     13  C   UNL     1      -0.237  10.464  21.598  0.00  0.00    +0.000 C 
ATOM     14  C   UNL     1       0.040  11.940  21.304  0.00  0.00    +0.000 C 
ATOM     15  C   UNL     1      -1.788  14.507  20.688  0.00  0.00    +0.000 A 
ATOM     16  C   UNL     1      -2.818  14.211  21.677  0.00  0.00    +0.000 A 
ATOM     17  C   UNL     1      -3.161  12.867  22.237  0.00  0.00    +0.000 C 
ENDROOT
BRANCH  12  18
ATOM     18  O   UNL     1       1.391   9.485  20.132  0.00  0.00    +0.000 OA
BRANCH  18  19
ATOM     19  C   UNL     1       1.866   8.337  19.573  0.00  0.00    +0.000 A 
ATOM     20  C   UNL     1       2.283   8.444  18.247  0.00  0.00    +0.000 A 
ATOM     21  C   UNL     1       2.792   7.326  17.589  0.00  0.00    +0.000 A 
ATOM     22  C   UNL     1       2.860   6.136  18.292  0.00  0.00    +0.000 A 
ATOM     23 CL   UNL     1       3.487   4.715  17.568  0.00  0.00    +0.000 Cl
ATOM     24  N   UNL     1       2.459   5.982  19.568  0.00  0.00    +0.000 NA
ATOM     25  C   UNL     1       1.968   7.086  20.175  0.00  0.00    +0.000 A 
ENDBRANCH  18  19
ENDBRANCH  12  18
TORSDOF 2
ENDMDL
MODEL 8
REMARK VINA RESULT:      -5.8      2.346      3.843
REMARK  Name = 
REMARK  4 active torsions:
REMARK  status: ('A' for Active; 'I' for Inactive)
REMARK    1  A    between atoms: C_1  and  C_2
REMARK    2  A    between atoms: C_12  and  O_13
REMARK    3  A    between atoms: O_13  and  C_14
REMARK    4  A    between atoms: C_24  and  C_25
REMARK                            x       y       z     vdW  Elec       q    Type
REMARK                         _______ _______ _______ _____ _____    ______ ____
ROOT
ATOM      1  C   UNL     1      -5.696  12.446  17.970  0.00  0.00    +0.000 C 
ATOM      2  C   UNL     1      -4.563  12.389  18.943  0.00  0.00    +0.000 A 
ATOM      3  S   UNL     1      -4.759  12.992  20.524  0.00  0.00    +0.000 S 
ATOM      4  C   UNL     1      -3.162  12.591  20.949  0.00  0.00    +0.000 A 
ATOM      5  N   UNL     1      -2.711  12.879  22.182  0.00  0.00    +0.000 NA
ATOM      6  C   UNL     1      -1.439  12.520  22.347  0.00  0.00    +0.000 A 
ATOM      7  N   UNL     1      -0.636  11.929  21.456  0.00  0.00    +0.000 NA
ATOM      8  C   UNL     1      -1.116  11.638  20.221  0.00  0.00    +0.000 A 
ATOM      9  N   UNL     1      -0.263  11.074  19.266  0.00  0.00    +0.000 N 
ATOM     10  C   UNL     1       1.138  11.466  19.433  0.00  0.00    +0.000 C 
ATOM     11  C   UNL     1       1.855  11.130  18.127  0.00  0.00    +0.000 C 
ATOM     12  C   UNL     1       1.720   9.639  17.790  0.00  0.00    +0.000 C 
ATOM     13  C   UNL     1       0.260   9.174  17.854  0.00  0.00    +0.000 C 
ATOM     14  C   UNL     1      -0.433   9.621  19.143  0.00  0.00    +0.000 C 
ATOM     15  C   UNL     1      -2.460  11.987  19.918  0.00  0.00    +0.000 A 
ATOM     16  C   UNL     1      -3.288  11.888  18.722  0.00  0.00    +0.000 A 
ATOM     17  C   UNL     1      -2.877  11.336  17.394  0.00  0.00    +0.000 C 
ENDROOT
BRANCH  12  18
ATOM     18  O   UNL     1       2.474   8.847  18.722  0.00  0.00    +0.000 OA
BRANCH  18  19
ATOM     19  C   UNL     1       2.933   7.637  18.296  0.00  0.00    +0.000 A 
ATOM     20  C   UNL     1       2.295   6.526  18.844  0.00  0.00    +0.000 A 
ATOM     21  C   UNL     1       2.689   5.245  18.465  0.00  0.00    +0.000 A 
ATOM     22  C   UNL     1       3.716   5.128  17.546  0.00  0.00    +0.000 A 
ATOM     23 CL   UNL     1       4.254   3.591  17.010  0.00  0.00    +0.000 Cl
ATOM     24  N   UNL     1       4.370   6.170  16.998  0.00  0.00    +0.000 NA
ATOM     25  C   UNL     1       3.964   7.399  17.390  0.00  0.00    +0.000 A 
ENDBRANCH  18  19
ENDBRANCH  12  18
TORSDOF 2
ENDMDL
MODEL 9
REMARK VINA RESULT:      -5.8      2.826      4.761
REMARK  Name = 
REMARK  4 active torsions:
REMARK  status: ('A' for Active; 'I' for Inactive)
REMARK    1  A    between atoms: C_1  and  C_2
REMARK    2  A    between atoms: C_12  and  O_13
REMARK    3  A    between atoms: O_13  and  C_14
REMARK    4  A    between atoms: C_24  and  C_25
REMARK                            x       y       z     vdW  Elec       q    Type
REMARK                         _______ _______ _______ _____ _____    ______ ____
ROOT
ATOM      1  C   UNL     1      -6.844  12.187  17.783  0.00  0.00    +0.000 C 
ATOM      2  C   UNL     1      -5.802  12.333  18.845  0.00  0.00    +0.000 A 
ATOM      3  S   UNL     1      -6.226  12.915  20.389  0.00  0.00    +0.000 S 
ATOM      4  C   UNL     1      -4.626  12.790  20.951  0.00  0.00    +0.000 A 
ATOM      5  N   UNL     1      -4.333  13.165  22.208  0.00  0.00    +0.000 NA
ATOM      6  C   UNL     1      -3.038  13.024  22.485  0.00  0.00    +0.000 A 
ATOM      7  N   UNL     1      -2.077  12.563  21.678  0.00  0.00    +0.000 NA
ATOM      8  C   UNL     1      -2.398  12.180  20.416  0.00  0.00    +0.000 A 
ATOM      9  N   UNL     1      -1.387  11.754  19.548  0.00  0.00    +0.000 N 
ATOM     10  C   UNL     1      -0.088  12.374  19.817  0.00  0.00    +0.000 C 
ATOM     11  C   UNL     1       0.781  12.145  18.583  0.00  0.00    +0.000 C 
ATOM     12  C   UNL     1       0.922  10.648  18.276  0.00  0.00    +0.000 C 
ATOM     13  C   UNL     1      -0.442   9.948  18.234  0.00  0.00    +0.000 C 
ATOM     14  C   UNL     1      -1.304  10.291  19.451  0.00  0.00    +0.000 C 
ATOM     15  C   UNL     1      -3.751  12.298  19.997  0.00  0.00    +0.000 A 
ATOM     16  C   UNL     1      -4.447  12.047  18.741  0.00  0.00    +0.000 A 
ATOM     17  C   UNL     1      -3.842  11.553  17.465  0.00  0.00    +0.000 C 
ENDROOT
BRANCH  12  18
ATOM     18  O   UNL     1       1.715  10.005  19.286  0.00  0.00    +0.000 OA
BRANCH  18  19
ATOM     19  C   UNL     1       2.039   8.695  19.095  0.00  0.00    +0.000 A 
ATOM     20  C   UNL     1       1.762   7.847  20.167  0.00  0.00    +0.000 A 
ATOM     21  C   UNL     1       2.049   6.487  20.065  0.00  0.00    +0.000 A 
ATOM     22  C   UNL     1       2.611   6.030  18.886  0.00  0.00    +0.000 A 
ATOM     23 CL   UNL     1       2.983   4.372  18.669  0.00  0.00    +0.000 Cl
ATOM     24  N   UNL     1       2.908   6.812  17.831  0.00  0.00    +0.000 NA
ATOM     25  C   UNL     1       2.617   8.126  17.964  0.00  0.00    +0.000 A 
ENDBRANCH  18  19
ENDBRANCH  12  18
TORSDOF 2
ENDMDL
