MODEL 1
REMARK VINA RESULT:      -8.3      0.000      0.000
REMARK  Name = 
REMARK  6 active torsions:
REMARK  status: ('A' for Active; 'I' for Inactive)
REMARK    1  A    between atoms: C_5  and  N_6
REMARK    2  A    between atoms: C_12  and  O_13
REMARK    3  A    between atoms: O_13  and  C_14
REMARK    4  A    between atoms: C_14  and  C_15
REMARK    5  A    between atoms: N_17  and  C_18
REMARK    6  A    between atoms: C_18  and  C_19
REMARK                            x       y       z     vdW  Elec       q    Type
REMARK                         _______ _______ _______ _____ _____    ______ ____
ROOT
ATOM      1  N   UNL     1       4.888   2.993  16.801  0.00  0.00    +0.000 N 
ATOM      2  C   UNL     1       5.830   3.966  16.455  0.00  0.00    +0.000 A 
ATOM      3  N   UNL     1       6.224   3.958  15.189  0.00  0.00    +0.000 NA
ATOM      4  C   UNL     1       7.040   4.956  14.868  0.00  0.00    +0.000 A 
ATOM      5 CL   UNL     1       7.530   5.027  13.233  0.00  0.00    +0.000 Cl
ATOM      6  N   UNL     1       7.501   5.913  15.649  0.00  0.00    +0.000 NA
ATOM      7  C   UNL     1       7.075   5.793  16.891  0.00  0.00    +0.000 A 
ATOM      8  N   UNL     1       6.254   4.857  17.344  0.00  0.00    +0.000 NA
ATOM      9  H   UNL     1       4.640   2.470  15.969  0.00  0.00    +0.000 HD
ENDROOT
BRANCH   1  14
ATOM     10 CL   UNL     1       0.808   3.093  21.121  0.00  0.00    +0.000 Cl
ATOM     11  C   UNL     1       1.985   3.021  19.871  0.00  0.00    +0.000 A 
ATOM     12  C   UNL     1       1.654   3.410  18.576  0.00  0.00    +0.000 A 
ATOM     13  C   UNL     1       2.624   3.372  17.567  0.00  0.00    +0.000 A 
ATOM     14  C   UNL     1       3.941   2.967  17.839  0.00  0.00    +0.000 A 
ATOM     15  C   UNL     1       4.230   2.537  19.140  0.00  0.00    +0.000 A 
ATOM     16  C   UNL     1       3.268   2.575  20.154  0.00  0.00    +0.000 A 
ENDBRANCH   1  14
BRANCH   7  17
ATOM     17  O   UNL     1       7.461   6.807  17.726  0.00  0.00    +0.000 OA
BRANCH  17  18
ATOM     18  C   UNL     1       7.346   8.103  17.131  0.00  0.00    +0.000 C 
BRANCH  18  19
ATOM     19  C   UNL     1       8.127   9.083  17.931  0.00  0.00    +0.000 A 
ATOM     20  C   UNL     1       8.195  10.453  17.803  0.00  0.00    +0.000 A 
ATOM     21  N   UNL     1       8.957  10.849  18.858  0.00  0.00    +0.000 N 
ATOM     22  N   UNL     1       9.377   9.790  19.578  0.00  0.00    +0.000 NA
ATOM     23  N   UNL     1       8.881   8.698  19.011  0.00  0.00    +0.000 NA
BRANCH  21  24
ATOM     24  C   UNL     1       9.180  12.206  19.326  0.00  0.00    +0.000 C 
BRANCH  24  25
ATOM     25  C   UNL     1      10.168  12.958  18.471  0.00  0.00    +0.000 A 
ATOM     26  C   UNL     1      11.279  12.300  17.922  0.00  0.00    +0.000 A 
ATOM     27  C   UNL     1      12.164  12.984  17.083  0.00  0.00    +0.000 A 
ATOM     28  C   UNL     1      11.947  14.327  16.785  0.00  0.00    +0.000 A 
ATOM     29  C   UNL     1      10.850  14.992  17.328  0.00  0.00    +0.000 A 
ATOM     30  C   UNL     1       9.963  14.312  18.163  0.00  0.00    +0.000 A 
ENDBRANCH  24  25
ENDBRANCH  21  24
ENDBRANCH  18  19
ENDBRANCH  17  18
ENDBRANCH   7  17
TORSDOF 6
ENDMDL
MODEL 2
REMARK VINA RESULT:      -8.2      1.125      1.525
REMARK  Name = 
REMARK  6 active torsions:
REMARK  status: ('A' for Active; 'I' for Inactive)
REMARK    1  A    between atoms: C_5  and  N_6
REMARK    2  A    between atoms: C_12  and  O_13
REMARK    3  A    between atoms: O_13  and  C_14
REMARK    4  A    between atoms: C_14  and  C_15
REMARK    5  A    between atoms: N_17  and  C_18
REMARK    6  A    between atoms: C_18  and  C_19
REMARK                            x       y       z     vdW  Elec       q    Type
REMARK                         _______ _______ _______ _____ _____    ______ ____
ROOT
ATOM      1  N   UNL     1       4.799   3.067  16.419  0.00  0.00    +0.000 N 
ATOM      2  C   UNL     1       5.765   3.837  15.767  0.00  0.00    +0.000 A 
ATOM      3  N   UNL     1       5.948   3.561  14.483  0.00  0.00    +0.000 NA
ATOM      4  C   UNL     1       6.797   4.377  13.869  0.00  0.00    +0.000 A 
ATOM      5 CL   UNL     1       7.023   4.103  12.198  0.00  0.00    +0.000 Cl
ATOM      6  N   UNL     1       7.471   5.388  14.382  0.00  0.00    +0.000 NA
ATOM      7  C   UNL     1       7.241   5.537  15.672  0.00  0.00    +0.000 A 
ATOM      8  N   UNL     1       6.414   4.806  16.404  0.00  0.00    +0.000 NA
ATOM      9  H   UNL     1       4.368   2.445  15.745  0.00  0.00    +0.000 HD
ENDROOT
BRANCH   1  14
ATOM     10 CL   UNL     1       1.616   4.451  21.244  0.00  0.00    +0.000 Cl
ATOM     11  C   UNL     1       2.509   4.018  19.841  0.00  0.00    +0.000 A 
ATOM     12  C   UNL     1       2.423   4.796  18.690  0.00  0.00    +0.000 A 
ATOM     13  C   UNL     1       3.173   4.451  17.558  0.00  0.00    +0.000 A 
ATOM     14  C   UNL     1       4.033   3.341  17.565  0.00  0.00    +0.000 A 
ATOM     15  C   UNL     1       4.061   2.552  18.722  0.00  0.00    +0.000 A 
ATOM     16  C   UNL     1       3.318   2.891  19.858  0.00  0.00    +0.000 A 
ENDBRANCH   1  14
BRANCH   7  17
ATOM     17  O   UNL     1       7.856   6.622  16.237  0.00  0.00    +0.000 OA
BRANCH  17  18
ATOM     18  C   UNL     1       7.375   6.925  17.549  0.00  0.00    +0.000 C 
BRANCH  18  19
ATOM     19  C   UNL     1       7.865   8.269  17.955  0.00  0.00    +0.000 A 
ATOM     20  C   UNL     1       8.776   8.604  18.933  0.00  0.00    +0.000 A 
ATOM     21  N   UNL     1       8.936   9.947  18.794  0.00  0.00    +0.000 N 
ATOM     22  N   UNL     1       8.143  10.432  17.818  0.00  0.00    +0.000 NA
ATOM     23  N   UNL     1       7.472   9.409  17.303  0.00  0.00    +0.000 NA
BRANCH  21  24
ATOM     24  C   UNL     1       9.934  10.788  19.432  0.00  0.00    +0.000 C 
BRANCH  24  25
ATOM     25  C   UNL     1      10.289  11.996  18.603  0.00  0.00    +0.000 A 
ATOM     26  C   UNL     1       9.609  13.210  18.786  0.00  0.00    +0.000 A 
ATOM     27  C   UNL     1       9.975  14.345  18.058  0.00  0.00    +0.000 A 
ATOM     28  C   UNL     1      11.022  14.279  17.142  0.00  0.00    +0.000 A 
ATOM     29  C   UNL     1      11.703  13.079  16.948  0.00  0.00    +0.000 A 
ATOM     30  C   UNL     1      11.341  11.945  17.676  0.00  0.00    +0.000 A 
ENDBRANCH  24  25
ENDBRANCH  21  24
ENDBRANCH  18  19
ENDBRANCH  17  18
ENDBRANCH   7  17
TORSDOF 6
ENDMDL
MODEL 3
REMARK VINA RESULT:      -8.2      5.709      9.027
REMARK  Name = 
REMARK  6 active torsions:
REMARK  status: ('A' for Active; 'I' for Inactive)
REMARK    1  A    between atoms: C_5  and  N_6
REMARK    2  A    between atoms: C_12  and  O_13
REMARK    3  A    between atoms: O_13  and  C_14
REMARK    4  A    between atoms: C_14  and  C_15
REMARK    5  A    between atoms: N_17  and  C_18
REMARK    6  A    between atoms: C_18  and  C_19
REMARK                            x       y       z     vdW  Elec       q    Type
REMARK                         _______ _______ _______ _____ _____    ______ ____
ROOT
ATOM      1  N   UNL     1       4.534   3.182  17.238  0.00  0.00    +0.000 N 
ATOM      2  C   UNL     1       3.741   3.803  18.206  0.00  0.00    +0.000 A 
ATOM      3  N   UNL     1       3.456   3.069  19.272  0.00  0.00    +0.000 NA
ATOM      4  C   UNL     1       2.789   3.721  20.217  0.00  0.00    +0.000 A 
ATOM      5 CL   UNL     1       2.449   2.837  21.639  0.00  0.00    +0.000 Cl
ATOM      6  N   UNL     1       2.376   4.973  20.206  0.00  0.00    +0.000 NA
ATOM      7  C   UNL     1       2.679   5.589  19.080  0.00  0.00    +0.000 A 
ATOM      8  N   UNL     1       3.347   5.064  18.063  0.00  0.00    +0.000 NA
ATOM      9  H   UNL     1       4.791   2.259  17.570  0.00  0.00    +0.000 HD
ENDROOT
BRANCH   1  14
ATOM     10 CL   UNL     1       8.124   5.703  13.228  0.00  0.00    +0.000 Cl
ATOM     11  C   UNL     1       7.103   4.935  14.378  0.00  0.00    +0.000 A 
ATOM     12  C   UNL     1       7.354   5.077  15.739  0.00  0.00    +0.000 A 
ATOM     13  C   UNL     1       6.503   4.469  16.672  0.00  0.00    +0.000 A 
ATOM     14  C   UNL     1       5.382   3.731  16.261  0.00  0.00    +0.000 A 
ATOM     15  C   UNL     1       5.184   3.567  14.884  0.00  0.00    +0.000 A 
ATOM     16  C   UNL     1       6.027   4.173  13.946  0.00  0.00    +0.000 A 
ENDBRANCH   1  14
BRANCH   7  17
ATOM     17  O   UNL     1       2.342   6.915  19.048  0.00  0.00    +0.000 OA
BRANCH  17  18
ATOM     18  C   UNL     1       2.055   7.456  20.340  0.00  0.00    +0.000 C 
BRANCH  18  19
ATOM     19  C   UNL     1       1.227   8.682  20.187  0.00  0.00    +0.000 A 
ATOM     20  C   UNL     1       1.246   9.625  19.182  0.00  0.00    +0.000 A 
ATOM     21  N   UNL     1       0.211  10.455  19.484  0.00  0.00    +0.000 N 
ATOM     22  N   UNL     1      -0.391  10.083  20.630  0.00  0.00    +0.000 NA
ATOM     23  N   UNL     1       0.232   8.999  21.077  0.00  0.00    +0.000 NA
BRANCH  21  24
ATOM     24  C   UNL     1      -0.351  11.503  18.650  0.00  0.00    +0.000 C 
BRANCH  24  25
ATOM     25  C   UNL     1      -1.709  11.141  18.104  0.00  0.00    +0.000 A 
ATOM     26  C   UNL     1      -2.855  11.832  18.527  0.00  0.00    +0.000 A 
ATOM     27  C   UNL     1      -4.105  11.535  17.979  0.00  0.00    +0.000 A 
ATOM     28  C   UNL     1      -4.223  10.547  17.004  0.00  0.00    +0.000 A 
ATOM     29  C   UNL     1      -3.094   9.850  16.578  0.00  0.00    +0.000 A 
ATOM     30  C   UNL     1      -1.844  10.147  17.122  0.00  0.00    +0.000 A 
ENDBRANCH  24  25
ENDBRANCH  21  24
ENDBRANCH  18  19
ENDBRANCH  17  18
ENDBRANCH   7  17
TORSDOF 6
ENDMDL
MODEL 4
REMARK VINA RESULT:      -8.0     11.965     14.644
REMARK  Name = 
REMARK  6 active torsions:
REMARK  status: ('A' for Active; 'I' for Inactive)
REMARK    1  A    between atoms: C_5  and  N_6
REMARK    2  A    between atoms: C_12  and  O_13
REMARK    3  A    between atoms: O_13  and  C_14
REMARK    4  A    between atoms: C_14  and  C_15
REMARK    5  A    between atoms: N_17  and  C_18
REMARK    6  A    between atoms: C_18  and  C_19
REMARK                            x       y       z     vdW  Elec       q    Type
REMARK                         _______ _______ _______ _____ _____    ______ ____
ROOT
ATOM      1  N   UNL     1      -2.495  13.402  23.362  0.00  0.00    +0.000 N 
ATOM      2  C   UNL     1      -3.885  13.539  23.347  0.00  0.00    +0.000 A 
ATOM      3  N   UNL     1      -4.345  14.752  23.620  0.00  0.00    +0.000 NA
ATOM      4  C   UNL     1      -5.662  14.873  23.496  0.00  0.00    +0.000 A 
ATOM      5 CL   UNL     1      -6.301  16.432  23.779  0.00  0.00    +0.000 Cl
ATOM      6  N   UNL     1      -6.537  13.945  23.160  0.00  0.00    +0.000 NA
ATOM      7  C   UNL     1      -5.968  12.774  22.955  0.00  0.00    +0.000 A 
ATOM      8  N   UNL     1      -4.671  12.515  23.032  0.00  0.00    +0.000 NA
ATOM      9  H   UNL     1      -2.080  14.309  23.544  0.00  0.00    +0.000 HD
ENDROOT
BRANCH   1  14
ATOM     10 CL   UNL     1       0.933   9.532  20.430  0.00  0.00    +0.000 Cl
ATOM     11  C   UNL     1      -0.026  10.656  21.307  0.00  0.00    +0.000 A 
ATOM     12  C   UNL     1      -0.234  11.938  20.806  0.00  0.00    +0.000 A 
ATOM     13  C   UNL     1      -1.037  12.841  21.514  0.00  0.00    +0.000 A 
ATOM     14  C   UNL     1      -1.661  12.474  22.717  0.00  0.00    +0.000 A 
ATOM     15  C   UNL     1      -1.394  11.193  23.218  0.00  0.00    +0.000 A 
ATOM     16  C   UNL     1      -0.595  10.283  22.517  0.00  0.00    +0.000 A 
ENDBRANCH   1  14
BRANCH   7  17
ATOM     17  O   UNL     1      -6.823  11.794  22.526  0.00  0.00    +0.000 OA
BRANCH  17  18
ATOM     18  C   UNL     1      -7.786  12.260  21.577  0.00  0.00    +0.000 C 
BRANCH  18  19
ATOM     19  C   UNL     1      -7.315  11.943  20.202  0.00  0.00    +0.000 A 
ATOM     20  C   UNL     1      -6.743  12.776  19.265  0.00  0.00    +0.000 A 
ATOM     21  N   UNL     1      -6.404  11.944  18.243  0.00  0.00    +0.000 N 
ATOM     22  N   UNL     1      -6.778  10.676  18.504  0.00  0.00    +0.000 NA
ATOM     23  N   UNL     1      -7.349  10.666  19.703  0.00  0.00    +0.000 NA
BRANCH  21  24
ATOM     24  C   UNL     1      -5.586  12.258  17.085  0.00  0.00    +0.000 C 
BRANCH  24  25
ATOM     25  C   UNL     1      -4.295  11.478  17.059  0.00  0.00    +0.000 A 
ATOM     26  C   UNL     1      -3.452  11.460  18.182  0.00  0.00    +0.000 A 
ATOM     27  C   UNL     1      -2.285  10.692  18.178  0.00  0.00    +0.000 A 
ATOM     28  C   UNL     1      -1.949   9.936  17.058  0.00  0.00    +0.000 A 
ATOM     29  C   UNL     1      -2.776   9.949  15.936  0.00  0.00    +0.000 A 
ATOM     30  C   UNL     1      -3.943  10.713  15.938  0.00  0.00    +0.000 A 
ENDBRANCH  24  25
ENDBRANCH  21  24
ENDBRANCH  18  19
ENDBRANCH  17  18
ENDBRANCH   7  17
TORSDOF 6
ENDMDL
MODEL 5
REMARK VINA RESULT:      -8.0      5.817      8.784
REMARK  Name = 
REMARK  6 active torsions:
REMARK  status: ('A' for Active; 'I' for Inactive)
REMARK    1  A    between atoms: C_5  and  N_6
REMARK    2  A    between atoms: C_12  and  O_13
REMARK    3  A    between atoms: O_13  and  C_14
REMARK    4  A    between atoms: C_14  and  C_15
REMARK    5  A    between atoms: N_17  and  C_18
REMARK    6  A    between atoms: C_18  and  C_19
REMARK                            x       y       z     vdW  Elec       q    Type
REMARK                         _______ _______ _______ _____ _____    ______ ____
ROOT
ATOM      1  N   UNL     1       1.513   7.334  20.720  0.00  0.00    +0.000 N 
ATOM      2  C   UNL     1       2.001   6.149  20.162  0.00  0.00    +0.000 A 
ATOM      3  N   UNL     1       1.546   5.030  20.707  0.00  0.00    +0.000 NA
ATOM      4  C   UNL     1       1.947   3.924  20.090  0.00  0.00    +0.000 A 
ATOM      5 CL   UNL     1       1.340   2.455  20.715  0.00  0.00    +0.000 Cl
ATOM      6  N   UNL     1       2.738   3.819  19.040  0.00  0.00    +0.000 NA
ATOM      7  C   UNL     1       3.160   4.993  18.614  0.00  0.00    +0.000 A 
ATOM      8  N   UNL     1       2.832   6.170  19.126  0.00  0.00    +0.000 NA
ATOM      9  H   UNL     1       0.838   7.102  21.439  0.00  0.00    +0.000 HD
ENDROOT
BRANCH   1  14
ATOM     10 CL   UNL     1       0.800  12.801  18.498  0.00  0.00    +0.000 Cl
ATOM     11  C   UNL     1       1.049  11.226  19.140  0.00  0.00    +0.000 A 
ATOM     12  C   UNL     1       0.780  10.967  20.480  0.00  0.00    +0.000 A 
ATOM     13  C   UNL     1       0.961   9.675  20.991  0.00  0.00    +0.000 A 
ATOM     14  C   UNL     1       1.393   8.621  20.169  0.00  0.00    +0.000 A 
ATOM     15  C   UNL     1       1.701   8.925  18.836  0.00  0.00    +0.000 A 
ATOM     16  C   UNL     1       1.519  10.211  18.318  0.00  0.00    +0.000 A 
ENDBRANCH   1  14
BRANCH   7  17
ATOM     17  O   UNL     1       3.921   4.946  17.477  0.00  0.00    +0.000 OA
BRANCH  17  18
ATOM     18  C   UNL     1       5.275   5.357  17.686  0.00  0.00    +0.000 C 
BRANCH  18  19
ATOM     19  C   UNL     1       6.067   5.083  16.457  0.00  0.00    +0.000 A 
ATOM     20  C   UNL     1       5.657   5.078  15.141  0.00  0.00    +0.000 A 
ATOM     21  N   UNL     1       6.805   4.886  14.436  0.00  0.00    +0.000 N 
ATOM     22  N   UNL     1       7.861   4.736  15.259  0.00  0.00    +0.000 NA
ATOM     23  N   UNL     1       7.417   4.846  16.505  0.00  0.00    +0.000 NA
BRANCH  21  24
ATOM     24  C   UNL     1       6.987   5.000  12.999  0.00  0.00    +0.000 C 
BRANCH  24  25
ATOM     25  C   UNL     1       6.570   3.752  12.262  0.00  0.00    +0.000 A 
ATOM     26  C   UNL     1       7.534   2.844  11.797  0.00  0.00    +0.000 A 
ATOM     27  C   UNL     1       7.145   1.661  11.165  0.00  0.00    +0.000 A 
ATOM     28  C   UNL     1       5.794   1.372  10.991  0.00  0.00    +0.000 A 
ATOM     29  C   UNL     1       4.827   2.267  11.445  0.00  0.00    +0.000 A 
ATOM     30  C   UNL     1       5.212   3.449  12.080  0.00  0.00    +0.000 A 
ENDBRANCH  24  25
ENDBRANCH  21  24
ENDBRANCH  18  19
ENDBRANCH  17  18
ENDBRANCH   7  17
TORSDOF 6
ENDMDL
MODEL 6
REMARK VINA RESULT:      -7.9      3.374      4.027
REMARK  Name = 
REMARK  6 active torsions:
REMARK  status: ('A' for Active; 'I' for Inactive)
REMARK    1  A    between atoms: C_5  and  N_6
REMARK    2  A    between atoms: C_12  and  O_13
REMARK    3  A    between atoms: O_13  and  C_14
REMARK    4  A    between atoms: C_14  and  C_15
REMARK    5  A    between atoms: N_17  and  C_18
REMARK    6  A    between atoms: C_18  and  C_19
REMARK                            x       y       z     vdW  Elec       q    Type
REMARK                         _______ _______ _______ _____ _____    ______ ____
ROOT
ATOM      1  N   UNL     1       3.529   6.265  17.960  0.00  0.00    +0.000 N 
ATOM      2  C   UNL     1       4.814   6.266  17.410  0.00  0.00    +0.000 A 
ATOM      3  N   UNL     1       5.100   5.241  16.619  0.00  0.00    +0.000 NA
ATOM      4  C   UNL     1       6.288   5.323  16.033  0.00  0.00    +0.000 A 
ATOM      5 CL   UNL     1       6.682   4.057  14.956  0.00  0.00    +0.000 Cl
ATOM      6  N   UNL     1       7.195   6.273  16.161  0.00  0.00    +0.000 NA
ATOM      7  C   UNL     1       6.817   7.214  17.003  0.00  0.00    +0.000 A 
ATOM      8  N   UNL     1       5.660   7.263  17.646  0.00  0.00    +0.000 NA
ATOM      9  H   UNL     1       3.020   5.468  17.596  0.00  0.00    +0.000 HD
ENDROOT
BRANCH   1  14
ATOM     10 CL   UNL     1       0.038  10.594  20.057  0.00  0.00    +0.000 Cl
ATOM     11  C   UNL     1       1.081   9.369  19.453  0.00  0.00    +0.000 A 
ATOM     12  C   UNL     1       1.455   8.305  20.268  0.00  0.00    +0.000 A 
ATOM     13  C   UNL     1       2.286   7.297  19.761  0.00  0.00    +0.000 A 
ATOM     14  C   UNL     1       2.737   7.326  18.432  0.00  0.00    +0.000 A 
ATOM     15  C   UNL     1       2.382   8.434  17.652  0.00  0.00    +0.000 A 
ATOM     16  C   UNL     1       1.550   9.443  18.149  0.00  0.00    +0.000 A 
ENDBRANCH   1  14
BRANCH   7  17
ATOM     17  O   UNL     1       7.689   8.264  17.112  0.00  0.00    +0.000 OA
BRANCH  17  18
ATOM     18  C   UNL     1       8.301   8.359  18.401  0.00  0.00    +0.000 C 
BRANCH  18  19
ATOM     19  C   UNL     1       8.823   9.738  18.597  0.00  0.00    +0.000 A 
ATOM     20  C   UNL     1       8.789  10.812  17.734  0.00  0.00    +0.000 A 
ATOM     21  N   UNL     1       9.297  11.841  18.463  0.00  0.00    +0.000 N 
ATOM     22  N   UNL     1       9.667  11.430  19.692  0.00  0.00    +0.000 NA
ATOM     23  N   UNL     1       9.389  10.135  19.781  0.00  0.00    +0.000 NA
BRANCH  21  24
ATOM     24  C   UNL     1       9.302  13.251  18.115  0.00  0.00    +0.000 C 
BRANCH  24  25
ATOM     25  C   UNL     1       8.021  13.947  18.500  0.00  0.00    +0.000 A 
ATOM     26  C   UNL     1       7.866  14.495  19.783  0.00  0.00    +0.000 A 
ATOM     27  C   UNL     1       6.702  15.189  20.122  0.00  0.00    +0.000 A 
ATOM     28  C   UNL     1       5.683  15.344  19.185  0.00  0.00    +0.000 A 
ATOM     29  C   UNL     1       5.823  14.801  17.908  0.00  0.00    +0.000 A 
ATOM     30  C   UNL     1       6.986  14.110  17.567  0.00  0.00    +0.000 A 
ENDBRANCH  24  25
ENDBRANCH  21  24
ENDBRANCH  18  19
ENDBRANCH  17  18
ENDBRANCH   7  17
TORSDOF 6
ENDMDL
MODEL 7
REMARK VINA RESULT:      -7.9      5.524      8.083
REMARK  Name = 
REMARK  6 active torsions:
REMARK  status: ('A' for Active; 'I' for Inactive)
REMARK    1  A    between atoms: C_5  and  N_6
REMARK    2  A    between atoms: C_12  and  O_13
REMARK    3  A    between atoms: O_13  and  C_14
REMARK    4  A    between atoms: C_14  and  C_15
REMARK    5  A    between atoms: N_17  and  C_18
REMARK    6  A    between atoms: C_18  and  C_19
REMARK                            x       y       z     vdW  Elec       q    Type
REMARK                         _______ _______ _______ _____ _____    ______ ____
ROOT
ATOM      1  N   UNL     1       2.123   5.890  19.550  0.00  0.00    +0.000 N 
ATOM      2  C   UNL     1       3.247   5.073  19.404  0.00  0.00    +0.000 A 
ATOM      3  N   UNL     1       3.000   3.783  19.229  0.00  0.00    +0.000 NA
ATOM      4  C   UNL     1       4.083   3.051  18.992  0.00  0.00    +0.000 A 
ATOM      5 CL   UNL     1       3.814   1.389  18.698  0.00  0.00    +0.000 Cl
ATOM      6  N   UNL     1       5.338   3.449  18.931  0.00  0.00    +0.000 NA
ATOM      7  C   UNL     1       5.463   4.742  19.163  0.00  0.00    +0.000 A 
ATOM      8  N   UNL     1       4.472   5.588  19.401  0.00  0.00    +0.000 NA
ATOM      9  H   UNL     1       1.291   5.320  19.444  0.00  0.00    +0.000 HD
ENDROOT
BRANCH   1  14
ATOM     10 CL   UNL     1       1.197  11.686  18.618  0.00  0.00    +0.000 Cl
ATOM     11  C   UNL     1       1.508  10.018  18.888  0.00  0.00    +0.000 A 
ATOM     12  C   UNL     1       1.258   9.453  20.135  0.00  0.00    +0.000 A 
ATOM     13  C   UNL     1       1.490   8.087  20.341  0.00  0.00    +0.000 A 
ATOM     14  C   UNL     1       1.952   7.263  19.303  0.00  0.00    +0.000 A 
ATOM     15  C   UNL     1       2.239   7.870  18.074  0.00  0.00    +0.000 A 
ATOM     16  C   UNL     1       2.007   9.233  17.859  0.00  0.00    +0.000 A 
ENDBRANCH   1  14
BRANCH   7  17
ATOM     17  O   UNL     1       6.739   5.222  19.034  0.00  0.00    +0.000 OA
BRANCH  17  18
ATOM     18  C   UNL     1       7.491   4.560  18.013  0.00  0.00    +0.000 C 
BRANCH  18  19
ATOM     19  C   UNL     1       6.906   4.883  16.684  0.00  0.00    +0.000 A 
ATOM     20  C   UNL     1       6.444   4.029  15.706  0.00  0.00    +0.000 A 
ATOM     21  N   UNL     1       5.915   4.855  14.764  0.00  0.00    +0.000 N 
ATOM     22  N   UNL     1       6.075   6.149  15.108  0.00  0.00    +0.000 NA
ATOM     23  N   UNL     1       6.692   6.177  16.283  0.00  0.00    +0.000 NA
BRANCH  21  24
ATOM     24  C   UNL     1       5.110   4.482  13.614  0.00  0.00    +0.000 C 
BRANCH  24  25
ATOM     25  C   UNL     1       5.827   3.532  12.689  0.00  0.00    +0.000 A 
ATOM     26  C   UNL     1       5.146   2.446  12.117  0.00  0.00    +0.000 A 
ATOM     27  C   UNL     1       5.795   1.598  11.216  0.00  0.00    +0.000 A 
ATOM     28  C   UNL     1       7.127   1.826  10.877  0.00  0.00    +0.000 A 
ATOM     29  C   UNL     1       7.814   2.900  11.441  0.00  0.00    +0.000 A 
ATOM     30  C   UNL     1       7.168   3.749  12.339  0.00  0.00    +0.000 A 
ENDBRANCH  24  25
ENDBRANCH  21  24
ENDBRANCH  18  19
ENDBRANCH  17  18
ENDBRANCH   7  17
TORSDOF 6
ENDMDL
MODEL 8
REMARK VINA RESULT:      -7.8      5.940      8.766
REMARK  Name = 
REMARK  6 active torsions:
REMARK  status: ('A' for Active; 'I' for Inactive)
REMARK    1  A    between atoms: C_5  and  N_6
REMARK    2  A    between atoms: C_12  and  O_13
REMARK    3  A    between atoms: O_13  and  C_14
REMARK    4  A    between atoms: C_14  and  C_15
REMARK    5  A    between atoms: N_17  and  C_18
REMARK    6  A    between atoms: C_18  and  C_19
REMARK                            x       y       z     vdW  Elec       q    Type
REMARK                         _______ _______ _______ _____ _____    ______ ____
ROOT
ATOM      1  N   UNL     1       1.538   6.993  21.066  0.00  0.00    +0.000 N 
ATOM      2  C   UNL     1       2.122   5.918  20.392  0.00  0.00    +0.000 A 
ATOM      3  N   UNL     1       1.742   4.713  20.795  0.00  0.00    +0.000 NA
ATOM      4  C   UNL     1       2.236   3.718  20.068  0.00  0.00    +0.000 A 
ATOM      5 CL   UNL     1       1.729   2.146  20.507  0.00  0.00    +0.000 Cl
ATOM      6  N   UNL     1       3.051   3.791  19.034  0.00  0.00    +0.000 NA
ATOM      7  C   UNL     1       3.393   5.034  18.755  0.00  0.00    +0.000 A 
ATOM      8  N   UNL     1       2.968   6.117  19.387  0.00  0.00    +0.000 NA
ATOM      9  H   UNL     1       0.869   6.632  21.737  0.00  0.00    +0.000 HD
ENDROOT
BRANCH   1  14
ATOM     10 CL   UNL     1       0.856  12.600  19.216  0.00  0.00    +0.000 Cl
ATOM     11  C   UNL     1       1.010  10.976  19.756  0.00  0.00    +0.000 A 
ATOM     12  C   UNL     1       1.301   9.962  18.848  0.00  0.00    +0.000 A 
ATOM     13  C   UNL     1       1.450   8.644  19.299  0.00  0.00    +0.000 A 
ATOM     14  C   UNL     1       1.332   8.323  20.661  0.00  0.00    +0.000 A 
ATOM     15  C   UNL     1       0.992   9.357  21.542  0.00  0.00    +0.000 A 
ATOM     16  C   UNL     1       0.844  10.676  21.101  0.00  0.00    +0.000 A 
ENDBRANCH   1  14
BRANCH   7  17
ATOM     17  O   UNL     1       4.176   5.171  17.640  0.00  0.00    +0.000 OA
BRANCH  17  18
ATOM     18  C   UNL     1       5.396   4.428  17.712  0.00  0.00    +0.000 C 
BRANCH  18  19
ATOM     19  C   UNL     1       6.143   4.584  16.435  0.00  0.00    +0.000 A 
ATOM     20  C   UNL     1       5.717   4.355  15.145  0.00  0.00    +0.000 A 
ATOM     21  N   UNL     1       6.757   4.768  14.372  0.00  0.00    +0.000 N 
ATOM     22  N   UNL     1       7.788   5.189  15.130  0.00  0.00    +0.000 NA
ATOM     23  N   UNL     1       7.424   5.071  16.402  0.00  0.00    +0.000 NA
BRANCH  21  24
ATOM     24  C   UNL     1       6.770   4.942  12.930  0.00  0.00    +0.000 C 
BRANCH  24  25
ATOM     25  C   UNL     1       6.501   3.657  12.189  0.00  0.00    +0.000 A 
ATOM     26  C   UNL     1       7.563   2.832  11.786  0.00  0.00    +0.000 A 
ATOM     27  C   UNL     1       7.311   1.614  11.150  0.00  0.00    +0.000 A 
ATOM     28  C   UNL     1       6.000   1.207  10.912  0.00  0.00    +0.000 A 
ATOM     29  C   UNL     1       4.938   2.019  11.304  0.00  0.00    +0.000 A 
ATOM     30  C   UNL     1       5.186   3.235  11.942  0.00  0.00    +0.000 A 
ENDBRANCH  24  25
ENDBRANCH  21  24
ENDBRANCH  18  19
ENDBRANCH  17  18
ENDBRANCH   7  17
TORSDOF 6
ENDMDL
MODEL 9
REMARK VINA RESULT:      -7.8      3.593      4.720
REMARK  Name = 
REMARK  6 active torsions:
REMARK  status: ('A' for Active; 'I' for Inactive)
REMARK    1  A    between atoms: C_5  and  N_6
REMARK    2  A    between atoms: C_12  and  O_13
REMARK    3  A    between atoms: O_13  and  C_14
REMARK    4  A    between atoms: C_14  and  C_15
REMARK    5  A    between atoms: N_17  and  C_18
REMARK    6  A    between atoms: C_18  and  C_19
REMARK                            x       y       z     vdW  Elec       q    Type
REMARK                         _______ _______ _______ _____ _____    ______ ____
ROOT
ATOM      1  N   UNL     1       1.821   6.162  19.325  0.00  0.00    +0.000 N 
ATOM      2  C   UNL     1       2.883   5.260  19.214  0.00  0.00    +0.000 A 
ATOM      3  N   UNL     1       2.545   4.008  18.937  0.00  0.00    +0.000 NA
ATOM      4  C   UNL     1       3.579   3.199  18.738  0.00  0.00    +0.000 A 
ATOM      5 CL   UNL     1       3.199   1.587  18.317  0.00  0.00    +0.000 Cl
ATOM      6  N   UNL     1       4.864   3.489  18.800  0.00  0.00    +0.000 NA
ATOM      7  C   UNL     1       5.076   4.750  19.124  0.00  0.00    +0.000 A 
ATOM      8  N   UNL     1       4.142   5.664  19.340  0.00  0.00    +0.000 NA
ATOM      9  H   UNL     1       0.957   5.675  19.119  0.00  0.00    +0.000 HD
ENDROOT
BRANCH   1  14
ATOM     10 CL   UNL     1       1.464  12.063  18.715  0.00  0.00    +0.000 Cl
ATOM     11  C   UNL     1       1.611  10.360  18.893  0.00  0.00    +0.000 A 
ATOM     12  C   UNL     1       1.279   9.753  20.101  0.00  0.00    +0.000 A 
ATOM     13  C   UNL     1       1.378   8.361  20.231  0.00  0.00    +0.000 A 
ATOM     14  C   UNL     1       1.786   7.556  19.156  0.00  0.00    +0.000 A 
ATOM     15  C   UNL     1       2.158   8.202  17.969  0.00  0.00    +0.000 A 
ATOM     16  C   UNL     1       2.060   9.590  17.830  0.00  0.00    +0.000 A 
ENDBRANCH   1  14
BRANCH   7  17
ATOM     17  O   UNL     1       6.393   5.123  19.125  0.00  0.00    +0.000 OA
BRANCH  17  18
ATOM     18  C   UNL     1       6.845   5.603  17.856  0.00  0.00    +0.000 C 
BRANCH  18  19
ATOM     19  C   UNL     1       7.556   6.896  18.044  0.00  0.00    +0.000 A 
ATOM     20  C   UNL     1       7.388   8.087  17.371  0.00  0.00    +0.000 A 
ATOM     21  N   UNL     1       8.204   8.957  18.024  0.00  0.00    +0.000 N 
ATOM     22  N   UNL     1       8.875   8.341  19.018  0.00  0.00    +0.000 NA
ATOM     23  N   UNL     1       8.491   7.071  19.032  0.00  0.00    +0.000 NA
BRANCH  21  24
ATOM     24  C   UNL     1       8.265  10.400  17.865  0.00  0.00    +0.000 C 
BRANCH  24  25
ATOM     25  C   UNL     1       9.456  11.009  18.559  0.00  0.00    +0.000 A 
ATOM     26  C   UNL     1       9.432  11.241  19.943  0.00  0.00    +0.000 A 
ATOM     27  C   UNL     1      10.556  11.753  20.596  0.00  0.00    +0.000 A 
ATOM     28  C   UNL     1      11.714  12.037  19.875  0.00  0.00    +0.000 A 
ATOM     29  C   UNL     1      11.749  11.814  18.499  0.00  0.00    +0.000 A 
ATOM     30  C   UNL     1      10.629  11.301  17.846  0.00  0.00    +0.000 A 
ENDBRANCH  24  25
ENDBRANCH  21  24
ENDBRANCH  18  19
ENDBRANCH  17  18
ENDBRANCH   7  17
TORSDOF 6
ENDMDL
