MODEL 1
REMARK VINA RESULT:      -8.5      0.000      0.000
REMARK  Name = 
REMARK  6 active torsions:
REMARK  status: ('A' for Active; 'I' for Inactive)
REMARK    1  A    between atoms: C_1  and  C_2
REMARK    2  A    between atoms: C_6  and  N_7
REMARK    3  A    between atoms: N_7  and  C_8
REMARK    4  A    between atoms: C_10  and  C_11
REMARK    5  A    between atoms: C_15  and  S_16
REMARK    6  A    between atoms: S_16  and  C_19
REMARK                            x       y       z     vdW  Elec       q    Type
REMARK                         _______ _______ _______ _____ _____    ______ ____
ROOT
ATOM      1  C   UNL     1       2.846   5.051  19.258  0.00  0.00    +0.000 A 
ATOM      2  N   UNL     1       1.877   4.522  20.044  0.00  0.00    +0.000 NA
ATOM      3  C   UNL     1       2.130   3.367  20.672  0.00  0.00    +0.000 A 
ATOM      4  C   UNL     1       1.186   2.892  21.731  0.00  0.00    +0.000 C 
ATOM      5  N   UNL     1       3.204   2.611  20.424  0.00  0.00    +0.000 NA
ATOM      6  C   UNL     1       4.175   3.161  19.682  0.00  0.00    +0.000 A 
ATOM      7  N   UNL     1       5.231   2.297  19.424  0.00  0.00    +0.000 N 
ATOM      8  C   UNL     1       4.110   4.467  19.245  0.00  0.00    +0.000 A 
ATOM      9  H   UNL     1       4.925   1.351  19.646  0.00  0.00    +0.000 HD
ATOM     10  H   UNL     1       5.576   2.370  18.463  0.00  0.00    +0.000 HD
ENDROOT
BRANCH   8  11
ATOM     11  S   UNL     1       5.577   5.189  18.609  0.00  0.00    +0.000 S 
ATOM     12  O   UNL     1       5.361   6.625  18.581  0.00  0.00    +0.000 OA
ATOM     13  O   UNL     1       6.671   4.683  19.431  0.00  0.00    +0.000 OA
BRANCH  11  14
ATOM     14  C   UNL     1       5.951   4.690  16.908  0.00  0.00    +0.000 A 
ATOM     15  C   UNL     1       4.964   4.113  16.094  0.00  0.00    +0.000 A 
ATOM     16  C   UNL     1       5.192   3.911  14.723  0.00  0.00    +0.000 A 
ATOM     17  C   UNL     1       6.397   4.296  14.143  0.00  0.00    +0.000 A 
ATOM     18  C   UNL     1       7.387   4.873  14.943  0.00  0.00    +0.000 A 
ATOM     19  C   UNL     1       7.162   5.072  16.321  0.00  0.00    +0.000 A 
ENDBRANCH  11  14
ENDBRANCH   8  11
BRANCH   1  20
ATOM     20  N   UNL     1       2.472   6.171  18.472  0.00  0.00    +0.000 N 
ATOM     21  H   UNL     1       1.797   5.896  17.751  0.00  0.00    +0.000 HD
BRANCH  20  27
ATOM     22  C   UNL     1       0.525   9.286  21.917  0.00  0.00    +0.000 C 
ATOM     23  C   UNL     1       1.111   9.037  20.553  0.00  0.00    +0.000 A 
ATOM     24  C   UNL     1       0.925   9.994  19.546  0.00  0.00    +0.000 A 
ATOM     25  C   UNL     1       1.354   9.728  18.250  0.00  0.00    +0.000 A 
ATOM     26  C   UNL     1       1.926   8.490  17.939  0.00  0.00    +0.000 A 
ATOM     27  C   UNL     1       2.090   7.485  18.915  0.00  0.00    +0.000 A 
ATOM     28  C   UNL     1       1.728   7.803  20.237  0.00  0.00    +0.000 A 
ENDBRANCH  20  27
ENDBRANCH   1  20
TORSDOF 4
ENDMDL
MODEL 2
REMARK VINA RESULT:      -8.1      2.016      2.521
REMARK  Name = 
REMARK  6 active torsions:
REMARK  status: ('A' for Active; 'I' for Inactive)
REMARK    1  A    between atoms: C_1  and  C_2
REMARK    2  A    between atoms: C_6  and  N_7
REMARK    3  A    between atoms: N_7  and  C_8
REMARK    4  A    between atoms: C_10  and  C_11
REMARK    5  A    between atoms: C_15  and  S_16
REMARK    6  A    between atoms: S_16  and  C_19
REMARK                            x       y       z     vdW  Elec       q    Type
REMARK                         _______ _______ _______ _____ _____    ______ ____
ROOT
ATOM      1  C   UNL     1       3.001   4.856  19.882  0.00  0.00    +0.000 A 
ATOM      2  N   UNL     1       2.308   4.382  20.946  0.00  0.00    +0.000 NA
ATOM      3  C   UNL     1       1.781   3.154  20.865  0.00  0.00    +0.000 A 
ATOM      4  C   UNL     1       1.232   2.513  22.100  0.00  0.00    +0.000 C 
ATOM      5  N   UNL     1       1.736   2.443  19.734  0.00  0.00    +0.000 NA
ATOM      6  C   UNL     1       2.461   2.897  18.702  0.00  0.00    +0.000 A 
ATOM      7  N   UNL     1       2.321   2.136  17.550  0.00  0.00    +0.000 N 
ATOM      8  C   UNL     1       3.271   4.008  18.811  0.00  0.00    +0.000 A 
ATOM      9  H   UNL     1       1.504   1.538  17.664  0.00  0.00    +0.000 HD
ATOM     10  H   UNL     1       2.258   2.707  16.703  0.00  0.00    +0.000 HD
ENDROOT
BRANCH   8  11
ATOM     11  S   UNL     1       4.440   4.293  17.535  0.00  0.00    +0.000 S 
ATOM     12  O   UNL     1       5.076   3.018  17.254  0.00  0.00    +0.000 OA
ATOM     13  O   UNL     1       3.712   4.942  16.450  0.00  0.00    +0.000 OA
BRANCH  11  14
ATOM     14  C   UNL     1       5.765   5.436  18.007  0.00  0.00    +0.000 A 
ATOM     15  C   UNL     1       6.672   5.103  19.025  0.00  0.00    +0.000 A 
ATOM     16  C   UNL     1       7.813   5.889  19.256  0.00  0.00    +0.000 A 
ATOM     17  C   UNL     1       8.071   7.007  18.467  0.00  0.00    +0.000 A 
ATOM     18  C   UNL     1       7.176   7.348  17.450  0.00  0.00    +0.000 A 
ATOM     19  C   UNL     1       6.027   6.562  17.220  0.00  0.00    +0.000 A 
ENDBRANCH  11  14
ENDBRANCH   8  11
BRANCH   1  20
ATOM     20  N   UNL     1       3.381   6.221  19.940  0.00  0.00    +0.000 N 
ATOM     21  H   UNL     1       4.322   6.350  19.553  0.00  0.00    +0.000 HD
BRANCH  20  27
ATOM     22  C   UNL     1      -0.260   9.593  20.793  0.00  0.00    +0.000 C 
ATOM     23  C   UNL     1       0.822   9.022  19.916  0.00  0.00    +0.000 A 
ATOM     24  C   UNL     1       0.837   9.346  18.554  0.00  0.00    +0.000 A 
ATOM     25  C   UNL     1       1.755   8.734  17.706  0.00  0.00    +0.000 A 
ATOM     26  C   UNL     1       2.630   7.762  18.203  0.00  0.00    +0.000 A 
ATOM     27  C   UNL     1       2.616   7.377  19.559  0.00  0.00    +0.000 A 
ATOM     28  C   UNL     1       1.739   8.067  20.417  0.00  0.00    +0.000 A 
ENDBRANCH  20  27
ENDBRANCH   1  20
TORSDOF 4
ENDMDL
MODEL 3
REMARK VINA RESULT:      -8.0      2.135      2.924
REMARK  Name = 
REMARK  6 active torsions:
REMARK  status: ('A' for Active; 'I' for Inactive)
REMARK    1  A    between atoms: C_1  and  C_2
REMARK    2  A    between atoms: C_6  and  N_7
REMARK    3  A    between atoms: N_7  and  C_8
REMARK    4  A    between atoms: C_10  and  C_11
REMARK    5  A    between atoms: C_15  and  S_16
REMARK    6  A    between atoms: S_16  and  C_19
REMARK                            x       y       z     vdW  Elec       q    Type
REMARK                         _______ _______ _______ _____ _____    ______ ____
ROOT
ATOM      1  C   UNL     1       2.763   5.460  19.901  0.00  0.00    +0.000 A 
ATOM      2  N   UNL     1       2.305   4.715  20.938  0.00  0.00    +0.000 NA
ATOM      3  C   UNL     1       2.066   3.415  20.728  0.00  0.00    +0.000 A 
ATOM      4  C   UNL     1       1.802   2.524  21.900  0.00  0.00    +0.000 C 
ATOM      5  N   UNL     1       2.072   2.848  19.517  0.00  0.00    +0.000 NA
ATOM      6  C   UNL     1       2.568   3.578  18.508  0.00  0.00    +0.000 A 
ATOM      7  N   UNL     1       2.490   2.943  17.276  0.00  0.00    +0.000 N 
ATOM      8  C   UNL     1       3.111   4.830  18.709  0.00  0.00    +0.000 A 
ATOM      9  H   UNL     1       1.847   2.159  17.366  0.00  0.00    +0.000 HD
ATOM     10  H   UNL     1       2.216   3.577  16.521  0.00  0.00    +0.000 HD
ENDROOT
BRANCH   8  11
ATOM     11  S   UNL     1       4.052   5.530  17.406  0.00  0.00    +0.000 S 
ATOM     12  O   UNL     1       4.124   4.530  16.354  0.00  0.00    +0.000 OA
ATOM     13  O   UNL     1       3.420   6.806  17.085  0.00  0.00    +0.000 OA
BRANCH  11  14
ATOM     14  C   UNL     1       5.760   5.915  17.870  0.00  0.00    +0.000 A 
ATOM     15  C   UNL     1       6.445   6.983  17.269  0.00  0.00    +0.000 A 
ATOM     16  C   UNL     1       7.689   7.408  17.764  0.00  0.00    +0.000 A 
ATOM     17  C   UNL     1       8.257   6.787  18.873  0.00  0.00    +0.000 A 
ATOM     18  C   UNL     1       7.584   5.724  19.480  0.00  0.00    +0.000 A 
ATOM     19  C   UNL     1       6.337   5.292  18.981  0.00  0.00    +0.000 A 
ENDBRANCH  11  14
ENDBRANCH   8  11
BRANCH   1  20
ATOM     20  N   UNL     1       2.826   6.860  20.117  0.00  0.00    +0.000 N 
ATOM     21  H   UNL     1       3.546   7.285  19.522  0.00  0.00    +0.000 HD
BRANCH  20  27
ATOM     22  C   UNL     1       0.532  11.084  18.614  0.00  0.00    +0.000 C 
ATOM     23  C   UNL     1       0.606   9.878  19.511  0.00  0.00    +0.000 A 
ATOM     24  C   UNL     1      -0.147   9.858  20.692  0.00  0.00    +0.000 A 
ATOM     25  C   UNL     1       0.000   8.807  21.591  0.00  0.00    +0.000 A 
ATOM     26  C   UNL     1       0.934   7.795  21.342  0.00  0.00    +0.000 A 
ATOM     27  C   UNL     1       1.742   7.802  20.187  0.00  0.00    +0.000 A 
ATOM     28  C   UNL     1       1.519   8.828  19.249  0.00  0.00    +0.000 A 
ENDBRANCH  20  27
ENDBRANCH   1  20
TORSDOF 4
ENDMDL
MODEL 4
REMARK VINA RESULT:      -8.0      2.350      4.796
REMARK  Name = 
REMARK  6 active torsions:
REMARK  status: ('A' for Active; 'I' for Inactive)
REMARK    1  A    between atoms: C_1  and  C_2
REMARK    2  A    between atoms: C_6  and  N_7
REMARK    3  A    between atoms: N_7  and  C_8
REMARK    4  A    between atoms: C_10  and  C_11
REMARK    5  A    between atoms: C_15  and  S_16
REMARK    6  A    between atoms: S_16  and  C_19
REMARK                            x       y       z     vdW  Elec       q    Type
REMARK                         _______ _______ _______ _____ _____    ______ ____
ROOT
ATOM      1  C   UNL     1       4.450   6.564  17.505  0.00  0.00    +0.000 A 
ATOM      2  N   UNL     1       5.477   7.436  17.343  0.00  0.00    +0.000 NA
ATOM      3  C   UNL     1       6.707   7.037  17.688  0.00  0.00    +0.000 A 
ATOM      4  C   UNL     1       7.882   7.874  17.293  0.00  0.00    +0.000 C 
ATOM      5  N   UNL     1       6.958   5.906  18.355  0.00  0.00    +0.000 NA
ATOM      6  C   UNL     1       5.947   5.033  18.469  0.00  0.00    +0.000 A 
ATOM      7  N   UNL     1       6.269   3.910  19.219  0.00  0.00    +0.000 N 
ATOM      8  C   UNL     1       4.722   5.250  17.876  0.00  0.00    +0.000 A 
ATOM      9  H   UNL     1       7.129   4.106  19.729  0.00  0.00    +0.000 HD
ATOM     10  H   UNL     1       5.513   3.621  19.845  0.00  0.00    +0.000 HD
ENDROOT
BRANCH   8  11
ATOM     11  S   UNL     1       3.611   3.897  17.778  0.00  0.00    +0.000 S 
ATOM     12  O   UNL     1       2.592   4.258  16.806  0.00  0.00    +0.000 OA
ATOM     13  O   UNL     1       4.425   2.718  17.502  0.00  0.00    +0.000 OA
BRANCH  11  14
ATOM     14  C   UNL     1       2.743   3.558  19.332  0.00  0.00    +0.000 A 
ATOM     15  C   UNL     1       1.353   3.725  19.430  0.00  0.00    +0.000 A 
ATOM     16  C   UNL     1       0.654   3.275  20.562  0.00  0.00    +0.000 A 
ATOM     17  C   UNL     1       1.327   2.639  21.601  0.00  0.00    +0.000 A 
ATOM     18  C   UNL     1       2.711   2.465  21.514  0.00  0.00    +0.000 A 
ATOM     19  C   UNL     1       3.416   2.922  20.380  0.00  0.00    +0.000 A 
ENDBRANCH  11  14
ENDBRANCH   8  11
BRANCH   1  20
ATOM     20  N   UNL     1       3.148   7.088  17.301  0.00  0.00    +0.000 N 
ATOM     21  H   UNL     1       2.561   6.411  16.802  0.00  0.00    +0.000 HD
BRANCH  20  27
ATOM     22  C   UNL     1       0.496  11.090  18.819  0.00  0.00    +0.000 C 
ATOM     23  C   UNL     1       1.019   9.698  19.048  0.00  0.00    +0.000 A 
ATOM     24  C   UNL     1       1.025   9.177  20.349  0.00  0.00    +0.000 A 
ATOM     25  C   UNL     1       1.614   7.942  20.598  0.00  0.00    +0.000 A 
ATOM     26  C   UNL     1       2.242   7.241  19.563  0.00  0.00    +0.000 A 
ATOM     27  C   UNL     1       2.295   7.752  18.249  0.00  0.00    +0.000 A 
ATOM     28  C   UNL     1       1.621   8.962  17.999  0.00  0.00    +0.000 A 
ENDBRANCH  20  27
ENDBRANCH   1  20
TORSDOF 4
ENDMDL
MODEL 5
REMARK VINA RESULT:      -8.0      2.328      4.680
REMARK  Name = 
REMARK  6 active torsions:
REMARK  status: ('A' for Active; 'I' for Inactive)
REMARK    1  A    between atoms: C_1  and  C_2
REMARK    2  A    between atoms: C_6  and  N_7
REMARK    3  A    between atoms: N_7  and  C_8
REMARK    4  A    between atoms: C_10  and  C_11
REMARK    5  A    between atoms: C_15  and  S_16
REMARK    6  A    between atoms: S_16  and  C_19
REMARK                            x       y       z     vdW  Elec       q    Type
REMARK                         _______ _______ _______ _____ _____    ______ ____
ROOT
ATOM      1  C   UNL     1       4.131   6.382  17.665  0.00  0.00    +0.000 A 
ATOM      2  N   UNL     1       5.108   7.309  17.509  0.00  0.00    +0.000 NA
ATOM      3  C   UNL     1       6.380   6.923  17.666  0.00  0.00    +0.000 A 
ATOM      4  C   UNL     1       7.479   7.852  17.258  0.00  0.00    +0.000 C 
ATOM      5  N   UNL     1       6.735   5.729  18.150  0.00  0.00    +0.000 NA
ATOM      6  C   UNL     1       5.769   4.806  18.258  0.00  0.00    +0.000 A 
ATOM      7  N   UNL     1       6.204   3.612  18.817  0.00  0.00    +0.000 N 
ATOM      8  C   UNL     1       4.479   5.045  17.832  0.00  0.00    +0.000 A 
ATOM      9  H   UNL     1       7.109   3.780  19.253  0.00  0.00    +0.000 HD
ATOM     10  H   UNL     1       5.531   3.216  19.478  0.00  0.00    +0.000 HD
ENDROOT
BRANCH   8  11
ATOM     11  S   UNL     1       3.402   3.669  17.680  0.00  0.00    +0.000 S 
ATOM     12  O   UNL     1       2.344   4.061  16.765  0.00  0.00    +0.000 OA
ATOM     13  O   UNL     1       4.239   2.534  17.303  0.00  0.00    +0.000 OA
BRANCH  11  14
ATOM     14  C   UNL     1       2.594   3.205  19.234  0.00  0.00    +0.000 A 
ATOM     15  C   UNL     1       3.314   2.565  20.255  0.00  0.00    +0.000 A 
ATOM     16  C   UNL     1       2.749   2.385  21.528  0.00  0.00    +0.000 A 
ATOM     17  C   UNL     1       1.468   2.854  21.804  0.00  0.00    +0.000 A 
ATOM     18  C   UNL     1       0.742   3.494  20.796  0.00  0.00    +0.000 A 
ATOM     19  C   UNL     1       1.306   3.671  19.515  0.00  0.00    +0.000 A 
ENDBRANCH  11  14
ENDBRANCH   8  11
BRANCH   1  20
ATOM     20  N   UNL     1       2.800   6.871  17.672  0.00  0.00    +0.000 N 
ATOM     21  H   UNL     1       2.130   6.096  17.728  0.00  0.00    +0.000 HD
BRANCH  20  27
ATOM     22  C   UNL     1       0.544   8.632  21.815  0.00  0.00    +0.000 C 
ATOM     23  C   UNL     1       1.112   8.846  20.438  0.00  0.00    +0.000 A 
ATOM     24  C   UNL     1       0.757   9.998  19.725  0.00  0.00    +0.000 A 
ATOM     25  C   UNL     1       1.175  10.153  18.408  0.00  0.00    +0.000 A 
ATOM     26  C   UNL     1       1.908   9.141  17.779  0.00  0.00    +0.000 A 
ATOM     27  C   UNL     1       2.248   7.948  18.450  0.00  0.00    +0.000 A 
ATOM     28  C   UNL     1       1.889   7.845  19.806  0.00  0.00    +0.000 A 
ENDBRANCH  20  27
ENDBRANCH   1  20
TORSDOF 4
ENDMDL
MODEL 6
REMARK VINA RESULT:      -7.9      2.334      4.673
REMARK  Name = 
REMARK  6 active torsions:
REMARK  status: ('A' for Active; 'I' for Inactive)
REMARK    1  A    between atoms: C_1  and  C_2
REMARK    2  A    between atoms: C_6  and  N_7
REMARK    3  A    between atoms: N_7  and  C_8
REMARK    4  A    between atoms: C_10  and  C_11
REMARK    5  A    between atoms: C_15  and  S_16
REMARK    6  A    between atoms: S_16  and  C_19
REMARK                            x       y       z     vdW  Elec       q    Type
REMARK                         _______ _______ _______ _____ _____    ______ ____
ROOT
ATOM      1  C   UNL     1       4.394   6.579  17.558  0.00  0.00    +0.000 A 
ATOM      2  N   UNL     1       5.411   7.453  17.359  0.00  0.00    +0.000 NA
ATOM      3  C   UNL     1       6.658   7.046  17.622  0.00  0.00    +0.000 A 
ATOM      4  C   UNL     1       7.810   7.892  17.180  0.00  0.00    +0.000 C 
ATOM      5  N   UNL     1       6.945   5.898  18.245  0.00  0.00    +0.000 NA
ATOM      6  C   UNL     1       5.941   5.023  18.397  0.00  0.00    +0.000 A 
ATOM      7  N   UNL     1       6.304   3.882  19.099  0.00  0.00    +0.000 N 
ATOM      8  C   UNL     1       4.684   5.256  17.880  0.00  0.00    +0.000 A 
ATOM      9  H   UNL     1       7.192   4.066  19.563  0.00  0.00    +0.000 HD
ATOM     10  H   UNL     1       5.584   3.578  19.761  0.00  0.00    +0.000 HD
ENDROOT
BRANCH   8  11
ATOM     11  S   UNL     1       3.566   3.906  17.814  0.00  0.00    +0.000 S 
ATOM     12  O   UNL     1       2.514   4.276  16.883  0.00  0.00    +0.000 OA
ATOM     13  O   UNL     1       4.367   2.727  17.500  0.00  0.00    +0.000 OA
BRANCH  11  14
ATOM     14  C   UNL     1       2.755   3.557  19.396  0.00  0.00    +0.000 A 
ATOM     15  C   UNL     1       1.404   3.880  19.598  0.00  0.00    +0.000 A 
ATOM     16  C   UNL     1       0.722   3.433  20.741  0.00  0.00    +0.000 A 
ATOM     17  C   UNL     1       1.372   2.647  21.689  0.00  0.00    +0.000 A 
ATOM     18  C   UNL     1       2.716   2.319  21.499  0.00  0.00    +0.000 A 
ATOM     19  C   UNL     1       3.405   2.771  20.353  0.00  0.00    +0.000 A 
ENDBRANCH  11  14
ENDBRANCH   8  11
BRANCH   1  20
ATOM     20  N   UNL     1       3.083   7.108  17.443  0.00  0.00    +0.000 N 
ATOM     21  H   UNL     1       2.407   6.359  17.253  0.00  0.00    +0.000 HD
BRANCH  20  27
ATOM     22  C   UNL     1       0.619   8.253  21.683  0.00  0.00    +0.000 C 
ATOM     23  C   UNL     1       1.181   8.647  20.344  0.00  0.00    +0.000 A 
ATOM     24  C   UNL     1       0.726   9.822  19.732  0.00  0.00    +0.000 A 
ATOM     25  C   UNL     1       1.143  10.139  18.444  0.00  0.00    +0.000 A 
ATOM     26  C   UNL     1       1.977   9.263  17.740  0.00  0.00    +0.000 A 
ATOM     27  C   UNL     1       2.422   8.050  18.305  0.00  0.00    +0.000 A 
ATOM     28  C   UNL     1       2.058   7.787  19.638  0.00  0.00    +0.000 A 
ENDBRANCH  20  27
ENDBRANCH   1  20
TORSDOF 4
ENDMDL
MODEL 7
REMARK VINA RESULT:      -7.9      2.007      2.807
REMARK  Name = 
REMARK  6 active torsions:
REMARK  status: ('A' for Active; 'I' for Inactive)
REMARK    1  A    between atoms: C_1  and  C_2
REMARK    2  A    between atoms: C_6  and  N_7
REMARK    3  A    between atoms: N_7  and  C_8
REMARK    4  A    between atoms: C_10  and  C_11
REMARK    5  A    between atoms: C_15  and  S_16
REMARK    6  A    between atoms: S_16  and  C_19
REMARK                            x       y       z     vdW  Elec       q    Type
REMARK                         _______ _______ _______ _____ _____    ______ ____
ROOT
ATOM      1  C   UNL     1       2.941   4.785  19.902  0.00  0.00    +0.000 A 
ATOM      2  N   UNL     1       2.315   4.258  20.984  0.00  0.00    +0.000 NA
ATOM      3  C   UNL     1       1.896   2.988  20.918  0.00  0.00    +0.000 A 
ATOM      4  C   UNL     1       1.432   2.309  22.167  0.00  0.00    +0.000 C 
ATOM      5  N   UNL     1       1.889   2.270  19.791  0.00  0.00    +0.000 NA
ATOM      6  C   UNL     1       2.549   2.781  18.742  0.00  0.00    +0.000 A 
ATOM      7  N   UNL     1       2.451   2.004  17.595  0.00  0.00    +0.000 N 
ATOM      8  C   UNL     1       3.260   3.959  18.828  0.00  0.00    +0.000 A 
ATOM      9  H   UNL     1       1.693   1.337  17.730  0.00  0.00    +0.000 HD
ATOM     10  H   UNL     1       2.320   2.563  16.748  0.00  0.00    +0.000 HD
ENDROOT
BRANCH   8  11
ATOM     11  S   UNL     1       4.372   4.338  17.527  0.00  0.00    +0.000 S 
ATOM     12  O   UNL     1       4.992   3.088  17.124  0.00  0.00    +0.000 OA
ATOM     13  O   UNL     1       3.597   5.065  16.526  0.00  0.00    +0.000 OA
BRANCH  11  14
ATOM     14  C   UNL     1       5.719   5.445  18.022  0.00  0.00    +0.000 A 
ATOM     15  C   UNL     1       6.590   5.094  19.065  0.00  0.00    +0.000 A 
ATOM     16  C   UNL     1       7.748   5.848  19.318  0.00  0.00    +0.000 A 
ATOM     17  C   UNL     1       8.060   6.949  18.526  0.00  0.00    +0.000 A 
ATOM     18  C   UNL     1       7.202   7.307  17.484  0.00  0.00    +0.000 A 
ATOM     19  C   UNL     1       6.036   6.554  17.231  0.00  0.00    +0.000 A 
ENDBRANCH  11  14
ENDBRANCH   8  11
BRANCH   1  20
ATOM     20  N   UNL     1       3.201   6.179  19.947  0.00  0.00    +0.000 N 
ATOM     21  H   UNL     1       3.996   6.417  19.345  0.00  0.00    +0.000 HD
BRANCH  20  27
ATOM     22  C   UNL     1       1.570  10.419  17.775  0.00  0.00    +0.000 C 
ATOM     23  C   UNL     1       1.454   9.359  18.837  0.00  0.00    +0.000 A 
ATOM     24  C   UNL     1       0.687   9.620  19.980  0.00  0.00    +0.000 A 
ATOM     25  C   UNL     1       0.666   8.702  21.024  0.00  0.00    +0.000 A 
ATOM     26  C   UNL     1       1.446   7.542  20.957  0.00  0.00    +0.000 A 
ATOM     27  C   UNL     1       2.265   7.265  19.843  0.00  0.00    +0.000 A 
ATOM     28  C   UNL     1       2.208   8.163  18.761  0.00  0.00    +0.000 A 
ENDBRANCH  20  27
ENDBRANCH   1  20
TORSDOF 4
ENDMDL
MODEL 8
REMARK VINA RESULT:      -7.8      1.930      2.494
REMARK  Name = 
REMARK  6 active torsions:
REMARK  status: ('A' for Active; 'I' for Inactive)
REMARK    1  A    between atoms: C_1  and  C_2
REMARK    2  A    between atoms: C_6  and  N_7
REMARK    3  A    between atoms: N_7  and  C_8
REMARK    4  A    between atoms: C_10  and  C_11
REMARK    5  A    between atoms: C_15  and  S_16
REMARK    6  A    between atoms: S_16  and  C_19
REMARK                            x       y       z     vdW  Elec       q    Type
REMARK                         _______ _______ _______ _____ _____    ______ ____
ROOT
ATOM      1  C   UNL     1       3.218   4.827  19.636  0.00  0.00    +0.000 A 
ATOM      2  N   UNL     1       2.570   4.411  20.752  0.00  0.00    +0.000 NA
ATOM      3  C   UNL     1       2.033   3.184  20.754  0.00  0.00    +0.000 A 
ATOM      4  C   UNL     1       1.535   2.609  22.041  0.00  0.00    +0.000 C 
ATOM      5  N   UNL     1       1.934   2.420  19.662  0.00  0.00    +0.000 NA
ATOM      6  C   UNL     1       2.615   2.818  18.578  0.00  0.00    +0.000 A 
ATOM      7  N   UNL     1       2.419   2.004  17.471  0.00  0.00    +0.000 N 
ATOM      8  C   UNL     1       3.435   3.927  18.597  0.00  0.00    +0.000 A 
ATOM      9  H   UNL     1       1.605   1.418  17.651  0.00  0.00    +0.000 HD
ATOM     10  H   UNL     1       2.323   2.534  16.601  0.00  0.00    +0.000 HD
ENDROOT
BRANCH   8  11
ATOM     11  S   UNL     1       4.549   4.141  17.259  0.00  0.00    +0.000 S 
ATOM     12  O   UNL     1       5.062   2.824  16.924  0.00  0.00    +0.000 OA
ATOM     13  O   UNL     1       3.813   4.865  16.227  0.00  0.00    +0.000 OA
BRANCH  11  14
ATOM     14  C   UNL     1       5.986   5.166  17.668  0.00  0.00    +0.000 A 
ATOM     15  C   UNL     1       6.199   6.394  17.023  0.00  0.00    +0.000 A 
ATOM     16  C   UNL     1       7.192   7.279  17.475  0.00  0.00    +0.000 A 
ATOM     17  C   UNL     1       7.972   6.959  18.582  0.00  0.00    +0.000 A 
ATOM     18  C   UNL     1       7.769   5.740  19.232  0.00  0.00    +0.000 A 
ATOM     19  C   UNL     1       6.775   4.847  18.777  0.00  0.00    +0.000 A 
ENDBRANCH  11  14
ENDBRANCH   8  11
BRANCH   1  20
ATOM     20  N   UNL     1       3.608   6.191  19.611  0.00  0.00    +0.000 N 
ATOM     21  H   UNL     1       4.462   6.312  19.057  0.00  0.00    +0.000 HD
BRANCH  20  27
ATOM     22  C   UNL     1      -0.129   9.316  20.885  0.00  0.00    +0.000 C 
ATOM     23  C   UNL     1       0.949   8.878  19.930  0.00  0.00    +0.000 A 
ATOM     24  C   UNL     1       0.914   9.336  18.607  0.00  0.00    +0.000 A 
ATOM     25  C   UNL     1       1.830   8.848  17.681  0.00  0.00    +0.000 A 
ATOM     26  C   UNL     1       2.754   7.866  18.056  0.00  0.00    +0.000 A 
ATOM     27  C   UNL     1       2.791   7.348  19.367  0.00  0.00    +0.000 A 
ATOM     28  C   UNL     1       1.913   7.914  20.310  0.00  0.00    +0.000 A 
ENDBRANCH  20  27
ENDBRANCH   1  20
TORSDOF 4
ENDMDL
MODEL 9
REMARK VINA RESULT:      -7.8      2.546      4.660
REMARK  Name = 
REMARK  6 active torsions:
REMARK  status: ('A' for Active; 'I' for Inactive)
REMARK    1  A    between atoms: C_1  and  C_2
REMARK    2  A    between atoms: C_6  and  N_7
REMARK    3  A    between atoms: N_7  and  C_8
REMARK    4  A    between atoms: C_10  and  C_11
REMARK    5  A    between atoms: C_15  and  S_16
REMARK    6  A    between atoms: S_16  and  C_19
REMARK                            x       y       z     vdW  Elec       q    Type
REMARK                         _______ _______ _______ _____ _____    ______ ____
ROOT
ATOM      1  C   UNL     1       5.419   6.965  17.107  0.00  0.00    +0.000 A 
ATOM      2  N   UNL     1       6.208   8.037  17.365  0.00  0.00    +0.000 NA
ATOM      3  C   UNL     1       7.473   7.818  17.744  0.00  0.00    +0.000 A 
ATOM      4  C   UNL     1       8.429   8.968  17.792  0.00  0.00    +0.000 C 
ATOM      5  N   UNL     1       7.950   6.611  18.064  0.00  0.00    +0.000 NA
ATOM      6  C   UNL     1       7.180   5.555  17.764  0.00  0.00    +0.000 A 
ATOM      7  N   UNL     1       7.719   4.344  18.176  0.00  0.00    +0.000 N 
ATOM      8  C   UNL     1       5.981   5.691  17.097  0.00  0.00    +0.000 A 
ATOM      9  H   UNL     1       8.468   4.540  18.837  0.00  0.00    +0.000 HD
ATOM     10  H   UNL     1       7.017   3.712  18.571  0.00  0.00    +0.000 HD
ENDROOT
BRANCH   8  11
ATOM     11  S   UNL     1       5.247   4.242  16.437  0.00  0.00    +0.000 S 
ATOM     12  O   UNL     1       4.494   4.648  15.262  0.00  0.00    +0.000 OA
ATOM     13  O   UNL     1       6.331   3.283  16.249  0.00  0.00    +0.000 OA
BRANCH  11  14
ATOM     14  C   UNL     1       4.064   3.452  17.559  0.00  0.00    +0.000 A 
ATOM     15  C   UNL     1       4.426   3.133  18.877  0.00  0.00    +0.000 A 
ATOM     16  C   UNL     1       3.461   2.709  19.805  0.00  0.00    +0.000 A 
ATOM     17  C   UNL     1       2.122   2.613  19.437  0.00  0.00    +0.000 A 
ATOM     18  C   UNL     1       1.749   2.929  18.128  0.00  0.00    +0.000 A 
ATOM     19  C   UNL     1       2.718   3.350  17.193  0.00  0.00    +0.000 A 
ENDBRANCH  11  14
ENDBRANCH   8  11
BRANCH   1  20
ATOM     20  N   UNL     1       4.044   7.237  16.890  0.00  0.00    +0.000 N 
ATOM     21  H   UNL     1       3.635   6.542  16.256  0.00  0.00    +0.000 HD
BRANCH  20  27
ATOM     22  C   UNL     1       0.837  10.468  19.040  0.00  0.00    +0.000 C 
ATOM     23  C   UNL     1       1.480   9.110  18.967  0.00  0.00    +0.000 A 
ATOM     24  C   UNL     1       1.410   8.260  20.079  0.00  0.00    +0.000 A 
ATOM     25  C   UNL     1       2.099   7.053  20.073  0.00  0.00    +0.000 A 
ATOM     26  C   UNL     1       2.901   6.707  18.980  0.00  0.00    +0.000 A 
ATOM     27  C   UNL     1       3.033   7.555  17.861  0.00  0.00    +0.000 A 
ATOM     28  C   UNL     1       2.262   8.732  17.849  0.00  0.00    +0.000 A 
ENDBRANCH  20  27
ENDBRANCH   1  20
TORSDOF 4
ENDMDL
