MODEL 1
REMARK VINA RESULT:      -6.6      0.000      0.000
REMARK  Name = 
REMARK  5 active torsions:
REMARK  status: ('A' for Active; 'I' for Inactive)
REMARK    1  A    between atoms: C_1  and  N_2
REMARK    2  A    between atoms: C_5  and  C_6
REMARK    3  A    between atoms: C_13  and  C_14
REMARK    4  A    between atoms: C_14  and  C_15
REMARK    5  A    between atoms: C_15  and  C_16
REMARK                            x       y       z     vdW  Elec       q    Type
REMARK                         _______ _______ _______ _____ _____    ______ ____
ROOT
ATOM      1  C   UNL     1       6.464   4.086  16.129  0.00  0.00    +0.000 C 
ATOM      2  N   UNL     1       5.529   4.841  16.964  0.00  0.00    +0.000 NA
ATOM      3  C   UNL     1       5.559   6.262  16.614  0.00  0.00    +0.000 C 
ATOM      4  C   UNL     1       4.637   7.055  17.531  0.00  0.00    +0.000 C 
ATOM      5  C   UNL     1       3.186   6.531  17.483  0.00  0.00    +0.000 C 
ATOM      6  C   UNL     1       3.171   5.001  17.778  0.00  0.00    +0.000 C 
ATOM      7  C   UNL     1       4.175   4.293  16.838  0.00  0.00    +0.000 C 
ENDROOT
BRANCH   5   8
ATOM      8  C   UNL     1       2.353   7.415  18.407  0.00  0.00    +0.000 A 
ATOM      9  C   UNL     1       1.803   8.608  17.910  0.00  0.00    +0.000 A 
ATOM     10  C   UNL     1       1.170   9.517  18.767  0.00  0.00    +0.000 A 
ATOM     11  C   UNL     1       1.079   9.233  20.125  0.00  0.00    +0.000 A 
ATOM     12 CL   UNL     1       0.366  10.376  21.197  0.00  0.00    +0.000 Cl
ATOM     13  C   UNL     1       1.589   8.040  20.631  0.00  0.00    +0.000 A 
ATOM     14  C   UNL     1       2.226   7.140  19.776  0.00  0.00    +0.000 A 
ENDBRANCH   5   8
BRANCH   6  15
ATOM     15  C   UNL     1       1.755   4.385  17.641  0.00  0.00    +0.000 C 
BRANCH  15  16
ATOM     16  C   UNL     1       1.538   3.172  18.562  0.00  0.00    +0.000 C 
BRANCH  16  17
ATOM     17  C   UNL     1       1.598   3.531  20.035  0.00  0.00    +0.000 C 
ATOM     18  F   UNL     1       0.488   4.244  20.366  0.00  0.00    +0.000 F 
ENDBRANCH  16  17
ENDBRANCH  15  16
ENDBRANCH   6  15
TORSDOF 4
ENDMDL
MODEL 2
REMARK VINA RESULT:      -6.4      4.097      5.663
REMARK  Name = 
REMARK  5 active torsions:
REMARK  status: ('A' for Active; 'I' for Inactive)
REMARK    1  A    between atoms: C_1  and  N_2
REMARK    2  A    between atoms: C_5  and  C_6
REMARK    3  A    between atoms: C_13  and  C_14
REMARK    4  A    between atoms: C_14  and  C_15
REMARK    5  A    between atoms: C_15  and  C_16
REMARK                            x       y       z     vdW  Elec       q    Type
REMARK                         _______ _______ _______ _____ _____    ______ ____
ROOT
ATOM      1  C   UNL     1       1.286   2.534  18.749  0.00  0.00    +0.000 C 
ATOM      2  N   UNL     1       2.321   3.524  18.449  0.00  0.00    +0.000 NA
ATOM      3  C   UNL     1       3.023   3.922  19.670  0.00  0.00    +0.000 C 
ATOM      4  C   UNL     1       4.052   5.003  19.365  0.00  0.00    +0.000 C 
ATOM      5  C   UNL     1       5.068   4.547  18.295  0.00  0.00    +0.000 C 
ATOM      6  C   UNL     1       4.309   4.050  17.028  0.00  0.00    +0.000 C 
ATOM      7  C   UNL     1       3.254   3.000  17.447  0.00  0.00    +0.000 C 
ENDROOT
BRANCH   5   8
ATOM      8  C   UNL     1       6.060   5.688  18.097  0.00  0.00    +0.000 A 
ATOM      9  C   UNL     1       7.280   5.673  18.794  0.00  0.00    +0.000 A 
ATOM     10  C   UNL     1       8.142   6.776  18.757  0.00  0.00    +0.000 A 
ATOM     11  C   UNL     1       7.788   7.900  18.017  0.00  0.00    +0.000 A 
ATOM     12 CL   UNL     1       8.806   9.288  18.023  0.00  0.00    +0.000 Cl
ATOM     13  C   UNL     1       6.600   7.921  17.293  0.00  0.00    +0.000 A 
ATOM     14  C   UNL     1       5.740   6.823  17.338  0.00  0.00    +0.000 A 
ENDBRANCH   5   8
BRANCH   6  15
ATOM     15  C   UNL     1       5.266   3.477  15.952  0.00  0.00    +0.000 C 
BRANCH  15  16
ATOM     16  C   UNL     1       5.394   4.386  14.718  0.00  0.00    +0.000 C 
BRANCH  16  17
ATOM     17  C   UNL     1       6.836   4.655  14.330  0.00  0.00    +0.000 C 
ATOM     18  F   UNL     1       7.604   4.667  15.451  0.00  0.00    +0.000 F 
ENDBRANCH  16  17
ENDBRANCH  15  16
ENDBRANCH   6  15
TORSDOF 4
ENDMDL
MODEL 3
REMARK VINA RESULT:      -6.3      1.045      1.576
REMARK  Name = 
REMARK  5 active torsions:
REMARK  status: ('A' for Active; 'I' for Inactive)
REMARK    1  A    between atoms: C_1  and  N_2
REMARK    2  A    between atoms: C_5  and  C_6
REMARK    3  A    between atoms: C_13  and  C_14
REMARK    4  A    between atoms: C_14  and  C_15
REMARK    5  A    between atoms: C_15  and  C_16
REMARK                            x       y       z     vdW  Elec       q    Type
REMARK                         _______ _______ _______ _____ _____    ______ ____
ROOT
ATOM      1  C   UNL     1       6.499   3.994  15.937  0.00  0.00    +0.000 C 
ATOM      2  N   UNL     1       5.631   4.767  16.825  0.00  0.00    +0.000 NA
ATOM      3  C   UNL     1       5.706   6.194  16.505  0.00  0.00    +0.000 C 
ATOM      4  C   UNL     1       4.854   7.002  17.476  0.00  0.00    +0.000 C 
ATOM      5  C   UNL     1       3.382   6.538  17.476  0.00  0.00    +0.000 C 
ATOM      6  C   UNL     1       3.316   5.003  17.738  0.00  0.00    +0.000 C 
ATOM      7  C   UNL     1       4.251   4.277  16.743  0.00  0.00    +0.000 C 
ENDROOT
BRANCH   5   8
ATOM      8  C   UNL     1       2.624   7.433  18.452  0.00  0.00    +0.000 A 
ATOM      9  C   UNL     1       2.399   6.989  19.766  0.00  0.00    +0.000 A 
ATOM     10  C   UNL     1       1.575   7.713  20.636  0.00  0.00    +0.000 A 
ATOM     11  C   UNL     1       0.975   8.889  20.197  0.00  0.00    +0.000 A 
ATOM     12 CL   UNL     1      -0.096   9.747  21.235  0.00  0.00    +0.000 Cl
ATOM     13  C   UNL     1       1.212   9.362  18.909  0.00  0.00    +0.000 A 
ATOM     14  C   UNL     1       2.029   8.634  18.042  0.00  0.00    +0.000 A 
ENDBRANCH   5   8
BRANCH   6  15
ATOM     15  C   UNL     1       1.871   4.449  17.646  0.00  0.00    +0.000 C 
BRANCH  15  16
ATOM     16  C   UNL     1       1.478   3.597  18.866  0.00  0.00    +0.000 C 
BRANCH  16  17
ATOM     17  C   UNL     1       2.200   2.263  18.911  0.00  0.00    +0.000 C 
ATOM     18  F   UNL     1       2.217   1.724  17.663  0.00  0.00    +0.000 F 
ENDBRANCH  16  17
ENDBRANCH  15  16
ENDBRANCH   6  15
TORSDOF 4
ENDMDL
MODEL 4
REMARK VINA RESULT:      -6.2      0.762      1.398
REMARK  Name = 
REMARK  5 active torsions:
REMARK  status: ('A' for Active; 'I' for Inactive)
REMARK    1  A    between atoms: C_1  and  N_2
REMARK    2  A    between atoms: C_5  and  C_6
REMARK    3  A    between atoms: C_13  and  C_14
REMARK    4  A    between atoms: C_14  and  C_15
REMARK    5  A    between atoms: C_15  and  C_16
REMARK                            x       y       z     vdW  Elec       q    Type
REMARK                         _______ _______ _______ _____ _____    ______ ____
ROOT
ATOM      1  C   UNL     1       5.935   3.711  16.052  0.00  0.00    +0.000 C 
ATOM      2  N   UNL     1       5.181   4.625  16.910  0.00  0.00    +0.000 NA
ATOM      3  C   UNL     1       5.163   5.972  16.339  0.00  0.00    +0.000 C 
ATOM      4  C   UNL     1       4.438   6.936  17.269  0.00  0.00    +0.000 C 
ATOM      5  C   UNL     1       2.998   6.471  17.571  0.00  0.00    +0.000 C 
ATOM      6  C   UNL     1       3.019   5.008  18.105  0.00  0.00    +0.000 C 
ATOM      7  C   UNL     1       3.821   4.121  17.123  0.00  0.00    +0.000 C 
ENDROOT
BRANCH   5   8
ATOM      8  C   UNL     1       2.363   7.522  18.477  0.00  0.00    +0.000 A 
ATOM      9  C   UNL     1       2.277   7.283  19.859  0.00  0.00    +0.000 A 
ATOM     10  C   UNL     1       1.562   8.150  20.694  0.00  0.00    +0.000 A 
ATOM     11  C   UNL     1       0.934   9.266  20.151  0.00  0.00    +0.000 A 
ATOM     12 CL   UNL     1      -0.006  10.298  21.157  0.00  0.00    +0.000 Cl
ATOM     13  C   UNL     1       1.035   9.538  18.789  0.00  0.00    +0.000 A 
ATOM     14  C   UNL     1       1.742   8.668  17.958  0.00  0.00    +0.000 A 
ENDBRANCH   5   8
BRANCH   6  15
ATOM     15  C   UNL     1       1.594   4.439  18.329  0.00  0.00    +0.000 C 
BRANCH  15  16
ATOM     16  C   UNL     1       1.327   4.053  19.794  0.00  0.00    +0.000 C 
BRANCH  16  17
ATOM     17  C   UNL     1       2.582   3.615  20.527  0.00  0.00    +0.000 C 
ATOM     18  F   UNL     1       2.248   3.219  21.784  0.00  0.00    +0.000 F 
ENDBRANCH  16  17
ENDBRANCH  15  16
ENDBRANCH   6  15
TORSDOF 4
ENDMDL
MODEL 5
REMARK VINA RESULT:      -6.1      2.265      3.752
REMARK  Name = 
REMARK  5 active torsions:
REMARK  status: ('A' for Active; 'I' for Inactive)
REMARK    1  A    between atoms: C_1  and  N_2
REMARK    2  A    between atoms: C_5  and  C_6
REMARK    3  A    between atoms: C_13  and  C_14
REMARK    4  A    between atoms: C_14  and  C_15
REMARK    5  A    between atoms: C_15  and  C_16
REMARK                            x       y       z     vdW  Elec       q    Type
REMARK                         _______ _______ _______ _____ _____    ______ ____
ROOT
ATOM      1  C   UNL     1       3.485   1.624  18.535  0.00  0.00    +0.000 C 
ATOM      2  N   UNL     1       3.029   3.012  18.454  0.00  0.00    +0.000 NA
ATOM      3  C   UNL     1       2.557   3.477  19.759  0.00  0.00    +0.000 C 
ATOM      4  C   UNL     1       2.019   4.898  19.656  0.00  0.00    +0.000 C 
ATOM      5  C   UNL     1       3.076   5.875  19.097  0.00  0.00    +0.000 C 
ATOM      6  C   UNL     1       3.631   5.333  17.747  0.00  0.00    +0.000 C 
ATOM      7  C   UNL     1       4.100   3.872  17.940  0.00  0.00    +0.000 C 
ENDROOT
BRANCH   5   8
ATOM      8  C   UNL     1       2.441   7.262  19.070  0.00  0.00    +0.000 A 
ATOM      9  C   UNL     1       1.855   7.777  20.239  0.00  0.00    +0.000 A 
ATOM     10  C   UNL     1       1.128   8.974  20.210  0.00  0.00    +0.000 A 
ATOM     11  C   UNL     1       0.988   9.664  19.010  0.00  0.00    +0.000 A 
ATOM     12 CL   UNL     1       0.037  11.097  18.949  0.00  0.00    +0.000 Cl
ATOM     13  C   UNL     1       1.589   9.187  17.849  0.00  0.00    +0.000 A 
ATOM     14  C   UNL     1       2.307   7.990  17.880  0.00  0.00    +0.000 A 
ENDBRANCH   5   8
BRANCH   6  15
ATOM     15  C   UNL     1       4.775   6.213  17.181  0.00  0.00    +0.000 C 
BRANCH  15  16
ATOM     16  C   UNL     1       5.353   5.668  15.863  0.00  0.00    +0.000 C 
BRANCH  16  17
ATOM     17  C   UNL     1       6.837   5.361  15.952  0.00  0.00    +0.000 C 
ATOM     18  F   UNL     1       7.195   5.274  17.261  0.00  0.00    +0.000 F 
ENDBRANCH  16  17
ENDBRANCH  15  16
ENDBRANCH   6  15
TORSDOF 4
ENDMDL
MODEL 6
REMARK VINA RESULT:      -6.1      1.329      1.439
REMARK  Name = 
REMARK  5 active torsions:
REMARK  status: ('A' for Active; 'I' for Inactive)
REMARK    1  A    between atoms: C_1  and  N_2
REMARK    2  A    between atoms: C_5  and  C_6
REMARK    3  A    between atoms: C_13  and  C_14
REMARK    4  A    between atoms: C_14  and  C_15
REMARK    5  A    between atoms: C_15  and  C_16
REMARK                            x       y       z     vdW  Elec       q    Type
REMARK                         _______ _______ _______ _____ _____    ______ ____
ROOT
ATOM      1  C   UNL     1       6.871   4.418  17.310  0.00  0.00    +0.000 C 
ATOM      2  N   UNL     1       5.854   5.306  17.874  0.00  0.00    +0.000 NA
ATOM      3  C   UNL     1       5.446   6.311  16.893  0.00  0.00    +0.000 C 
ATOM      4  C   UNL     1       4.438   7.276  17.505  0.00  0.00    +0.000 C 
ATOM      5  C   UNL     1       3.197   6.540  18.055  0.00  0.00    +0.000 C 
ATOM      6  C   UNL     1       3.645   5.418  19.039  0.00  0.00    +0.000 C 
ATOM      7  C   UNL     1       4.703   4.529  18.347  0.00  0.00    +0.000 C 
ENDROOT
BRANCH   5   8
ATOM      8  C   UNL     1       2.251   7.601  18.609  0.00  0.00    +0.000 A 
ATOM      9  C   UNL     1       1.754   8.599  17.754  0.00  0.00    +0.000 A 
ATOM     10  C   UNL     1       1.013   9.674  18.261  0.00  0.00    +0.000 A 
ATOM     11  C   UNL     1       0.761   9.752  19.627  0.00  0.00    +0.000 A 
ATOM     12 CL   UNL     1      -0.087  11.106  20.267  0.00  0.00    +0.000 Cl
ATOM     13  C   UNL     1       1.216   8.756  20.485  0.00  0.00    +0.000 A 
ATOM     14  C   UNL     1       1.961   7.689  19.978  0.00  0.00    +0.000 A 
ENDBRANCH   5   8
BRANCH   6  15
ATOM     15  C   UNL     1       2.453   4.568  19.549  0.00  0.00    +0.000 C 
BRANCH  15  16
ATOM     16  C   UNL     1       1.597   3.992  18.408  0.00  0.00    +0.000 C 
BRANCH  16  17
ATOM     17  C   UNL     1       1.529   2.476  18.428  0.00  0.00    +0.000 C 
ATOM     18  F   UNL     1       2.299   1.983  17.421  0.00  0.00    +0.000 F 
ENDBRANCH  16  17
ENDBRANCH  15  16
ENDBRANCH   6  15
TORSDOF 4
ENDMDL
MODEL 7
REMARK VINA RESULT:      -6.0      2.435      3.886
REMARK  Name = 
REMARK  5 active torsions:
REMARK  status: ('A' for Active; 'I' for Inactive)
REMARK    1  A    between atoms: C_1  and  N_2
REMARK    2  A    between atoms: C_5  and  C_6
REMARK    3  A    between atoms: C_13  and  C_14
REMARK    4  A    between atoms: C_14  and  C_15
REMARK    5  A    between atoms: C_15  and  C_16
REMARK                            x       y       z     vdW  Elec       q    Type
REMARK                         _______ _______ _______ _____ _____    ______ ____
ROOT
ATOM      1  C   UNL     1       3.656   1.214  18.374  0.00  0.00    +0.000 C 
ATOM      2  N   UNL     1       3.385   2.649  18.296  0.00  0.00    +0.000 NA
ATOM      3  C   UNL     1       2.137   2.976  18.988  0.00  0.00    +0.000 C 
ATOM      4  C   UNL     1       1.822   4.460  18.845  0.00  0.00    +0.000 C 
ATOM      5  C   UNL     1       2.968   5.347  19.375  0.00  0.00    +0.000 C 
ATOM      6  C   UNL     1       4.307   4.939  18.692  0.00  0.00    +0.000 C 
ATOM      7  C   UNL     1       4.510   3.413  18.843  0.00  0.00    +0.000 C 
ENDROOT
BRANCH   5   8
ATOM      8  C   UNL     1       2.530   6.799  19.213  0.00  0.00    +0.000 A 
ATOM      9  C   UNL     1       1.925   7.464  20.293  0.00  0.00    +0.000 A 
ATOM     10  C   UNL     1       1.371   8.739  20.131  0.00  0.00    +0.000 A 
ATOM     11  C   UNL     1       1.424   9.359  18.886  0.00  0.00    +0.000 A 
ATOM     12 CL   UNL     1       0.683  10.896  18.659  0.00  0.00    +0.000 Cl
ATOM     13  C   UNL     1       2.049   8.731  17.813  0.00  0.00    +0.000 A 
ATOM     14  C   UNL     1       2.594   7.456  17.976  0.00  0.00    +0.000 A 
ENDBRANCH   5   8
BRANCH   6  15
ATOM     15  C   UNL     1       5.522   5.718  19.257  0.00  0.00    +0.000 C 
BRANCH  15  16
ATOM     16  C   UNL     1       6.770   5.612  18.364  0.00  0.00    +0.000 C 
BRANCH  16  17
ATOM     17  C   UNL     1       7.097   6.911  17.650  0.00  0.00    +0.000 C 
ATOM     18  F   UNL     1       6.056   7.250  16.844  0.00  0.00    +0.000 F 
ENDBRANCH  16  17
ENDBRANCH  15  16
ENDBRANCH   6  15
TORSDOF 4
ENDMDL
MODEL 8
REMARK VINA RESULT:      -6.0      0.794      1.383
REMARK  Name = 
REMARK  5 active torsions:
REMARK  status: ('A' for Active; 'I' for Inactive)
REMARK    1  A    between atoms: C_1  and  N_2
REMARK    2  A    between atoms: C_5  and  C_6
REMARK    3  A    between atoms: C_13  and  C_14
REMARK    4  A    between atoms: C_14  and  C_15
REMARK    5  A    between atoms: C_15  and  C_16
REMARK                            x       y       z     vdW  Elec       q    Type
REMARK                         _______ _______ _______ _____ _____    ______ ____
ROOT
ATOM      1  C   UNL     1       6.880   4.349  17.050  0.00  0.00    +0.000 C 
ATOM      2  N   UNL     1       5.860   5.204  17.660  0.00  0.00    +0.000 NA
ATOM      3  C   UNL     1       5.901   6.548  17.082  0.00  0.00    +0.000 C 
ATOM      4  C   UNL     1       4.886   7.453  17.768  0.00  0.00    +0.000 C 
ATOM      5  C   UNL     1       3.454   6.884  17.680  0.00  0.00    +0.000 C 
ATOM      6  C   UNL     1       3.435   5.424  18.223  0.00  0.00    +0.000 C 
ATOM      7  C   UNL     1       4.532   4.602  17.508  0.00  0.00    +0.000 C 
ENDROOT
BRANCH   5   8
ATOM      8  C   UNL     1       2.526   7.883  18.365  0.00  0.00    +0.000 A 
ATOM      9  C   UNL     1       2.193   7.701  19.718  0.00  0.00    +0.000 A 
ATOM     10  C   UNL     1       1.224   8.504  20.332  0.00  0.00    +0.000 A 
ATOM     11  C   UNL     1       0.587   9.498  19.596  0.00  0.00    +0.000 A 
ATOM     12 CL   UNL     1      -0.655  10.443  20.322  0.00  0.00    +0.000 Cl
ATOM     13  C   UNL     1       0.928   9.715  18.264  0.00  0.00    +0.000 A 
ATOM     14  C   UNL     1       1.889   8.908  17.653  0.00  0.00    +0.000 A 
ENDBRANCH   5   8
BRANCH   6  15
ATOM     15  C   UNL     1       2.047   4.752  18.066  0.00  0.00    +0.000 C 
BRANCH  15  16
ATOM     16  C   UNL     1       1.828   3.592  19.053  0.00  0.00    +0.000 C 
BRANCH  16  17
ATOM     17  C   UNL     1       0.918   3.966  20.210  0.00  0.00    +0.000 C 
ATOM     18  F   UNL     1       1.587   4.800  21.050  0.00  0.00    +0.000 F 
ENDBRANCH  16  17
ENDBRANCH  15  16
ENDBRANCH   6  15
TORSDOF 4
ENDMDL
MODEL 9
REMARK VINA RESULT:      -6.0      3.611      6.079
REMARK  Name = 
REMARK  5 active torsions:
REMARK  status: ('A' for Active; 'I' for Inactive)
REMARK    1  A    between atoms: C_1  and  N_2
REMARK    2  A    between atoms: C_5  and  C_6
REMARK    3  A    between atoms: C_13  and  C_14
REMARK    4  A    between atoms: C_14  and  C_15
REMARK    5  A    between atoms: C_15  and  C_16
REMARK                            x       y       z     vdW  Elec       q    Type
REMARK                         _______ _______ _______ _____ _____    ______ ____
ROOT
ATOM      1  C   UNL     1       1.725   2.615  21.528  0.00  0.00    +0.000 C 
ATOM      2  N   UNL     1       2.728   2.957  20.519  0.00  0.00    +0.000 NA
ATOM      3  C   UNL     1       2.521   2.173  19.301  0.00  0.00    +0.000 C 
ATOM      4  C   UNL     1       3.608   2.481  18.279  0.00  0.00    +0.000 C 
ATOM      5  C   UNL     1       3.667   3.985  17.936  0.00  0.00    +0.000 C 
ATOM      6  C   UNL     1       3.807   4.817  19.245  0.00  0.00    +0.000 C 
ATOM      7  C   UNL     1       2.697   4.395  20.236  0.00  0.00    +0.000 C 
ENDROOT
BRANCH   5   8
ATOM      8  C   UNL     1       4.759   4.168  16.887  0.00  0.00    +0.000 A 
ATOM      9  C   UNL     1       6.071   4.461  17.298  0.00  0.00    +0.000 A 
ATOM     10  C   UNL     1       7.059   4.791  16.362  0.00  0.00    +0.000 A 
ATOM     11  C   UNL     1       6.741   4.823  15.008  0.00  0.00    +0.000 A 
ATOM     12 CL   UNL     1       7.930   5.295  13.858  0.00  0.00    +0.000 Cl
ATOM     13  C   UNL     1       5.456   4.503  14.579  0.00  0.00    +0.000 A 
ATOM     14  C   UNL     1       4.471   4.182  15.514  0.00  0.00    +0.000 A 
ENDBRANCH   5   8
BRANCH   6  15
ATOM     15  C   UNL     1       3.765   6.344  18.983  0.00  0.00    +0.000 C 
BRANCH  15  16
ATOM     16  C   UNL     1       2.521   6.782  18.190  0.00  0.00    +0.000 C 
BRANCH  16  17
ATOM     17  C   UNL     1       2.593   8.228  17.732  0.00  0.00    +0.000 C 
ATOM     18  F   UNL     1       1.332   8.725  17.630  0.00  0.00    +0.000 F 
ENDBRANCH  16  17
ENDBRANCH  15  16
ENDBRANCH   6  15
TORSDOF 4
ENDMDL
