MODEL 1
REMARK VINA RESULT:      -8.5      0.000      0.000
REMARK  Name = 
REMARK  9 active torsions:
REMARK  status: ('A' for Active; 'I' for Inactive)
REMARK    1  A    between atoms: C_1  and  O_2
REMARK    2  A    between atoms: O_2  and  C_3
REMARK    3  A    between atoms: C_6  and  C_7
REMARK    4  A    between atoms: N_9  and  C_10
REMARK    5  A    between atoms: C_15  and  C_16
REMARK    6  A    between atoms: N_18  and  C_19
REMARK    7  A    between atoms: N_18  and  C_20
REMARK    8  A    between atoms: C_24  and  O_25
REMARK    9  A    between atoms: O_25  and  C_26
REMARK                            x       y       z     vdW  Elec       q    Type
REMARK                         _______ _______ _______ _____ _____    ______ ____
ROOT
ATOM      1  C   UNL     1       2.647   5.665  18.573  0.00  0.00    +0.000 A 
ATOM      2  C   UNL     1       1.977   4.673  19.202  0.00  0.00    +0.000 A 
ATOM      3  N   UNL     1       2.277   3.322  19.042  0.00  0.00    +0.000 N 
ATOM      4  C   UNL     1       1.544   2.321  19.793  0.00  0.00    +0.000 C 
ATOM      5  C   UNL     1       3.299   2.860  18.192  0.00  0.00    +0.000 A 
ATOM      6  O   UNL     1       3.582   1.674  18.047  0.00  0.00    +0.000 OA
ATOM      7  C   UNL     1       4.035   3.911  17.502  0.00  0.00    +0.000 A 
ATOM      8  C   UNL     1       5.100   3.752  16.562  0.00  0.00    +0.000 A 
ATOM      9  C   UNL     1       5.664   4.957  16.179  0.00  0.00    +0.000 A 
ATOM     10  S   UNL     1       4.767   6.270  16.865  0.00  0.00    +0.000 S 
ATOM     11  C   UNL     1       3.716   5.236  17.722  0.00  0.00    +0.000 A 
ENDROOT
BRANCH   1  15
ATOM     12  C   UNL     1       1.350   9.691  19.335  0.00  0.00    +0.000 A 
ATOM     13  C   UNL     1       1.787   9.301  18.060  0.00  0.00    +0.000 A 
ATOM     14  C   UNL     1       2.194   7.989  17.806  0.00  0.00    +0.000 A 
ATOM     15  C   UNL     1       2.209   7.049  18.835  0.00  0.00    +0.000 A 
ATOM     16  C   UNL     1       1.840   7.452  20.124  0.00  0.00    +0.000 A 
ATOM     17  C   UNL     1       1.415   8.767  20.391  0.00  0.00    +0.000 A 
BRANCH  12  19
ATOM     18  C   UNL     1       1.449  11.987  18.746  0.00  0.00    +0.000 C 
ATOM     19  O   UNL     1       0.900  10.962  19.573  0.00  0.00    +0.000 OA
ENDBRANCH  12  19
BRANCH  17  20
ATOM     20  O   UNL     1       1.102   8.946  21.713  0.00  0.00    +0.000 OA
ATOM     21  C   UNL     1      -0.256   8.885  22.122  0.00  0.00    +0.000 C 
ENDBRANCH  17  20
ENDBRANCH   1  15
BRANCH   9  22
ATOM     22  C   UNL     1       6.774   5.281  15.280  0.00  0.00    +0.000 C 
ATOM     23  O   UNL     1       7.689   6.018  15.656  0.00  0.00    +0.000 OA
ATOM     24  N   UNL     1       6.823   4.749  13.975  0.00  0.00    +0.000 N 
ATOM     25  C   UNL     1       5.920   3.772  13.384  0.00  0.00    +0.000 C 
ATOM     26  C   UNL     1       7.906   5.177  13.101  0.00  0.00    +0.000 C 
ENDBRANCH   9  22
TORSDOF 4
ENDMDL
MODEL 2
REMARK VINA RESULT:      -8.5      1.124      1.124
REMARK  Name = 
REMARK  9 active torsions:
REMARK  status: ('A' for Active; 'I' for Inactive)
REMARK    1  A    between atoms: C_1  and  O_2
REMARK    2  A    between atoms: O_2  and  C_3
REMARK    3  A    between atoms: C_6  and  C_7
REMARK    4  A    between atoms: N_9  and  C_10
REMARK    5  A    between atoms: C_15  and  C_16
REMARK    6  A    between atoms: N_18  and  C_19
REMARK    7  A    between atoms: N_18  and  C_20
REMARK    8  A    between atoms: C_24  and  O_25
REMARK    9  A    between atoms: O_25  and  C_26
REMARK                            x       y       z     vdW  Elec       q    Type
REMARK                         _______ _______ _______ _____ _____    ______ ____
ROOT
ATOM      1  C   UNL     1       2.773   6.112  19.334  0.00  0.00    +0.000 A 
ATOM      2  C   UNL     1       2.295   5.241  20.252  0.00  0.00    +0.000 A 
ATOM      3  N   UNL     1       2.789   3.949  20.414  0.00  0.00    +0.000 N 
ATOM      4  C   UNL     1       2.256   3.093  21.457  0.00  0.00    +0.000 C 
ATOM      5  C   UNL     1       3.826   3.421  19.624  0.00  0.00    +0.000 A 
ATOM      6  O   UNL     1       4.279   2.287  19.761  0.00  0.00    +0.000 OA
ATOM      7  C   UNL     1       4.358   4.340  18.626  0.00  0.00    +0.000 A 
ATOM      8  C   UNL     1       5.385   4.082  17.667  0.00  0.00    +0.000 A 
ATOM      9  C   UNL     1       5.739   5.208  16.943  0.00  0.00    +0.000 A 
ATOM     10  S   UNL     1       4.687   6.523  17.349  0.00  0.00    +0.000 S 
ATOM     11  C   UNL     1       3.851   5.621  18.529  0.00  0.00    +0.000 A 
ENDROOT
BRANCH   1  15
ATOM     12  C   UNL     1       0.915   9.983  19.157  0.00  0.00    +0.000 A 
ATOM     13  C   UNL     1       1.422   9.371  18.000  0.00  0.00    +0.000 A 
ATOM     14  C   UNL     1       2.012   8.105  18.053  0.00  0.00    +0.000 A 
ATOM     15  C   UNL     1       2.142   7.444  19.273  0.00  0.00    +0.000 A 
ATOM     16  C   UNL     1       1.701   8.082  20.439  0.00  0.00    +0.000 A 
ATOM     17  C   UNL     1       1.093   9.351  20.399  0.00  0.00    +0.000 A 
BRANCH  12  19
ATOM     18  C   UNL     1      -1.087  11.180  18.723  0.00  0.00    +0.000 C 
ATOM     19  O   UNL     1       0.289  11.199  19.099  0.00  0.00    +0.000 OA
ENDBRANCH  12  19
BRANCH  17  20
ATOM     20  O   UNL     1       0.738   9.789  21.648  0.00  0.00    +0.000 OA
ATOM     21  C   UNL     1      -0.405   9.234  22.281  0.00  0.00    +0.000 C 
ENDBRANCH  17  20
ENDBRANCH   1  15
BRANCH   9  22
ATOM     22  C   UNL     1       6.739   5.429  15.896  0.00  0.00    +0.000 C 
ATOM     23  O   UNL     1       7.756   6.088  16.131  0.00  0.00    +0.000 OA
ATOM     24  N   UNL     1       6.567   4.884  14.608  0.00  0.00    +0.000 N 
ATOM     25  C   UNL     1       5.514   3.982  14.162  0.00  0.00    +0.000 C 
ATOM     26  C   UNL     1       7.554   5.210  13.588  0.00  0.00    +0.000 C 
ENDBRANCH   9  22
TORSDOF 4
ENDMDL
MODEL 3
REMARK VINA RESULT:      -7.9      2.268      7.012
REMARK  Name = 
REMARK  9 active torsions:
REMARK  status: ('A' for Active; 'I' for Inactive)
REMARK    1  A    between atoms: C_1  and  O_2
REMARK    2  A    between atoms: O_2  and  C_3
REMARK    3  A    between atoms: C_6  and  C_7
REMARK    4  A    between atoms: N_9  and  C_10
REMARK    5  A    between atoms: C_15  and  C_16
REMARK    6  A    between atoms: N_18  and  C_19
REMARK    7  A    between atoms: N_18  and  C_20
REMARK    8  A    between atoms: C_24  and  O_25
REMARK    9  A    between atoms: O_25  and  C_26
REMARK                            x       y       z     vdW  Elec       q    Type
REMARK                         _______ _______ _______ _____ _____    ______ ____
ROOT
ATOM      1  C   UNL     1       4.208   4.707  18.503  0.00  0.00    +0.000 A 
ATOM      2  C   UNL     1       4.208   3.511  19.134  0.00  0.00    +0.000 A 
ATOM      3  N   UNL     1       3.400   3.222  20.231  0.00  0.00    +0.000 N 
ATOM      4  C   UNL     1       3.421   1.897  20.821  0.00  0.00    +0.000 C 
ATOM      5  C   UNL     1       2.516   4.158  20.798  0.00  0.00    +0.000 A 
ATOM      6  O   UNL     1       1.789   3.916  21.759  0.00  0.00    +0.000 OA
ATOM      7  C   UNL     1       2.498   5.456  20.136  0.00  0.00    +0.000 A 
ATOM      8  C   UNL     1       1.730   6.605  20.497  0.00  0.00    +0.000 A 
ATOM      9  C   UNL     1       1.855   7.643  19.588  0.00  0.00    +0.000 A 
ATOM     10  S   UNL     1       3.040   7.237  18.392  0.00  0.00    +0.000 S 
ATOM     11  C   UNL     1       3.298   5.678  19.032  0.00  0.00    +0.000 A 
ENDROOT
BRANCH   1  15
ATOM     12  C   UNL     1       6.875   5.194  15.168  0.00  0.00    +0.000 A 
ATOM     13  C   UNL     1       5.926   4.159  15.190  0.00  0.00    +0.000 A 
ATOM     14  C   UNL     1       5.048   4.009  16.267  0.00  0.00    +0.000 A 
ATOM     15  C   UNL     1       5.127   4.868  17.361  0.00  0.00    +0.000 A 
ATOM     16  C   UNL     1       6.119   5.858  17.372  0.00  0.00    +0.000 A 
ATOM     17  C   UNL     1       7.001   6.029  16.290  0.00  0.00    +0.000 A 
BRANCH  12  19
ATOM     18  C   UNL     1       7.317   4.712  12.887  0.00  0.00    +0.000 C 
ATOM     19  O   UNL     1       7.700   5.375  14.091  0.00  0.00    +0.000 OA
ENDBRANCH  12  19
BRANCH  17  20
ATOM     20  O   UNL     1       7.888   7.050  16.508  0.00  0.00    +0.000 OA
ATOM     21  C   UNL     1       7.737   7.870  17.657  0.00  0.00    +0.000 C 
ENDBRANCH  17  20
ENDBRANCH   1  15
BRANCH   9  22
ATOM     22  C   UNL     1       1.248   8.974  19.527  0.00  0.00    +0.000 C 
ATOM     23  O   UNL     1       0.937   9.471  18.441  0.00  0.00    +0.000 OA
ATOM     24  N   UNL     1       0.998   9.707  20.705  0.00  0.00    +0.000 N 
ATOM     25  C   UNL     1       1.172   9.259  22.079  0.00  0.00    +0.000 C 
ATOM     26  C   UNL     1       0.472  11.059  20.572  0.00  0.00    +0.000 C 
ENDBRANCH   9  22
TORSDOF 4
ENDMDL
MODEL 4
REMARK VINA RESULT:      -7.7      0.788      1.836
REMARK  Name = 
REMARK  9 active torsions:
REMARK  status: ('A' for Active; 'I' for Inactive)
REMARK    1  A    between atoms: C_1  and  O_2
REMARK    2  A    between atoms: O_2  and  C_3
REMARK    3  A    between atoms: C_6  and  C_7
REMARK    4  A    between atoms: N_9  and  C_10
REMARK    5  A    between atoms: C_15  and  C_16
REMARK    6  A    between atoms: N_18  and  C_19
REMARK    7  A    between atoms: N_18  and  C_20
REMARK    8  A    between atoms: C_24  and  O_25
REMARK    9  A    between atoms: O_25  and  C_26
REMARK                            x       y       z     vdW  Elec       q    Type
REMARK                         _______ _______ _______ _____ _____    ______ ____
ROOT
ATOM      1  C   UNL     1       2.601   5.462  18.779  0.00  0.00    +0.000 A 
ATOM      2  C   UNL     1       1.930   4.420  19.318  0.00  0.00    +0.000 A 
ATOM      3  N   UNL     1       2.225   3.088  19.036  0.00  0.00    +0.000 N 
ATOM      4  C   UNL     1       1.490   2.025  19.696  0.00  0.00    +0.000 C 
ATOM      5  C   UNL     1       3.244   2.702  18.146  0.00  0.00    +0.000 A 
ATOM      6  O   UNL     1       3.523   1.532  17.894  0.00  0.00    +0.000 OA
ATOM      7  C   UNL     1       3.982   3.808  17.551  0.00  0.00    +0.000 A 
ATOM      8  C   UNL     1       5.044   3.731  16.598  0.00  0.00    +0.000 A 
ATOM      9  C   UNL     1       5.611   4.964  16.325  0.00  0.00    +0.000 A 
ATOM     10  S   UNL     1       4.720   6.213  17.128  0.00  0.00    +0.000 S 
ATOM     11  C   UNL     1       3.668   5.109  17.890  0.00  0.00    +0.000 A 
ENDROOT
BRANCH   1  15
ATOM     12  C   UNL     1       1.358   9.419  19.906  0.00  0.00    +0.000 A 
ATOM     13  C   UNL     1       1.267   8.348  20.808  0.00  0.00    +0.000 A 
ATOM     14  C   UNL     1       1.685   7.064  20.449  0.00  0.00    +0.000 A 
ATOM     15  C   UNL     1       2.168   6.818  19.165  0.00  0.00    +0.000 A 
ATOM     16  C   UNL     1       2.194   7.870  18.240  0.00  0.00    +0.000 A 
ATOM     17  C   UNL     1       1.788   9.170  18.592  0.00  0.00    +0.000 A 
BRANCH  12  19
ATOM     18  C   UNL     1      -0.109  10.793  21.167  0.00  0.00    +0.000 C 
ATOM     19  O   UNL     1       0.998  10.688  20.273  0.00  0.00    +0.000 OA
ENDBRANCH  12  19
BRANCH  17  20
ATOM     20  O   UNL     1       1.894  10.043  17.541  0.00  0.00    +0.000 OA
ATOM     21  C   UNL     1       2.482  11.317  17.750  0.00  0.00    +0.000 C 
ENDBRANCH  17  20
ENDBRANCH   1  15
BRANCH   9  22
ATOM     22  C   UNL     1       6.720   5.365  15.455  0.00  0.00    +0.000 C 
ATOM     23  O   UNL     1       7.581   6.150  15.862  0.00  0.00    +0.000 OA
ATOM     24  N   UNL     1       6.831   4.853  14.147  0.00  0.00    +0.000 N 
ATOM     25  C   UNL     1       6.002   3.832  13.523  0.00  0.00    +0.000 C 
ATOM     26  C   UNL     1       7.907   5.356  13.304  0.00  0.00    +0.000 C 
ENDBRANCH   9  22
TORSDOF 4
ENDMDL
MODEL 5
REMARK VINA RESULT:      -7.7      1.511      1.775
REMARK  Name = 
REMARK  9 active torsions:
REMARK  status: ('A' for Active; 'I' for Inactive)
REMARK    1  A    between atoms: C_1  and  O_2
REMARK    2  A    between atoms: O_2  and  C_3
REMARK    3  A    between atoms: C_6  and  C_7
REMARK    4  A    between atoms: N_9  and  C_10
REMARK    5  A    between atoms: C_15  and  C_16
REMARK    6  A    between atoms: N_18  and  C_19
REMARK    7  A    between atoms: N_18  and  C_20
REMARK    8  A    between atoms: C_24  and  O_25
REMARK    9  A    between atoms: O_25  and  C_26
REMARK                            x       y       z     vdW  Elec       q    Type
REMARK                         _______ _______ _______ _____ _____    ______ ____
ROOT
ATOM      1  C   UNL     1       2.215   6.441  19.820  0.00  0.00    +0.000 A 
ATOM      2  C   UNL     1       1.799   5.516  20.715  0.00  0.00    +0.000 A 
ATOM      3  N   UNL     1       2.171   4.174  20.661  0.00  0.00    +0.000 N 
ATOM      4  C   UNL     1       1.723   3.254  21.690  0.00  0.00    +0.000 C 
ATOM      5  C   UNL     1       3.005   3.651  19.656  0.00  0.00    +0.000 A 
ATOM      6  O   UNL     1       3.350   2.473  19.601  0.00  0.00    +0.000 OA
ATOM      7  C   UNL     1       3.466   4.628  18.679  0.00  0.00    +0.000 A 
ATOM      8  C   UNL     1       4.293   4.393  17.538  0.00  0.00    +0.000 A 
ATOM      9  C   UNL     1       4.644   5.559  16.879  0.00  0.00    +0.000 A 
ATOM     10  S   UNL     1       3.819   6.907  17.587  0.00  0.00    +0.000 S 
ATOM     11  C   UNL     1       3.091   5.952  18.798  0.00  0.00    +0.000 A 
ENDROOT
BRANCH   1  15
ATOM     12  C   UNL     1       0.780  10.457  20.347  0.00  0.00    +0.000 A 
ATOM     13  C   UNL     1       1.164   9.987  19.082  0.00  0.00    +0.000 A 
ATOM     14  C   UNL     1       1.616   8.677  18.905  0.00  0.00    +0.000 A 
ATOM     15  C   UNL     1       1.729   7.822  20.000  0.00  0.00    +0.000 A 
ATOM     16  C   UNL     1       1.413   8.310  21.275  0.00  0.00    +0.000 A 
ATOM     17  C   UNL     1       0.945   9.623  21.465  0.00  0.00    +0.000 A 
BRANCH  12  19
ATOM     18  C   UNL     1      -1.027  11.958  20.006  0.00  0.00    +0.000 C 
ATOM     19  O   UNL     1       0.286  11.724  20.513  0.00  0.00    +0.000 OA
ENDBRANCH  12  19
BRANCH  17  20
ATOM     20  O   UNL     1       0.697   9.893  22.785  0.00  0.00    +0.000 OA
ATOM     21  C   UNL     1      -0.645   9.953  23.243  0.00  0.00    +0.000 C 
ENDBRANCH  17  20
ENDBRANCH   1  15
BRANCH   9  22
ATOM     22  C   UNL     1       5.482   5.809  15.704  0.00  0.00    +0.000 C 
ATOM     23  O   UNL     1       5.125   6.616  14.841  0.00  0.00    +0.000 OA
ATOM     24  N   UNL     1       6.714   5.144  15.542  0.00  0.00    +0.000 N 
ATOM     25  C   UNL     1       7.372   4.258  16.491  0.00  0.00    +0.000 C 
ATOM     26  C   UNL     1       7.459   5.371  14.311  0.00  0.00    +0.000 C 
ENDBRANCH   9  22
TORSDOF 4
ENDMDL
MODEL 6
REMARK VINA RESULT:      -7.7      1.344      2.095
REMARK  Name = 
REMARK  9 active torsions:
REMARK  status: ('A' for Active; 'I' for Inactive)
REMARK    1  A    between atoms: C_1  and  O_2
REMARK    2  A    between atoms: O_2  and  C_3
REMARK    3  A    between atoms: C_6  and  C_7
REMARK    4  A    between atoms: N_9  and  C_10
REMARK    5  A    between atoms: C_15  and  C_16
REMARK    6  A    between atoms: N_18  and  C_19
REMARK    7  A    between atoms: N_18  and  C_20
REMARK    8  A    between atoms: C_24  and  O_25
REMARK    9  A    between atoms: O_25  and  C_26
REMARK                            x       y       z     vdW  Elec       q    Type
REMARK                         _______ _______ _______ _____ _____    ______ ____
ROOT
ATOM      1  C   UNL     1       2.743   5.870  19.709  0.00  0.00    +0.000 A 
ATOM      2  C   UNL     1       2.292   4.918  20.559  0.00  0.00    +0.000 A 
ATOM      3  N   UNL     1       2.797   3.620  20.595  0.00  0.00    +0.000 N 
ATOM      4  C   UNL     1       2.295   2.672  21.571  0.00  0.00    +0.000 C 
ATOM      5  C   UNL     1       3.816   3.171  19.734  0.00  0.00    +0.000 A 
ATOM      6  O   UNL     1       4.279   2.033  19.760  0.00  0.00    +0.000 OA
ATOM      7  C   UNL     1       4.317   4.178  18.809  0.00  0.00    +0.000 A 
ATOM      8  C   UNL     1       5.322   4.013  17.806  0.00  0.00    +0.000 A 
ATOM      9  C   UNL     1       5.651   5.201  17.174  0.00  0.00    +0.000 A 
ATOM     10  S   UNL     1       4.603   6.467  17.720  0.00  0.00    +0.000 S 
ATOM     11  C   UNL     1       3.802   5.459  18.838  0.00  0.00    +0.000 A 
ENDROOT
BRANCH   1  15
ATOM     12  C   UNL     1       0.899   9.746  19.923  0.00  0.00    +0.000 A 
ATOM     13  C   UNL     1       0.736   8.809  20.956  0.00  0.00    +0.000 A 
ATOM     14  C   UNL     1       1.347   7.555  20.896  0.00  0.00    +0.000 A 
ATOM     15  C   UNL     1       2.104   7.197  19.781  0.00  0.00    +0.000 A 
ATOM     16  C   UNL     1       2.210   8.103  18.718  0.00  0.00    +0.000 A 
ATOM     17  C   UNL     1       1.610   9.374  18.771  0.00  0.00    +0.000 A 
BRANCH  12  19
ATOM     18  C   UNL     1      -1.019  11.105  19.600  0.00  0.00    +0.000 C 
ATOM     19  O   UNL     1       0.344  10.995  20.005  0.00  0.00    +0.000 OA
ENDBRANCH  12  19
BRANCH  17  20
ATOM     20  O   UNL     1       1.839  10.096  17.629  0.00  0.00    +0.000 OA
ATOM     21  C   UNL     1       2.502  11.349  17.718  0.00  0.00    +0.000 C 
ENDBRANCH  17  20
ENDBRANCH   1  15
BRANCH   9  22
ATOM     22  C   UNL     1       6.623   5.519  16.126  0.00  0.00    +0.000 C 
ATOM     23  O   UNL     1       7.526   6.333  16.337  0.00  0.00    +0.000 OA
ATOM     24  N   UNL     1       6.553   4.895  14.864  0.00  0.00    +0.000 N 
ATOM     25  C   UNL     1       5.653   3.827  14.454  0.00  0.00    +0.000 C 
ATOM     26  C   UNL     1       7.496   5.319  13.838  0.00  0.00    +0.000 C 
ENDBRANCH   9  22
TORSDOF 4
ENDMDL
MODEL 7
REMARK VINA RESULT:      -7.6      2.098      6.708
REMARK  Name = 
REMARK  9 active torsions:
REMARK  status: ('A' for Active; 'I' for Inactive)
REMARK    1  A    between atoms: C_1  and  O_2
REMARK    2  A    between atoms: O_2  and  C_3
REMARK    3  A    between atoms: C_6  and  C_7
REMARK    4  A    between atoms: N_9  and  C_10
REMARK    5  A    between atoms: C_15  and  C_16
REMARK    6  A    between atoms: N_18  and  C_19
REMARK    7  A    between atoms: N_18  and  C_20
REMARK    8  A    between atoms: C_24  and  O_25
REMARK    9  A    between atoms: O_25  and  C_26
REMARK                            x       y       z     vdW  Elec       q    Type
REMARK                         _______ _______ _______ _____ _____    ______ ____
ROOT
ATOM      1  C   UNL     1       3.776   4.367  18.262  0.00  0.00    +0.000 A 
ATOM      2  C   UNL     1       3.484   3.066  18.485  0.00  0.00    +0.000 A 
ATOM      3  N   UNL     1       2.507   2.642  19.384  0.00  0.00    +0.000 N 
ATOM      4  C   UNL     1       2.218   1.227  19.529  0.00  0.00    +0.000 C 
ATOM      5  C   UNL     1       1.741   3.532  20.159  0.00  0.00    +0.000 A 
ATOM      6  O   UNL     1       0.870   3.175  20.948  0.00  0.00    +0.000 OA
ATOM      7  C   UNL     1       2.038   4.941  19.935  0.00  0.00    +0.000 A 
ATOM      8  C   UNL     1       1.449   6.067  20.590  0.00  0.00    +0.000 A 
ATOM      9  C   UNL     1       1.870   7.276  20.061  0.00  0.00    +0.000 A 
ATOM     10  S   UNL     1       3.102   7.003  18.875  0.00  0.00    +0.000 S 
ATOM     11  C   UNL     1       2.995   5.306  19.010  0.00  0.00    +0.000 A 
ENDROOT
BRANCH   1  15
ATOM     12  C   UNL     1       6.877   5.247  15.419  0.00  0.00    +0.000 A 
ATOM     13  C   UNL     1       5.825   4.376  15.095  0.00  0.00    +0.000 A 
ATOM     14  C   UNL     1       4.807   4.101  16.012  0.00  0.00    +0.000 A 
ATOM     15  C   UNL     1       4.843   4.662  17.287  0.00  0.00    +0.000 A 
ATOM     16  C   UNL     1       5.929   5.476  17.637  0.00  0.00    +0.000 A 
ATOM     17  C   UNL     1       6.953   5.771  16.720  0.00  0.00    +0.000 A 
BRANCH  12  19
ATOM     18  C   UNL     1       7.598   5.147  13.161  0.00  0.00    +0.000 C 
ATOM     19  O   UNL     1       7.846   5.559  14.504  0.00  0.00    +0.000 OA
ENDBRANCH  12  19
BRANCH  17  20
ATOM     20  O   UNL     1       7.913   6.582  17.267  0.00  0.00    +0.000 OA
ATOM     21  C   UNL     1       7.617   7.950  17.503  0.00  0.00    +0.000 C 
ENDBRANCH  17  20
ENDBRANCH   1  15
BRANCH   9  22
ATOM     22  C   UNL     1       1.523   8.662  20.382  0.00  0.00    +0.000 C 
ATOM     23  O   UNL     1       1.572   9.065  21.548  0.00  0.00    +0.000 OA
ATOM     24  N   UNL     1       1.140   9.563  19.368  0.00  0.00    +0.000 N 
ATOM     25  C   UNL     1       1.138   9.328  17.932  0.00  0.00    +0.000 C 
ATOM     26  C   UNL     1       0.725  10.902  19.763  0.00  0.00    +0.000 C 
ENDBRANCH   9  22
TORSDOF 4
ENDMDL
MODEL 8
REMARK VINA RESULT:      -7.3      1.601      2.390
REMARK  Name = 
REMARK  9 active torsions:
REMARK  status: ('A' for Active; 'I' for Inactive)
REMARK    1  A    between atoms: C_1  and  O_2
REMARK    2  A    between atoms: O_2  and  C_3
REMARK    3  A    between atoms: C_6  and  C_7
REMARK    4  A    between atoms: N_9  and  C_10
REMARK    5  A    between atoms: C_15  and  C_16
REMARK    6  A    between atoms: N_18  and  C_19
REMARK    7  A    between atoms: N_18  and  C_20
REMARK    8  A    between atoms: C_24  and  O_25
REMARK    9  A    between atoms: O_25  and  C_26
REMARK                            x       y       z     vdW  Elec       q    Type
REMARK                         _______ _______ _______ _____ _____    ______ ____
ROOT
ATOM      1  C   UNL     1       2.082   6.276  19.996  0.00  0.00    +0.000 A 
ATOM      2  C   UNL     1       1.595   5.278  20.768  0.00  0.00    +0.000 A 
ATOM      3  N   UNL     1       1.878   3.931  20.549  0.00  0.00    +0.000 N 
ATOM      4  C   UNL     1       1.358   2.924  21.454  0.00  0.00    +0.000 C 
ATOM      5  C   UNL     1       2.685   3.481  19.489  0.00  0.00    +0.000 A 
ATOM      6  O   UNL     1       2.951   2.298  19.289  0.00  0.00    +0.000 OA
ATOM      7  C   UNL     1       3.221   4.538  18.642  0.00  0.00    +0.000 A 
ATOM      8  C   UNL     1       4.043   4.390  17.483  0.00  0.00    +0.000 A 
ATOM      9  C   UNL     1       4.479   5.602  16.974  0.00  0.00    +0.000 A 
ATOM     10  S   UNL     1       3.738   6.905  17.842  0.00  0.00    +0.000 S 
ATOM     11  C   UNL     1       2.935   5.859  18.923  0.00  0.00    +0.000 A 
ENDROOT
BRANCH   1  15
ATOM     12  C   UNL     1       0.952  10.298  21.006  0.00  0.00    +0.000 A 
ATOM     13  C   UNL     1       1.273   9.364  22.004  0.00  0.00    +0.000 A 
ATOM     14  C   UNL     1       1.655   8.061  21.677  0.00  0.00    +0.000 A 
ATOM     15  C   UNL     1       1.688   7.654  20.345  0.00  0.00    +0.000 A 
ATOM     16  C   UNL     1       1.301   8.563  19.351  0.00  0.00    +0.000 A 
ATOM     17  C   UNL     1       0.926   9.882  19.665  0.00  0.00    +0.000 A 
BRANCH  12  19
ATOM     18  C   UNL     1      -0.557  11.770  22.096  0.00  0.00    +0.000 C 
ATOM     19  O   UNL     1       0.628  11.590  21.322  0.00  0.00    +0.000 OA
ENDBRANCH  12  19
BRANCH  17  20
ATOM     20  O   UNL     1       0.586  10.598  18.547  0.00  0.00    +0.000 OA
ATOM     21  C   UNL     1      -0.779  10.700  18.173  0.00  0.00    +0.000 C 
ENDBRANCH  17  20
ENDBRANCH   1  15
BRANCH   9  22
ATOM     22  C   UNL     1       5.345   5.938  15.841  0.00  0.00    +0.000 C 
ATOM     23  O   UNL     1       5.032   6.842  15.062  0.00  0.00    +0.000 OA
ATOM     24  N   UNL     1       6.554   5.245  15.627  0.00  0.00    +0.000 N 
ATOM     25  C   UNL     1       7.162   4.242  16.489  0.00  0.00    +0.000 C 
ATOM     26  C   UNL     1       7.326   5.568  14.436  0.00  0.00    +0.000 C 
ENDBRANCH   9  22
TORSDOF 4
ENDMDL
MODEL 9
REMARK VINA RESULT:      -7.0      1.427      2.038
REMARK  Name = 
REMARK  9 active torsions:
REMARK  status: ('A' for Active; 'I' for Inactive)
REMARK    1  A    between atoms: C_1  and  O_2
REMARK    2  A    between atoms: O_2  and  C_3
REMARK    3  A    between atoms: C_6  and  C_7
REMARK    4  A    between atoms: N_9  and  C_10
REMARK    5  A    between atoms: C_15  and  C_16
REMARK    6  A    between atoms: N_18  and  C_19
REMARK    7  A    between atoms: N_18  and  C_20
REMARK    8  A    between atoms: C_24  and  O_25
REMARK    9  A    between atoms: O_25  and  C_26
REMARK                            x       y       z     vdW  Elec       q    Type
REMARK                         _______ _______ _______ _____ _____    ______ ____
ROOT
ATOM      1  C   UNL     1       2.482   6.010  19.916  0.00  0.00    +0.000 A 
ATOM      2  C   UNL     1       1.954   5.041  20.697  0.00  0.00    +0.000 A 
ATOM      3  N   UNL     1       2.373   3.713  20.663  0.00  0.00    +0.000 N 
ATOM      4  C   UNL     1       1.791   2.743  21.571  0.00  0.00    +0.000 C 
ATOM      5  C   UNL     1       3.379   3.250  19.794  0.00  0.00    +0.000 A 
ATOM      6  O   UNL     1       3.767   2.085  19.758  0.00  0.00    +0.000 OA
ATOM      7  C   UNL     1       3.964   4.276  18.941  0.00  0.00    +0.000 A 
ATOM      8  C   UNL     1       4.976   4.106  17.947  0.00  0.00    +0.000 A 
ATOM      9  C   UNL     1       5.394   5.305  17.395  0.00  0.00    +0.000 A 
ATOM     10  S   UNL     1       4.419   6.603  17.999  0.00  0.00    +0.000 S 
ATOM     11  C   UNL     1       3.532   5.583  19.039  0.00  0.00    +0.000 A 
ENDROOT
BRANCH   1  15
ATOM     12  C   UNL     1       0.887   9.979  20.322  0.00  0.00    +0.000 A 
ATOM     13  C   UNL     1       1.259   9.231  21.450  0.00  0.00    +0.000 A 
ATOM     14  C   UNL     1       1.792   7.946  21.319  0.00  0.00    +0.000 A 
ATOM     15  C   UNL     1       1.928   7.369  20.057  0.00  0.00    +0.000 A 
ATOM     16  C   UNL     1       1.493   8.087  18.936  0.00  0.00    +0.000 A 
ATOM     17  C   UNL     1       0.966   9.386  19.052  0.00  0.00    +0.000 A 
BRANCH  12  19
ATOM     18  C   UNL     1       1.395  12.294  20.442  0.00  0.00    +0.000 C 
ATOM     19  O   UNL     1       0.414  11.258  20.446  0.00  0.00    +0.000 OA
ENDBRANCH  12  19
BRANCH  17  20
ATOM     20  O   UNL     1       0.604   9.903  17.835  0.00  0.00    +0.000 OA
ATOM     21  C   UNL     1      -0.772  10.014  17.507  0.00  0.00    +0.000 C 
ENDBRANCH  17  20
ENDBRANCH   1  15
BRANCH   9  22
ATOM     22  C   UNL     1       6.407   5.621  16.385  0.00  0.00    +0.000 C 
ATOM     23  O   UNL     1       7.315   6.417  16.638  0.00  0.00    +0.000 OA
ATOM     24  N   UNL     1       6.371   5.015  15.113  0.00  0.00    +0.000 N 
ATOM     25  C   UNL     1       5.468   3.967  14.658  0.00  0.00    +0.000 C 
ATOM     26  C   UNL     1       7.355   5.436  14.125  0.00  0.00    +0.000 C 
ENDBRANCH   9  22
TORSDOF 4
ENDMDL
