MODEL 1
REMARK VINA RESULT:      -7.7      0.000      0.000
REMARK  Name = 
REMARK  5 active torsions:
REMARK  status: ('A' for Active; 'I' for Inactive)
REMARK    1  A    between atoms: C_2  and  C_19
REMARK    2  A    between atoms: N_3  and  C_4
REMARK    3  A    between atoms: C_9  and  C_10
REMARK    4  A    between atoms: C_21  and  N_22
REMARK    5  A    between atoms: C_29  and  C_30
REMARK                            x       y       z     vdW  Elec       q    Type
REMARK                         _______ _______ _______ _____ _____    ______ ____
ROOT
ATOM      1  O   UNL     1      -1.748  11.380  23.186  0.00  0.00    +0.000 OA
ATOM      2  C   UNL     1      -1.587  12.053  22.160  0.00  0.00    +0.000 C 
ATOM      3  N   UNL     1      -1.783  13.420  22.047  0.00  0.00    +0.000 N 
ATOM      4  H   UNL     1      -1.849  13.794  21.101  0.00  0.00    +0.000 HD
ENDROOT
BRANCH   3   5
ATOM      5  C   UNL     1      -2.210  14.232  23.134  0.00  0.00    +0.000 A 
ATOM      6  C   UNL     1      -1.299  14.562  24.144  0.00  0.00    +0.000 A 
ATOM      7  C   UNL     1      -1.649  15.345  25.226  0.00  0.00    +0.000 A 
ATOM      8  C   UNL     1      -2.943  15.846  25.325  0.00  0.00    +0.000 A 
ATOM      9  C   UNL     1      -3.875  15.533  24.340  0.00  0.00    +0.000 A 
ATOM     10  C   UNL     1      -3.540  14.722  23.244  0.00  0.00    +0.000 A 
BRANCH  10  11
ATOM     11  C   UNL     1      -4.571  14.313  22.285  0.00  0.00    +0.000 A 
ATOM     12  N   UNL     1      -4.987  13.064  22.163  0.00  0.00    +0.000 NA
ATOM     13  C   UNL     1      -5.788  12.957  21.052  0.00  0.00    +0.000 A 
ATOM     14  C   UNL     1      -6.333  11.784  20.521  0.00  0.00    +0.000 A 
ATOM     15  C   UNL     1      -7.053  11.887  19.334  0.00  0.00    +0.000 A 
ATOM     16  C   UNL     1      -7.208  13.137  18.748  0.00  0.00    +0.000 A 
ATOM     17  N   UNL     1      -6.723  14.301  19.232  0.00  0.00    +0.000 NA
ATOM     18  C   UNL     1      -6.027  14.146  20.374  0.00  0.00    +0.000 A 
ATOM     19  S   UNL     1      -5.278  15.438  21.182  0.00  0.00    +0.000 S 
ENDBRANCH  10  11
ENDBRANCH   3   5
BRANCH   2  20
ATOM     20  C   UNL     1      -1.218  11.296  20.943  0.00  0.00    +0.000 A 
ATOM     21  C   UNL     1      -0.065  10.554  21.000  0.00  0.00    +0.000 A 
ATOM     22  C   UNL     1       0.297   9.849  19.871  0.00  0.00    +0.000 A 
ATOM     23  N   UNL     1      -0.439   9.955  18.760  0.00  0.00    +0.000 NA
ATOM     24  C   UNL     1      -1.573  10.683  18.798  0.00  0.00    +0.000 A 
ATOM     25  N   UNL     1      -2.018  11.372  19.871  0.00  0.00    +0.000 NA
BRANCH  22  26
ATOM     26  N   UNL     1       1.403   9.038  19.889  0.00  0.00    +0.000 N 
ATOM     27  C   UNL     1       1.647   8.109  20.995  0.00  0.00    +0.000 C 
ATOM     28  C   UNL     1       1.649   6.646  20.489  0.00  0.00    +0.000 C 
ATOM     29  N   UNL     1       2.555   6.416  19.347  0.00  0.00    +0.000 NA
ATOM     30  C   UNL     1       2.218   7.352  18.256  0.00  0.00    +0.000 C 
ATOM     31  C   UNL     1       2.224   8.832  18.694  0.00  0.00    +0.000 C 
ATOM     32  H   UNL     1       2.434   5.461  19.014  0.00  0.00    +0.000 HD
ENDBRANCH  22  26
BRANCH  24  33
ATOM     33  C   UNL     1      -2.411  10.696  17.595  0.00  0.00    +0.000 A 
ATOM     34  C   UNL     1      -3.608  11.442  17.531  0.00  0.00    +0.000 A 
ATOM     35  C   UNL     1      -4.416  11.415  16.395  0.00  0.00    +0.000 A 
ATOM     36  C   UNL     1      -4.050  10.642  15.295  0.00  0.00    +0.000 A 
ATOM     37  C   UNL     1      -2.860   9.919  15.323  0.00  0.00    +0.000 A 
ATOM     38  C   UNL     1      -2.051   9.955  16.454  0.00  0.00    +0.000 A 
ENDBRANCH  24  33
ENDBRANCH   2  20
TORSDOF 5
ENDMDL
MODEL 2
REMARK VINA RESULT:      -7.4      1.209      1.481
REMARK  Name = 
REMARK  5 active torsions:
REMARK  status: ('A' for Active; 'I' for Inactive)
REMARK    1  A    between atoms: C_2  and  C_19
REMARK    2  A    between atoms: N_3  and  C_4
REMARK    3  A    between atoms: C_9  and  C_10
REMARK    4  A    between atoms: C_21  and  N_22
REMARK    5  A    between atoms: C_29  and  C_30
REMARK                            x       y       z     vdW  Elec       q    Type
REMARK                         _______ _______ _______ _____ _____    ______ ____
ROOT
ATOM      1  O   UNL     1      -0.372  11.911  22.923  0.00  0.00    +0.000 OA
ATOM      2  C   UNL     1      -0.653  12.378  21.812  0.00  0.00    +0.000 C 
ATOM      3  N   UNL     1      -1.126  13.657  21.564  0.00  0.00    +0.000 N 
ATOM      4  H   UNL     1      -1.539  13.820  20.646  0.00  0.00    +0.000 HD
ENDROOT
BRANCH   3   5
ATOM      5  C   UNL     1      -1.354  14.610  22.595  0.00  0.00    +0.000 A 
ATOM      6  C   UNL     1      -0.280  15.360  23.087  0.00  0.00    +0.000 A 
ATOM      7  C   UNL     1      -0.433  16.300  24.086  0.00  0.00    +0.000 A 
ATOM      8  C   UNL     1      -1.695  16.534  24.625  0.00  0.00    +0.000 A 
ATOM      9  C   UNL     1      -2.783  15.801  24.163  0.00  0.00    +0.000 A 
ATOM     10  C   UNL     1      -2.640  14.829  23.160  0.00  0.00    +0.000 A 
BRANCH  10  11
ATOM     11  C   UNL     1      -3.781  13.990  22.776  0.00  0.00    +0.000 A 
ATOM     12  N   UNL     1      -4.224  13.901  21.535  0.00  0.00    +0.000 NA
ATOM     13  C   UNL     1      -5.418  13.221  21.525  0.00  0.00    +0.000 A 
ATOM     14  C   UNL     1      -6.257  13.014  20.426  0.00  0.00    +0.000 A 
ATOM     15  C   UNL     1      -7.467  12.364  20.650  0.00  0.00    +0.000 A 
ATOM     16  C   UNL     1      -7.774  11.943  21.939  0.00  0.00    +0.000 A 
ATOM     17  N   UNL     1      -6.990  12.097  23.028  0.00  0.00    +0.000 NA
ATOM     18  C   UNL     1      -5.838  12.739  22.759  0.00  0.00    +0.000 A 
ATOM     19  S   UNL     1      -4.681  13.097  23.949  0.00  0.00    +0.000 S 
ENDBRANCH  10  11
ENDBRANCH   3   5
BRANCH   2  20
ATOM     20  C   UNL     1      -0.528  11.445  20.670  0.00  0.00    +0.000 A 
ATOM     21  C   UNL     1       0.525  10.564  20.701  0.00  0.00    +0.000 A 
ATOM     22  C   UNL     1       0.660   9.693  19.641  0.00  0.00    +0.000 A 
ATOM     23  N   UNL     1      -0.185   9.771  18.607  0.00  0.00    +0.000 NA
ATOM     24  C   UNL     1      -1.209  10.646  18.670  0.00  0.00    +0.000 A 
ATOM     25  N   UNL     1      -1.435  11.507  19.686  0.00  0.00    +0.000 NA
BRANCH  22  26
ATOM     26  N   UNL     1       1.653   8.747  19.646  0.00  0.00    +0.000 N 
ATOM     27  C   UNL     1       1.831   7.839  20.782  0.00  0.00    +0.000 C 
ATOM     28  C   UNL     1       1.621   6.370  20.344  0.00  0.00    +0.000 C 
ATOM     29  N   UNL     1       2.432   5.978  19.176  0.00  0.00    +0.000 NA
ATOM     30  C   UNL     1       2.164   6.906  18.058  0.00  0.00    +0.000 C 
ATOM     31  C   UNL     1       2.381   8.389  18.428  0.00  0.00    +0.000 C 
ATOM     32  H   UNL     1       2.174   5.035  18.892  0.00  0.00    +0.000 HD
ENDBRANCH  22  26
BRANCH  24  33
ATOM     33  C   UNL     1      -2.178  10.636  17.568  0.00  0.00    +0.000 A 
ATOM     34  C   UNL     1      -3.374  11.383  17.625  0.00  0.00    +0.000 A 
ATOM     35  C   UNL     1      -4.306  11.333  16.588  0.00  0.00    +0.000 A 
ATOM     36  C   UNL     1      -4.065  10.538  15.470  0.00  0.00    +0.000 A 
ATOM     37  C   UNL     1      -2.879   9.814  15.378  0.00  0.00    +0.000 A 
ATOM     38  C   UNL     1      -1.948   9.871  16.410  0.00  0.00    +0.000 A 
ENDBRANCH  24  33
ENDBRANCH   2  20
TORSDOF 5
ENDMDL
MODEL 3
REMARK VINA RESULT:      -7.3      3.026      5.709
REMARK  Name = 
REMARK  5 active torsions:
REMARK  status: ('A' for Active; 'I' for Inactive)
REMARK    1  A    between atoms: C_2  and  C_19
REMARK    2  A    between atoms: N_3  and  C_4
REMARK    3  A    between atoms: C_9  and  C_10
REMARK    4  A    between atoms: C_21  and  N_22
REMARK    5  A    between atoms: C_29  and  C_30
REMARK                            x       y       z     vdW  Elec       q    Type
REMARK                         _______ _______ _______ _____ _____    ______ ____
ROOT
ATOM      1  O   UNL     1       2.005  13.180  20.045  0.00  0.00    +0.000 OA
ATOM      2  C   UNL     1       1.070  13.128  19.235  0.00  0.00    +0.000 C 
ATOM      3  N   UNL     1       0.361  14.211  18.743  0.00  0.00    +0.000 N 
ATOM      4  H   UNL     1      -0.524  14.005  18.281  0.00  0.00    +0.000 HD
ENDROOT
BRANCH   3   5
ATOM      5  C   UNL     1       0.635  15.553  19.128  0.00  0.00    +0.000 A 
ATOM      6  C   UNL     1       1.620  16.277  18.447  0.00  0.00    +0.000 A 
ATOM      7  C   UNL     1       1.934  17.581  18.771  0.00  0.00    +0.000 A 
ATOM      8  C   UNL     1       1.247  18.221  19.798  0.00  0.00    +0.000 A 
ATOM      9  C   UNL     1       0.265  17.528  20.500  0.00  0.00    +0.000 A 
ATOM     10  C   UNL     1      -0.053  16.196  20.195  0.00  0.00    +0.000 A 
BRANCH  10  11
ATOM     11  C   UNL     1      -1.007  15.455  21.026  0.00  0.00    +0.000 A 
ATOM     12  N   UNL     1      -0.643  14.504  21.868  0.00  0.00    +0.000 NA
ATOM     13  C   UNL     1      -1.760  13.856  22.335  0.00  0.00    +0.000 A 
ATOM     14  C   UNL     1      -1.793  12.725  23.157  0.00  0.00    +0.000 A 
ATOM     15  C   UNL     1      -3.038  12.175  23.450  0.00  0.00    +0.000 A 
ATOM     16  C   UNL     1      -4.177  12.778  22.930  0.00  0.00    +0.000 A 
ATOM     17  N   UNL     1      -4.201  13.882  22.153  0.00  0.00    +0.000 NA
ATOM     18  C   UNL     1      -2.974  14.368  21.892  0.00  0.00    +0.000 A 
ATOM     19  S   UNL     1      -2.708  15.729  20.913  0.00  0.00    +0.000 S 
ENDBRANCH  10  11
ENDBRANCH   3   5
BRANCH   2  20
ATOM     20  C   UNL     1       0.647  11.770  18.825  0.00  0.00    +0.000 A 
ATOM     21  C   UNL     1      -0.650  11.626  18.400  0.00  0.00    +0.000 A 
ATOM     22  C   UNL     1      -1.062  10.365  18.022  0.00  0.00    +0.000 A 
ATOM     23  N   UNL     1      -0.221   9.332  18.136  0.00  0.00    +0.000 NA
ATOM     24  C   UNL     1       1.046   9.566  18.535  0.00  0.00    +0.000 A 
ATOM     25  N   UNL     1       1.539  10.773  18.886  0.00  0.00    +0.000 NA
BRANCH  22  26
ATOM     26  N   UNL     1      -2.327  10.171  17.528  0.00  0.00    +0.000 N 
ATOM     27  C   UNL     1      -3.509  10.617  18.269  0.00  0.00    +0.000 C 
ATOM     28  C   UNL     1      -4.289  11.682  17.461  0.00  0.00    +0.000 C 
ATOM     29  N   UNL     1      -4.611  11.263  16.084  0.00  0.00    +0.000 NA
ATOM     30  C   UNL     1      -3.369  10.876  15.385  0.00  0.00    +0.000 C 
ATOM     31  C   UNL     1      -2.557   9.796  16.132  0.00  0.00    +0.000 C 
ATOM     32  H   UNL     1      -5.039  12.044  15.590  0.00  0.00    +0.000 HD
ENDBRANCH  22  26
BRANCH  24  33
ATOM     33  C   UNL     1       1.973   8.429  18.550  0.00  0.00    +0.000 A 
ATOM     34  C   UNL     1       2.930   8.238  17.531  0.00  0.00    +0.000 A 
ATOM     35  C   UNL     1       3.778   7.131  17.535  0.00  0.00    +0.000 A 
ATOM     36  C   UNL     1       3.692   6.188  18.557  0.00  0.00    +0.000 A 
ATOM     37  C   UNL     1       2.774   6.369  19.589  0.00  0.00    +0.000 A 
ATOM     38  C   UNL     1       1.935   7.478  19.587  0.00  0.00    +0.000 A 
ENDBRANCH  24  33
ENDBRANCH   2  20
TORSDOF 5
ENDMDL
MODEL 4
REMARK VINA RESULT:      -7.2      2.594      5.867
REMARK  Name = 
REMARK  5 active torsions:
REMARK  status: ('A' for Active; 'I' for Inactive)
REMARK    1  A    between atoms: C_2  and  C_19
REMARK    2  A    between atoms: N_3  and  C_4
REMARK    3  A    between atoms: C_9  and  C_10
REMARK    4  A    between atoms: C_21  and  N_22
REMARK    5  A    between atoms: C_29  and  C_30
REMARK                            x       y       z     vdW  Elec       q    Type
REMARK                         _______ _______ _______ _____ _____    ______ ____
ROOT
ATOM      1  O   UNL     1      -3.145  10.137  18.086  0.00  0.00    +0.000 OA
ATOM      2  C   UNL     1      -2.635  11.162  18.557  0.00  0.00    +0.000 C 
ATOM      3  N   UNL     1      -3.320  12.285  18.991  0.00  0.00    +0.000 N 
ATOM      4  H   UNL     1      -2.768  13.132  19.125  0.00  0.00    +0.000 HD
ENDROOT
BRANCH   3   5
ATOM      5  C   UNL     1      -4.738  12.393  18.940  0.00  0.00    +0.000 A 
ATOM      6  C   UNL     1      -5.427  11.869  17.840  0.00  0.00    +0.000 A 
ATOM      7  C   UNL     1      -6.801  11.941  17.728  0.00  0.00    +0.000 A 
ATOM      8  C   UNL     1      -7.545  12.539  18.742  0.00  0.00    +0.000 A 
ATOM      9  C   UNL     1      -6.890  13.075  19.846  0.00  0.00    +0.000 A 
ATOM     10  C   UNL     1      -5.492  13.026  19.966  0.00  0.00    +0.000 A 
BRANCH  10  11
ATOM     11  C   UNL     1      -4.821  13.703  21.081  0.00  0.00    +0.000 A 
ATOM     12  N   UNL     1      -4.266  13.053  22.089  0.00  0.00    +0.000 NA
ATOM     13  C   UNL     1      -3.915  13.948  23.070  0.00  0.00    +0.000 A 
ATOM     14  C   UNL     1      -3.403  13.648  24.335  0.00  0.00    +0.000 A 
ATOM     15  C   UNL     1      -3.188  14.707  25.213  0.00  0.00    +0.000 A 
ATOM     16  C   UNL     1      -3.476  16.000  24.790  0.00  0.00    +0.000 A 
ATOM     17  N   UNL     1      -3.949  16.344  23.572  0.00  0.00    +0.000 NA
ATOM     18  C   UNL     1      -4.148  15.285  22.767  0.00  0.00    +0.000 A 
ATOM     19  S   UNL     1      -4.768  15.425  21.192  0.00  0.00    +0.000 S 
ENDBRANCH  10  11
ENDBRANCH   3   5
BRANCH   2  20
ATOM     20  C   UNL     1      -1.155  11.191  18.585  0.00  0.00    +0.000 A 
ATOM     21  C   UNL     1      -0.557  12.426  18.537  0.00  0.00    +0.000 A 
ATOM     22  C   UNL     1       0.821  12.469  18.554  0.00  0.00    +0.000 A 
ATOM     23  N   UNL     1       1.519  11.329  18.555  0.00  0.00    +0.000 NA
ATOM     24  C   UNL     1       0.853  10.158  18.631  0.00  0.00    +0.000 A 
ATOM     25  N   UNL     1      -0.491  10.029  18.657  0.00  0.00    +0.000 NA
BRANCH  22  26
ATOM     26  N   UNL     1       1.474  13.675  18.574  0.00  0.00    +0.000 N 
ATOM     27  C   UNL     1       0.773  14.912  18.926  0.00  0.00    +0.000 C 
ATOM     28  C   UNL     1       1.380  15.540  20.203  0.00  0.00    +0.000 C 
ATOM     29  N   UNL     1       2.843  15.718  20.137  0.00  0.00    +0.000 NA
ATOM     30  C   UNL     1       3.483  14.424  19.828  0.00  0.00    +0.000 C 
ATOM     31  C   UNL     1       2.935  13.759  18.548  0.00  0.00    +0.000 C 
ATOM     32  H   UNL     1       3.180  16.047  21.040  0.00  0.00    +0.000 HD
ENDBRANCH  22  26
BRANCH  24  33
ATOM     33  C   UNL     1       1.650   8.931  18.735  0.00  0.00    +0.000 A 
ATOM     34  C   UNL     1       2.526   8.525  17.706  0.00  0.00    +0.000 A 
ATOM     35  C   UNL     1       3.247   7.335  17.799  0.00  0.00    +0.000 A 
ATOM     36  C   UNL     1       3.112   6.522  18.922  0.00  0.00    +0.000 A 
ATOM     37  C   UNL     1       2.275   6.914  19.964  0.00  0.00    +0.000 A 
ATOM     38  C   UNL     1       1.563   8.106  19.872  0.00  0.00    +0.000 A 
ENDBRANCH  24  33
ENDBRANCH   2  20
TORSDOF 5
ENDMDL
MODEL 5
REMARK VINA RESULT:      -7.2      2.866      5.964
REMARK  Name = 
REMARK  5 active torsions:
REMARK  status: ('A' for Active; 'I' for Inactive)
REMARK    1  A    between atoms: C_2  and  C_19
REMARK    2  A    between atoms: N_3  and  C_4
REMARK    3  A    between atoms: C_9  and  C_10
REMARK    4  A    between atoms: C_21  and  N_22
REMARK    5  A    between atoms: C_29  and  C_30
REMARK                            x       y       z     vdW  Elec       q    Type
REMARK                         _______ _______ _______ _____ _____    ______ ____
ROOT
ATOM      1  O   UNL     1      -2.877  11.534  17.101  0.00  0.00    +0.000 OA
ATOM      2  C   UNL     1      -2.534  11.729  18.274  0.00  0.00    +0.000 C 
ATOM      3  N   UNL     1      -3.374  12.088  19.317  0.00  0.00    +0.000 N 
ATOM      4  H   UNL     1      -2.926  12.448  20.159  0.00  0.00    +0.000 HD
ENDROOT
BRANCH   3   5
ATOM      5  C   UNL     1      -4.773  12.284  19.149  0.00  0.00    +0.000 A 
ATOM      6  C   UNL     1      -5.419  11.717  18.045  0.00  0.00    +0.000 A 
ATOM      7  C   UNL     1      -6.773  11.868  17.824  0.00  0.00    +0.000 A 
ATOM      8  C   UNL     1      -7.542  12.594  18.729  0.00  0.00    +0.000 A 
ATOM      9  C   UNL     1      -6.930  13.176  19.835  0.00  0.00    +0.000 A 
ATOM     10  C   UNL     1      -5.551  13.047  20.063  0.00  0.00    +0.000 A 
BRANCH  10  11
ATOM     11  C   UNL     1      -4.915  13.767  21.171  0.00  0.00    +0.000 A 
ATOM     12  N   UNL     1      -4.106  13.186  22.039  0.00  0.00    +0.000 NA
ATOM     13  C   UNL     1      -3.843  14.054  23.070  0.00  0.00    +0.000 A 
ATOM     14  C   UNL     1      -3.122  13.780  24.235  0.00  0.00    +0.000 A 
ATOM     15  C   UNL     1      -3.042  14.783  25.197  0.00  0.00    +0.000 A 
ATOM     16  C   UNL     1      -3.663  16.002  24.950  0.00  0.00    +0.000 A 
ATOM     17  N   UNL     1      -4.350  16.325  23.833  0.00  0.00    +0.000 NA
ATOM     18  C   UNL     1      -4.406  15.319  22.941  0.00  0.00    +0.000 A 
ATOM     19  S   UNL     1      -5.235  15.439  21.464  0.00  0.00    +0.000 S 
ENDBRANCH  10  11
ENDBRANCH   3   5
BRANCH   2  20
ATOM     20  C   UNL     1      -1.083  11.631  18.547  0.00  0.00    +0.000 A 
ATOM     21  C   UNL     1      -0.405  12.810  18.731  0.00  0.00    +0.000 A 
ATOM     22  C   UNL     1       0.950  12.735  18.978  0.00  0.00    +0.000 A 
ATOM     23  N   UNL     1       1.560  11.545  18.971  0.00  0.00    +0.000 NA
ATOM     24  C   UNL     1       0.813  10.433  18.811  0.00  0.00    +0.000 A 
ATOM     25  N   UNL     1      -0.520  10.416  18.602  0.00  0.00    +0.000 NA
BRANCH  22  26
ATOM     26  N   UNL     1       1.669  13.874  19.234  0.00  0.00    +0.000 N 
ATOM     27  C   UNL     1       3.080  13.984  18.852  0.00  0.00    +0.000 C 
ATOM     28  C   UNL     1       3.279  15.125  17.825  0.00  0.00    +0.000 C 
ATOM     29  N   UNL     1       2.707  16.415  18.254  0.00  0.00    +0.000 NA
ATOM     30  C   UNL     1       1.277  16.237  18.575  0.00  0.00    +0.000 C 
ATOM     31  C   UNL     1       1.015  15.127  19.615  0.00  0.00    +0.000 C 
ATOM     32  H   UNL     1       2.795  17.087  17.495  0.00  0.00    +0.000 HD
ENDBRANCH  22  26
BRANCH  24  33
ATOM     33  C   UNL     1       1.496   9.138  18.911  0.00  0.00    +0.000 A 
ATOM     34  C   UNL     1       2.208   8.588  17.825  0.00  0.00    +0.000 A 
ATOM     35  C   UNL     1       2.819   7.338  17.920  0.00  0.00    +0.000 A 
ATOM     36  C   UNL     1       2.734   6.607  19.103  0.00  0.00    +0.000 A 
ATOM     37  C   UNL     1       2.060   7.140  20.199  0.00  0.00    +0.000 A 
ATOM     38  C   UNL     1       1.458   8.391  20.104  0.00  0.00    +0.000 A 
ENDBRANCH  24  33
ENDBRANCH   2  20
TORSDOF 5
ENDMDL
MODEL 6
REMARK VINA RESULT:      -7.1      2.763      4.765
REMARK  Name = 
REMARK  5 active torsions:
REMARK  status: ('A' for Active; 'I' for Inactive)
REMARK    1  A    between atoms: C_2  and  C_19
REMARK    2  A    between atoms: N_3  and  C_4
REMARK    3  A    between atoms: C_9  and  C_10
REMARK    4  A    between atoms: C_21  and  N_22
REMARK    5  A    between atoms: C_29  and  C_30
REMARK                            x       y       z     vdW  Elec       q    Type
REMARK                         _______ _______ _______ _____ _____    ______ ____
ROOT
ATOM      1  O   UNL     1      -0.493  11.374  23.213  0.00  0.00    +0.000 OA
ATOM      2  C   UNL     1      -0.799  11.931  22.151  0.00  0.00    +0.000 C 
ATOM      3  N   UNL     1      -1.346  13.198  22.026  0.00  0.00    +0.000 N 
ATOM      4  H   UNL     1      -1.767  13.427  21.126  0.00  0.00    +0.000 HD
ENDROOT
BRANCH   3   5
ATOM      5  C   UNL     1      -1.630  14.030  23.145  0.00  0.00    +0.000 A 
ATOM      6  C   UNL     1      -2.764  13.772  23.923  0.00  0.00    +0.000 A 
ATOM      7  C   UNL     1      -3.097  14.541  25.020  0.00  0.00    +0.000 A 
ATOM      8  C   UNL     1      -2.279  15.605  25.390  0.00  0.00    +0.000 A 
ATOM      9  C   UNL     1      -1.146  15.892  24.635  0.00  0.00    +0.000 A 
ATOM     10  C   UNL     1      -0.804  15.131  23.505  0.00  0.00    +0.000 A 
BRANCH  10  11
ATOM     11  C   UNL     1       0.327  15.528  22.661  0.00  0.00    +0.000 A 
ATOM     12  N   UNL     1       1.348  14.730  22.402  0.00  0.00    +0.000 NA
ATOM     13  C   UNL     1       2.338  15.445  21.773  0.00  0.00    +0.000 A 
ATOM     14  C   UNL     1       3.615  14.991  21.434  0.00  0.00    +0.000 A 
ATOM     15  C   UNL     1       4.499  15.908  20.871  0.00  0.00    +0.000 A 
ATOM     16  C   UNL     1       4.069  17.213  20.661  0.00  0.00    +0.000 A 
ATOM     17  N   UNL     1       2.841  17.695  20.949  0.00  0.00    +0.000 NA
ATOM     18  C   UNL     1       2.030  16.773  21.499  0.00  0.00    +0.000 A 
ATOM     19  S   UNL     1       0.441  17.115  21.990  0.00  0.00    +0.000 S 
ENDBRANCH  10  11
ENDBRANCH   3   5
BRANCH   2  20
ATOM     20  C   UNL     1      -0.619  11.123  20.924  0.00  0.00    +0.000 A 
ATOM     21  C   UNL     1       0.464  10.281  20.889  0.00  0.00    +0.000 A 
ATOM     22  C   UNL     1       0.651   9.528  19.749  0.00  0.00    +0.000 A 
ATOM     23  N   UNL     1      -0.178   9.681  18.711  0.00  0.00    +0.000 NA
ATOM     24  C   UNL     1      -1.235  10.509  18.839  0.00  0.00    +0.000 A 
ATOM     25  N   UNL     1      -1.510  11.253  19.932  0.00  0.00    +0.000 NA
BRANCH  22  26
ATOM     26  N   UNL     1       1.678   8.621  19.681  0.00  0.00    +0.000 N 
ATOM     27  C   UNL     1       1.924   7.669  20.767  0.00  0.00    +0.000 C 
ATOM     28  C   UNL     1       1.754   6.214  20.265  0.00  0.00    +0.000 C 
ATOM     29  N   UNL     1       2.543   5.909  19.057  0.00  0.00    +0.000 NA
ATOM     30  C   UNL     1       2.207   6.877  17.993  0.00  0.00    +0.000 C 
ATOM     31  C   UNL     1       2.381   8.348  18.426  0.00  0.00    +0.000 C 
ATOM     32  H   UNL     1       2.311   4.971  18.736  0.00  0.00    +0.000 HD
ENDBRANCH  22  26
BRANCH  24  33
ATOM     33  C   UNL     1      -2.182  10.577  17.721  0.00  0.00    +0.000 A 
ATOM     34  C   UNL     1      -1.974   9.855  16.527  0.00  0.00    +0.000 A 
ATOM     35  C   UNL     1      -2.861   9.960  15.456  0.00  0.00    +0.000 A 
ATOM     36  C   UNL     1      -3.977  10.787  15.551  0.00  0.00    +0.000 A 
ATOM     37  C   UNL     1      -4.220  11.489  16.730  0.00  0.00    +0.000 A 
ATOM     38  C   UNL     1      -3.338  11.376  17.800  0.00  0.00    +0.000 A 
ENDBRANCH  24  33
ENDBRANCH   2  20
TORSDOF 5
ENDMDL
MODEL 7
REMARK VINA RESULT:      -7.1      2.760      5.985
REMARK  Name = 
REMARK  5 active torsions:
REMARK  status: ('A' for Active; 'I' for Inactive)
REMARK    1  A    between atoms: C_2  and  C_19
REMARK    2  A    between atoms: N_3  and  C_4
REMARK    3  A    between atoms: C_9  and  C_10
REMARK    4  A    between atoms: C_21  and  N_22
REMARK    5  A    between atoms: C_29  and  C_30
REMARK                            x       y       z     vdW  Elec       q    Type
REMARK                         _______ _______ _______ _____ _____    ______ ____
ROOT
ATOM      1  O   UNL     1      -2.987  11.491  17.074  0.00  0.00    +0.000 OA
ATOM      2  C   UNL     1      -2.574  11.710  18.220  0.00  0.00    +0.000 C 
ATOM      3  N   UNL     1      -3.349  12.080  19.306  0.00  0.00    +0.000 N 
ATOM      4  H   UNL     1      -2.854  12.459  20.113  0.00  0.00    +0.000 HD
ENDROOT
BRANCH   3   5
ATOM      5  C   UNL     1      -4.759  12.260  19.224  0.00  0.00    +0.000 A 
ATOM      6  C   UNL     1      -5.451  11.762  18.115  0.00  0.00    +0.000 A 
ATOM      7  C   UNL     1      -6.817  11.903  17.975  0.00  0.00    +0.000 A 
ATOM      8  C   UNL     1      -7.550  12.547  18.968  0.00  0.00    +0.000 A 
ATOM      9  C   UNL     1      -6.891  13.059  20.081  0.00  0.00    +0.000 A 
ATOM     10  C   UNL     1      -5.500  12.940  20.230  0.00  0.00    +0.000 A 
BRANCH  10  11
ATOM     11  C   UNL     1      -4.819  13.591  21.353  0.00  0.00    +0.000 A 
ATOM     12  N   UNL     1      -3.766  14.374  21.201  0.00  0.00    +0.000 NA
ATOM     13  C   UNL     1      -3.226  14.656  22.432  0.00  0.00    +0.000 A 
ATOM     14  C   UNL     1      -2.046  15.360  22.690  0.00  0.00    +0.000 A 
ATOM     15  C   UNL     1      -1.632  15.465  24.015  0.00  0.00    +0.000 A 
ATOM     16  C   UNL     1      -2.411  14.885  25.010  0.00  0.00    +0.000 A 
ATOM     17  N   UNL     1      -3.569  14.216  24.816  0.00  0.00    +0.000 NA
ATOM     18  C   UNL     1      -3.918  14.135  23.519  0.00  0.00    +0.000 A 
ATOM     19  S   UNL     1      -5.310  13.322  22.987  0.00  0.00    +0.000 S 
ENDBRANCH  10  11
ENDBRANCH   3   5
BRANCH   2  20
ATOM     20  C   UNL     1      -1.108  11.629  18.402  0.00  0.00    +0.000 A 
ATOM     21  C   UNL     1      -0.417  12.816  18.411  0.00  0.00    +0.000 A 
ATOM     22  C   UNL     1       0.952  12.756  18.572  0.00  0.00    +0.000 A 
ATOM     23  N   UNL     1       1.559  11.567  18.652  0.00  0.00    +0.000 NA
ATOM     24  C   UNL     1       0.802  10.451  18.664  0.00  0.00    +0.000 A 
ATOM     25  N   UNL     1      -0.543  10.423  18.549  0.00  0.00    +0.000 NA
BRANCH  22  26
ATOM     26  N   UNL     1       1.688  13.911  18.654  0.00  0.00    +0.000 N 
ATOM     27  C   UNL     1       1.054  15.196  18.959  0.00  0.00    +0.000 C 
ATOM     28  C   UNL     1       1.603  15.773  20.286  0.00  0.00    +0.000 C 
ATOM     29  N   UNL     1       3.075  15.843  20.337  0.00  0.00    +0.000 NA
ATOM     30  C   UNL     1       3.641  14.505  20.070  0.00  0.00    +0.000 C 
ATOM     31  C   UNL     1       3.149  13.886  18.744  0.00  0.00    +0.000 C 
ATOM     32  H   UNL     1       3.362  16.143  21.267  0.00  0.00    +0.000 HD
ENDBRANCH  22  26
BRANCH  24  33
ATOM     33  C   UNL     1       1.488   9.169  18.857  0.00  0.00    +0.000 A 
ATOM     34  C   UNL     1       2.215   8.552  17.816  0.00  0.00    +0.000 A 
ATOM     35  C   UNL     1       2.829   7.313  18.000  0.00  0.00    +0.000 A 
ATOM     36  C   UNL     1       2.734   6.662  19.228  0.00  0.00    +0.000 A 
ATOM     37  C   UNL     1       2.047   7.263  20.279  0.00  0.00    +0.000 A 
ATOM     38  C   UNL     1       1.441   8.502  20.095  0.00  0.00    +0.000 A 
ENDBRANCH  24  33
ENDBRANCH   2  20
TORSDOF 5
ENDMDL
MODEL 8
REMARK VINA RESULT:      -7.1      2.984      5.815
REMARK  Name = 
REMARK  5 active torsions:
REMARK  status: ('A' for Active; 'I' for Inactive)
REMARK    1  A    between atoms: C_2  and  C_19
REMARK    2  A    between atoms: N_3  and  C_4
REMARK    3  A    between atoms: C_9  and  C_10
REMARK    4  A    between atoms: C_21  and  N_22
REMARK    5  A    between atoms: C_29  and  C_30
REMARK                            x       y       z     vdW  Elec       q    Type
REMARK                         _______ _______ _______ _____ _____    ______ ____
ROOT
ATOM      1  O   UNL     1       0.275  14.146  18.756  0.00  0.00    +0.000 OA
ATOM      2  C   UNL     1       0.806  13.206  19.362  0.00  0.00    +0.000 C 
ATOM      3  N   UNL     1       1.748  13.320  20.372  0.00  0.00    +0.000 N 
ATOM      4  H   UNL     1       2.268  12.475  20.607  0.00  0.00    +0.000 HD
ENDROOT
BRANCH   3   5
ATOM      5  C   UNL     1       2.231  14.574  20.840  0.00  0.00    +0.000 A 
ATOM      6  C   UNL     1       3.490  15.022  20.425  0.00  0.00    +0.000 A 
ATOM      7  C   UNL     1       4.018  16.228  20.842  0.00  0.00    +0.000 A 
ATOM      8  C   UNL     1       3.280  17.046  21.693  0.00  0.00    +0.000 A 
ATOM      9  C   UNL     1       2.027  16.627  22.129  0.00  0.00    +0.000 A 
ATOM     10  C   UNL     1       1.485  15.396  21.728  0.00  0.00    +0.000 A 
BRANCH  10  11
ATOM     11  C   UNL     1       0.216  14.927  22.296  0.00  0.00    +0.000 A 
ATOM     12  N   UNL     1       0.023  13.685  22.703  0.00  0.00    +0.000 NA
ATOM     13  C   UNL     1      -1.309  13.497  22.978  0.00  0.00    +0.000 A 
ATOM     14  C   UNL     1      -1.933  12.296  23.328  0.00  0.00    +0.000 A 
ATOM     15  C   UNL     1      -3.316  12.308  23.487  0.00  0.00    +0.000 A 
ATOM     16  C   UNL     1      -4.002  13.503  23.307  0.00  0.00    +0.000 A 
ATOM     17  N   UNL     1      -3.446  14.692  22.991  0.00  0.00    +0.000 NA
ATOM     18  C   UNL     1      -2.110  14.625  22.841  0.00  0.00    +0.000 A 
ATOM     19  S   UNL     1      -1.160  15.965  22.412  0.00  0.00    +0.000 S 
ENDBRANCH  10  11
ENDBRANCH   3   5
BRANCH   2  20
ATOM     20  C   UNL     1       0.434  11.850  18.902  0.00  0.00    +0.000 A 
ATOM     21  C   UNL     1      -0.843  11.685  18.425  0.00  0.00    +0.000 A 
ATOM     22  C   UNL     1      -1.208  10.425  18.000  0.00  0.00    +0.000 A 
ATOM     23  N   UNL     1      -0.345   9.410  18.118  0.00  0.00    +0.000 NA
ATOM     24  C   UNL     1       0.900   9.665  18.570  0.00  0.00    +0.000 A 
ATOM     25  N   UNL     1       1.349  10.874  18.971  0.00  0.00    +0.000 NA
BRANCH  22  26
ATOM     26  N   UNL     1      -2.448  10.212  17.454  0.00  0.00    +0.000 N 
ATOM     27  C   UNL     1      -3.662  10.696  18.115  0.00  0.00    +0.000 C 
ATOM     28  C   UNL     1      -4.396  11.725  17.222  0.00  0.00    +0.000 C 
ATOM     29  N   UNL     1      -4.653  11.244  15.851  0.00  0.00    +0.000 NA
ATOM     30  C   UNL     1      -3.380  10.821  15.233  0.00  0.00    +0.000 C 
ATOM     31  C   UNL     1      -2.612   9.773  16.067  0.00  0.00    +0.000 C 
ATOM     32  H   UNL     1      -5.052  12.002  15.301  0.00  0.00    +0.000 HD
ENDBRANCH  22  26
BRANCH  24  33
ATOM     33  C   UNL     1       1.855   8.551  18.591  0.00  0.00    +0.000 A 
ATOM     34  C   UNL     1       2.769   8.338  17.538  0.00  0.00    +0.000 A 
ATOM     35  C   UNL     1       3.645   7.252  17.550  0.00  0.00    +0.000 A 
ATOM     36  C   UNL     1       3.628   6.354  18.614  0.00  0.00    +0.000 A 
ATOM     37  C   UNL     1       2.754   6.558  19.679  0.00  0.00    +0.000 A 
ATOM     38  C   UNL     1       1.888   7.646  19.668  0.00  0.00    +0.000 A 
ENDBRANCH  24  33
ENDBRANCH   2  20
TORSDOF 5
ENDMDL
MODEL 9
REMARK VINA RESULT:      -7.1      2.850      3.655
REMARK  Name = 
REMARK  5 active torsions:
REMARK  status: ('A' for Active; 'I' for Inactive)
REMARK    1  A    between atoms: C_2  and  C_19
REMARK    2  A    between atoms: N_3  and  C_4
REMARK    3  A    between atoms: C_9  and  C_10
REMARK    4  A    between atoms: C_21  and  N_22
REMARK    5  A    between atoms: C_29  and  C_30
REMARK                            x       y       z     vdW  Elec       q    Type
REMARK                         _______ _______ _______ _____ _____    ______ ____
ROOT
ATOM      1  O   UNL     1      -1.387  14.045  23.536  0.00  0.00    +0.000 OA
ATOM      2  C   UNL     1      -1.715  14.439  22.409  0.00  0.00    +0.000 C 
ATOM      3  N   UNL     1      -2.674  15.399  22.130  0.00  0.00    +0.000 N 
ATOM      4  H   UNL     1      -3.007  15.445  21.168  0.00  0.00    +0.000 HD
ENDROOT
BRANCH   3   5
ATOM      5  C   UNL     1      -3.420  16.062  23.144  0.00  0.00    +0.000 A 
ATOM      6  C   UNL     1      -2.850  17.148  23.818  0.00  0.00    +0.000 A 
ATOM      7  C   UNL     1      -3.520  17.834  24.811  0.00  0.00    +0.000 A 
ATOM      8  C   UNL     1      -4.814  17.457  25.157  0.00  0.00    +0.000 A 
ATOM      9  C   UNL     1      -5.409  16.377  24.510  0.00  0.00    +0.000 A 
ATOM     10  C   UNL     1      -4.734  15.658  23.512  0.00  0.00    +0.000 A 
BRANCH  10  11
ATOM     11  C   UNL     1      -5.338  14.455  22.931  0.00  0.00    +0.000 A 
ATOM     12  N   UNL     1      -5.255  14.154  21.647  0.00  0.00    +0.000 NA
ATOM     13  C   UNL     1      -6.090  13.099  21.371  0.00  0.00    +0.000 A 
ATOM     14  C   UNL     1      -6.369  12.555  20.114  0.00  0.00    +0.000 A 
ATOM     15  C   UNL     1      -7.313  11.534  20.046  0.00  0.00    +0.000 A 
ATOM     16  C   UNL     1      -7.915  11.097  21.220  0.00  0.00    +0.000 A 
ATOM     17  N   UNL     1      -7.665  11.572  22.459  0.00  0.00    +0.000 NA
ATOM     18  C   UNL     1      -6.754  12.562  22.469  0.00  0.00    +0.000 A 
ATOM     19  S   UNL     1      -6.274  13.363  23.887  0.00  0.00    +0.000 S 
ENDBRANCH  10  11
ENDBRANCH   3   5
BRANCH   2  20
ATOM     20  C   UNL     1      -1.056  13.758  21.272  0.00  0.00    +0.000 A 
ATOM     21  C   UNL     1       0.293  13.965  21.122  0.00  0.00    +0.000 A 
ATOM     22  C   UNL     1       0.920  13.344  20.062  0.00  0.00    +0.000 A 
ATOM     23  N   UNL     1       0.200  12.622  19.197  0.00  0.00    +0.000 NA
ATOM     24  C   UNL     1      -1.115  12.445  19.435  0.00  0.00    +0.000 A 
ATOM     25  N   UNL     1      -1.798  12.986  20.467  0.00  0.00    +0.000 NA
BRANCH  22  26
ATOM     26  N   UNL     1       2.277  13.460  19.899  0.00  0.00    +0.000 N 
ATOM     27  C   UNL     1       2.886  13.439  18.566  0.00  0.00    +0.000 C 
ATOM     28  C   UNL     1       3.605  14.778  18.274  0.00  0.00    +0.000 C 
ATOM     29  N   UNL     1       4.559  15.180  19.325  0.00  0.00    +0.000 NA
ATOM     30  C   UNL     1       3.865  15.227  20.627  0.00  0.00    +0.000 C 
ATOM     31  C   UNL     1       3.147  13.908  20.987  0.00  0.00    +0.000 C 
ATOM     32  H   UNL     1       4.921  16.107  19.109  0.00  0.00    +0.000 HD
ENDBRANCH  22  26
BRANCH  24  33
ATOM     33  C   UNL     1      -1.856  11.564  18.525  0.00  0.00    +0.000 A 
ATOM     34  C   UNL     1      -3.257  11.653  18.383  0.00  0.00    +0.000 A 
ATOM     35  C   UNL     1      -3.955  10.783  17.545  0.00  0.00    +0.000 A 
ATOM     36  C   UNL     1      -3.270   9.804  16.829  0.00  0.00    +0.000 A 
ATOM     37  C   UNL     1      -1.884   9.714  16.930  0.00  0.00    +0.000 A 
ATOM     38  C   UNL     1      -1.190  10.589  17.761  0.00  0.00    +0.000 A 
ENDBRANCH  24  33
ENDBRANCH   2  20
TORSDOF 5
ENDMDL
