MODEL 1
REMARK VINA RESULT:      -8.3      0.000      0.000
REMARK  Name = 
REMARK  4 active torsions:
REMARK  status: ('A' for Active; 'I' for Inactive)
REMARK    1  A    between atoms: C_3  and  C_4
REMARK    2  A    between atoms: C_10  and  N_11
REMARK    3  A    between atoms: N_11  and  C_12
REMARK    4  A    between atoms: C_15  and  N_16
REMARK                            x       y       z     vdW  Elec       q    Type
REMARK                         _______ _______ _______ _____ _____    ______ ____
ROOT
ATOM      1  N   UNL     1       3.373   4.971  17.955  0.00  0.00    +0.000 N 
ATOM      2  H   UNL     1       3.041   4.039  18.179  0.00  0.00    +0.000 HD
ENDROOT
BRANCH   1   7
ATOM      3  C   UNL     1       6.938   4.700  18.133  0.00  0.00    +0.000 A 
ATOM      4  C   UNL     1       7.349   4.649  16.812  0.00  0.00    +0.000 A 
ATOM      5  C   UNL     1       6.375   4.725  15.820  0.00  0.00    +0.000 A 
ATOM      6  C   UNL     1       5.044   4.850  16.205  0.00  0.00    +0.000 A 
ATOM      7  C   UNL     1       4.713   4.894  17.555  0.00  0.00    +0.000 A 
ATOM      8  N   UNL     1       5.649   4.801  18.523  0.00  0.00    +0.000 NA
BRANCH   5   9
ATOM      9  C   UNL     1       6.713   4.638  14.405  0.00  0.00    +0.000 A 
ATOM     10  C   UNL     1       6.157   3.765  13.427  0.00  0.00    +0.000 A 
ATOM     11  C   UNL     1       6.845   4.021  12.269  0.00  0.00    +0.000 A 
ATOM     12  N   UNL     1       7.742   4.995  12.581  0.00  0.00    +0.000 N 
ATOM     13  N   UNL     1       7.667   5.408  13.856  0.00  0.00    +0.000 NA
ATOM     14  H   UNL     1       8.435   5.424  11.979  0.00  0.00    +0.000 HD
ENDBRANCH   5   9
ENDBRANCH   1   7
BRANCH   1  15
ATOM     15  C   UNL     1       2.753   5.977  18.717  0.00  0.00    +0.000 A 
ATOM     16  C   UNL     1       2.642   7.254  18.177  0.00  0.00    +0.000 A 
ATOM     17  C   UNL     1       2.070   8.297  18.916  0.00  0.00    +0.000 A 
ATOM     18  C   UNL     1       1.565   8.108  20.213  0.00  0.00    +0.000 A 
ATOM     19  C   UNL     1       1.668   6.812  20.733  0.00  0.00    +0.000 A 
ATOM     20  C   UNL     1       2.248   5.766  20.001  0.00  0.00    +0.000 A 
BRANCH  18  21
ATOM     21  N   UNL     1       1.043   9.159  20.935  0.00  0.00    +0.000 N 
ATOM     22  C   UNL     1       1.049   9.170  22.407  0.00  0.00    +0.000 C 
ATOM     23  C   UNL     1      -0.311   9.684  22.898  0.00  0.00    +0.000 C 
ATOM     24  O   UNL     1      -0.589  10.997  22.378  0.00  0.00    +0.000 OA
ATOM     25  C   UNL     1      -0.604  10.971  20.940  0.00  0.00    +0.000 C 
ATOM     26  C   UNL     1       0.731  10.472  20.351  0.00  0.00    +0.000 C 
ENDBRANCH  18  21
ENDBRANCH   1  15
TORSDOF 4
ENDMDL
MODEL 2
REMARK VINA RESULT:      -8.2      0.268      1.007
REMARK  Name = 
REMARK  4 active torsions:
REMARK  status: ('A' for Active; 'I' for Inactive)
REMARK    1  A    between atoms: C_3  and  C_4
REMARK    2  A    between atoms: C_10  and  N_11
REMARK    3  A    between atoms: N_11  and  C_12
REMARK    4  A    between atoms: C_15  and  N_16
REMARK                            x       y       z     vdW  Elec       q    Type
REMARK                         _______ _______ _______ _____ _____    ______ ____
ROOT
ATOM      1  N   UNL     1       3.264   5.335  17.796  0.00  0.00    +0.000 N 
ATOM      2  H   UNL     1       2.825   4.438  17.976  0.00  0.00    +0.000 HD
ENDROOT
BRANCH   1   7
ATOM      3  C   UNL     1       6.774   4.708  18.111  0.00  0.00    +0.000 A 
ATOM      4  C   UNL     1       7.229   4.619  16.807  0.00  0.00    +0.000 A 
ATOM      5  C   UNL     1       6.308   4.794  15.779  0.00  0.00    +0.000 A 
ATOM      6  C   UNL     1       4.982   5.052  16.112  0.00  0.00    +0.000 A 
ATOM      7  C   UNL     1       4.604   5.125  17.449  0.00  0.00    +0.000 A 
ATOM      8  N   UNL     1       5.488   4.936  18.451  0.00  0.00    +0.000 NA
BRANCH   5   9
ATOM      9  C   UNL     1       6.691   4.678  14.377  0.00  0.00    +0.000 A 
ATOM     10  C   UNL     1       6.173   3.778  13.403  0.00  0.00    +0.000 A 
ATOM     11  C   UNL     1       6.895   4.013  12.261  0.00  0.00    +0.000 A 
ATOM     12  N   UNL     1       7.774   5.002  12.578  0.00  0.00    +0.000 N 
ATOM     13  N   UNL     1       7.656   5.443  13.840  0.00  0.00    +0.000 NA
ATOM     14  H   UNL     1       8.482   5.422  11.989  0.00  0.00    +0.000 HD
ENDBRANCH   5   9
ENDBRANCH   1   7
BRANCH   1  15
ATOM     15  C   UNL     1       2.722   6.380  18.565  0.00  0.00    +0.000 A 
ATOM     16  C   UNL     1       2.360   6.124  19.883  0.00  0.00    +0.000 A 
ATOM     17  C   UNL     1       1.778   7.122  20.673  0.00  0.00    +0.000 A 
ATOM     18  C   UNL     1       1.553   8.423  20.193  0.00  0.00    +0.000 A 
ATOM     19  C   UNL     1       1.940   8.668  18.870  0.00  0.00    +0.000 A 
ATOM     20  C   UNL     1       2.516   7.669  18.071  0.00  0.00    +0.000 A 
BRANCH  18  21
ATOM     21  N   UNL     1       0.943   9.377  20.977  0.00  0.00    +0.000 N 
ATOM     22  C   UNL     1       0.873   9.251  22.443  0.00  0.00    +0.000 C 
ATOM     23  C   UNL     1      -0.535   9.654  22.902  0.00  0.00    +0.000 C 
ATOM     24  O   UNL     1      -0.851  10.995  22.489  0.00  0.00    +0.000 OA
ATOM     25  C   UNL     1      -0.791  11.105  21.056  0.00  0.00    +0.000 C 
ATOM     26  C   UNL     1       0.595  10.724  20.500  0.00  0.00    +0.000 C 
ENDBRANCH  18  21
ENDBRANCH   1  15
TORSDOF 4
ENDMDL
MODEL 3
REMARK VINA RESULT:      -8.0      1.833      3.095
REMARK  Name = 
REMARK  4 active torsions:
REMARK  status: ('A' for Active; 'I' for Inactive)
REMARK    1  A    between atoms: C_3  and  C_4
REMARK    2  A    between atoms: C_10  and  N_11
REMARK    3  A    between atoms: N_11  and  C_12
REMARK    4  A    between atoms: C_15  and  N_16
REMARK                            x       y       z     vdW  Elec       q    Type
REMARK                         _______ _______ _______ _____ _____    ______ ____
ROOT
ATOM      1  N   UNL     1       2.785   6.432  20.088  0.00  0.00    +0.000 N 
ATOM      2  H   UNL     1       3.630   6.568  20.634  0.00  0.00    +0.000 HD
ENDROOT
BRANCH   1   7
ATOM      3  C   UNL     1       2.293   3.615  17.935  0.00  0.00    +0.000 A 
ATOM      4  C   UNL     1       3.423   3.588  17.135  0.00  0.00    +0.000 A 
ATOM      5  C   UNL     1       4.398   4.558  17.347  0.00  0.00    +0.000 A 
ATOM      6  C   UNL     1       4.191   5.500  18.349  0.00  0.00    +0.000 A 
ATOM      7  C   UNL     1       3.027   5.460  19.110  0.00  0.00    +0.000 A 
ATOM      8  N   UNL     1       2.068   4.534  18.897  0.00  0.00    +0.000 NA
BRANCH   5   9
ATOM      9  C   UNL     1       5.600   4.629  16.525  0.00  0.00    +0.000 A 
ATOM     10  C   UNL     1       5.683   4.740  15.108  0.00  0.00    +0.000 A 
ATOM     11  C   UNL     1       7.021   4.706  14.811  0.00  0.00    +0.000 A 
ATOM     12  N   UNL     1       7.660   4.587  16.007  0.00  0.00    +0.000 N 
ATOM     13  N   UNL     1       6.830   4.566  17.061  0.00  0.00    +0.000 NA
ATOM     14  H   UNL     1       8.655   4.511  16.179  0.00  0.00    +0.000 HD
ENDBRANCH   5   9
ENDBRANCH   1   7
BRANCH   1  15
ATOM     15  C   UNL     1       2.005   7.596  19.978  0.00  0.00    +0.000 A 
ATOM     16  C   UNL     1       1.249   8.003  21.072  0.00  0.00    +0.000 A 
ATOM     17  C   UNL     1       0.425   9.132  20.994  0.00  0.00    +0.000 A 
ATOM     18  C   UNL     1       0.336   9.917  19.833  0.00  0.00    +0.000 A 
ATOM     19  C   UNL     1       1.116   9.503  18.747  0.00  0.00    +0.000 A 
ATOM     20  C   UNL     1       1.937   8.368  18.816  0.00  0.00    +0.000 A 
BRANCH  18  21
ATOM     21  N   UNL     1      -0.513  11.000  19.768  0.00  0.00    +0.000 N 
ATOM     22  C   UNL     1      -0.549  12.024  20.826  0.00  0.00    +0.000 C 
ATOM     23  C   UNL     1      -2.014  12.374  21.117  0.00  0.00    +0.000 C 
ATOM     24  O   UNL     1      -2.682  12.841  19.931  0.00  0.00    +0.000 OA
ATOM     25  C   UNL     1      -2.651  11.830  18.909  0.00  0.00    +0.000 C 
ATOM     26  C   UNL     1      -1.212  11.416  18.543  0.00  0.00    +0.000 C 
ENDBRANCH  18  21
ENDBRANCH   1  15
TORSDOF 4
ENDMDL
MODEL 4
REMARK VINA RESULT:      -8.0      1.999      2.956
REMARK  Name = 
REMARK  4 active torsions:
REMARK  status: ('A' for Active; 'I' for Inactive)
REMARK    1  A    between atoms: C_3  and  C_4
REMARK    2  A    between atoms: C_10  and  N_11
REMARK    3  A    between atoms: N_11  and  C_12
REMARK    4  A    between atoms: C_15  and  N_16
REMARK                            x       y       z     vdW  Elec       q    Type
REMARK                         _______ _______ _______ _____ _____    ______ ____
ROOT
ATOM      1  N   UNL     1       2.908   6.071  19.919  0.00  0.00    +0.000 N 
ATOM      2  H   UNL     1       3.689   6.106  20.566  0.00  0.00    +0.000 HD
ENDROOT
BRANCH   1   7
ATOM      3  C   UNL     1       2.645   3.203  17.792  0.00  0.00    +0.000 A 
ATOM      4  C   UNL     1       3.672   3.355  16.876  0.00  0.00    +0.000 A 
ATOM      5  C   UNL     1       4.496   4.470  16.996  0.00  0.00    +0.000 A 
ATOM      6  C   UNL     1       4.250   5.371  18.027  0.00  0.00    +0.000 A 
ATOM      7  C   UNL     1       3.196   5.147  18.907  0.00  0.00    +0.000 A 
ATOM      8  N   UNL     1       2.380   4.079  18.786  0.00  0.00    +0.000 NA
BRANCH   5   9
ATOM      9  C   UNL     1       5.576   4.731  16.051  0.00  0.00    +0.000 A 
ATOM     10  C   UNL     1       5.666   4.315  14.692  0.00  0.00    +0.000 A 
ATOM     11  C   UNL     1       6.890   4.749  14.253  0.00  0.00    +0.000 A 
ATOM     12  N   UNL     1       7.458   5.383  15.314  0.00  0.00    +0.000 N 
ATOM     13  N   UNL     1       6.678   5.413  16.405  0.00  0.00    +0.000 NA
ATOM     14  H   UNL     1       8.373   5.815  15.368  0.00  0.00    +0.000 HD
ENDBRANCH   5   9
ENDBRANCH   1   7
BRANCH   1  15
ATOM     15  C   UNL     1       2.230   7.297  19.804  0.00  0.00    +0.000 A 
ATOM     16  C   UNL     1       2.257   7.967  18.585  0.00  0.00    +0.000 A 
ATOM     17  C   UNL     1       1.632   9.210  18.436  0.00  0.00    +0.000 A 
ATOM     18  C   UNL     1       0.934   9.829  19.487  0.00  0.00    +0.000 A 
ATOM     19  C   UNL     1       0.902   9.133  20.700  0.00  0.00    +0.000 A 
ATOM     20  C   UNL     1       1.534   7.891  20.858  0.00  0.00    +0.000 A 
BRANCH  18  21
ATOM     21  N   UNL     1       0.361  11.072  19.326  0.00  0.00    +0.000 N 
ATOM     22  C   UNL     1      -1.095  11.244  19.181  0.00  0.00    +0.000 C 
ATOM     23  C   UNL     1      -1.358  12.271  18.072  0.00  0.00    +0.000 C 
ATOM     24  O   UNL     1      -0.721  13.527  18.366  0.00  0.00    +0.000 OA
ATOM     25  C   UNL     1       0.700  13.350  18.494  0.00  0.00    +0.000 C 
ATOM     26  C   UNL     1       1.064  12.335  19.596  0.00  0.00    +0.000 C 
ENDBRANCH  18  21
ENDBRANCH   1  15
TORSDOF 4
ENDMDL
MODEL 5
REMARK VINA RESULT:      -7.9      1.475      2.082
REMARK  Name = 
REMARK  4 active torsions:
REMARK  status: ('A' for Active; 'I' for Inactive)
REMARK    1  A    between atoms: C_3  and  C_4
REMARK    2  A    between atoms: C_10  and  N_11
REMARK    3  A    between atoms: N_11  and  C_12
REMARK    4  A    between atoms: C_15  and  N_16
REMARK                            x       y       z     vdW  Elec       q    Type
REMARK                         _______ _______ _______ _____ _____    ______ ____
ROOT
ATOM      1  N   UNL     1       3.282   5.774  18.506  0.00  0.00    +0.000 N 
ATOM      2  H   UNL     1       2.999   5.074  19.184  0.00  0.00    +0.000 HD
ENDROOT
BRANCH   1   7
ATOM      3  C   UNL     1       6.799   5.148  18.747  0.00  0.00    +0.000 A 
ATOM      4  C   UNL     1       7.210   4.967  17.438  0.00  0.00    +0.000 A 
ATOM      5  C   UNL     1       6.255   5.078  16.431  0.00  0.00    +0.000 A 
ATOM      6  C   UNL     1       4.942   5.365  16.790  0.00  0.00    +0.000 A 
ATOM      7  C   UNL     1       4.610   5.532  18.130  0.00  0.00    +0.000 A 
ATOM      8  N   UNL     1       5.525   5.407  19.113  0.00  0.00    +0.000 NA
BRANCH   5   9
ATOM      9  C   UNL     1       6.591   4.863  15.028  0.00  0.00    +0.000 A 
ATOM     10  C   UNL     1       5.964   3.977  14.107  0.00  0.00    +0.000 A 
ATOM     11  C   UNL     1       6.677   4.089  12.941  0.00  0.00    +0.000 A 
ATOM     12  N   UNL     1       7.655   5.000  13.195  0.00  0.00    +0.000 N 
ATOM     13  N   UNL     1       7.612   5.505  14.438  0.00  0.00    +0.000 NA
ATOM     14  H   UNL     1       8.387   5.323  12.573  0.00  0.00    +0.000 HD
ENDBRANCH   5   9
ENDBRANCH   1   7
BRANCH   1  15
ATOM     15  C   UNL     1       2.648   7.013  18.694  0.00  0.00    +0.000 A 
ATOM     16  C   UNL     1       2.085   7.298  19.933  0.00  0.00    +0.000 A 
ATOM     17  C   UNL     1       1.406   8.503  20.153  0.00  0.00    +0.000 A 
ATOM     18  C   UNL     1       1.278   9.484  19.156  0.00  0.00    +0.000 A 
ATOM     19  C   UNL     1       1.866   9.189  17.921  0.00  0.00    +0.000 A 
ATOM     20  C   UNL     1       2.540   7.980  17.692  0.00  0.00    +0.000 A 
BRANCH  18  21
ATOM     21  N   UNL     1       0.572  10.645  19.385  0.00  0.00    +0.000 N 
ATOM     22  C   UNL     1      -0.808  10.626  19.899  0.00  0.00    +0.000 C 
ATOM     23  C   UNL     1      -1.634  11.659  19.120  0.00  0.00    +0.000 C 
ATOM     24  O   UNL     1      -1.062  12.975  19.237  0.00  0.00    +0.000 OA
ATOM     25  C   UNL     1       0.281  12.984  18.722  0.00  0.00    +0.000 C 
ATOM     26  C   UNL     1       1.192  11.977  19.451  0.00  0.00    +0.000 C 
ENDBRANCH  18  21
ENDBRANCH   1  15
TORSDOF 4
ENDMDL
MODEL 6
REMARK VINA RESULT:      -7.9      1.813      3.004
REMARK  Name = 
REMARK  4 active torsions:
REMARK  status: ('A' for Active; 'I' for Inactive)
REMARK    1  A    between atoms: C_3  and  C_4
REMARK    2  A    between atoms: C_10  and  N_11
REMARK    3  A    between atoms: N_11  and  C_12
REMARK    4  A    between atoms: C_15  and  N_16
REMARK                            x       y       z     vdW  Elec       q    Type
REMARK                         _______ _______ _______ _____ _____    ______ ____
ROOT
ATOM      1  N   UNL     1       2.930   6.180  19.887  0.00  0.00    +0.000 N 
ATOM      2  H   UNL     1       3.752   6.250  20.478  0.00  0.00    +0.000 HD
ENDROOT
BRANCH   1   7
ATOM      3  C   UNL     1       2.556   3.370  17.700  0.00  0.00    +0.000 A 
ATOM      4  C   UNL     1       3.597   3.493  16.796  0.00  0.00    +0.000 A 
ATOM      5  C   UNL     1       4.471   4.566  16.946  0.00  0.00    +0.000 A 
ATOM      6  C   UNL     1       4.256   5.456  17.993  0.00  0.00    +0.000 A 
ATOM      7  C   UNL     1       3.185   5.263  18.859  0.00  0.00    +0.000 A 
ATOM      8  N   UNL     1       2.322   4.237  18.709  0.00  0.00    +0.000 NA
BRANCH   5   9
ATOM      9  C   UNL     1       5.570   4.795  16.016  0.00  0.00    +0.000 A 
ATOM     10  C   UNL     1       5.710   4.296  14.690  0.00  0.00    +0.000 A 
ATOM     11  C   UNL     1       6.935   4.734  14.257  0.00  0.00    +0.000 A 
ATOM     12  N   UNL     1       7.456   5.451  15.290  0.00  0.00    +0.000 N 
ATOM     13  N   UNL     1       6.643   5.529  16.355  0.00  0.00    +0.000 NA
ATOM     14  H   UNL     1       8.357   5.910  15.341  0.00  0.00    +0.000 HD
ENDBRANCH   5   9
ENDBRANCH   1   7
BRANCH   1  15
ATOM     15  C   UNL     1       2.196   7.376  19.818  0.00  0.00    +0.000 A 
ATOM     16  C   UNL     1       1.487   7.793  20.940  0.00  0.00    +0.000 A 
ATOM     17  C   UNL     1       0.708   8.956  20.904  0.00  0.00    +0.000 A 
ATOM     18  C   UNL     1       0.619   9.764  19.759  0.00  0.00    +0.000 A 
ATOM     19  C   UNL     1       1.352   9.339  18.645  0.00  0.00    +0.000 A 
ATOM     20  C   UNL     1       2.128   8.171  18.672  0.00  0.00    +0.000 A 
BRANCH  18  21
ATOM     21  N   UNL     1      -0.186  10.882  19.736  0.00  0.00    +0.000 N 
ATOM     22  C   UNL     1      -0.994  11.235  18.556  0.00  0.00    +0.000 C 
ATOM     23  C   UNL     1      -0.881  12.747  18.320  0.00  0.00    +0.000 C 
ATOM     24  O   UNL     1      -1.313  13.487  19.476  0.00  0.00    +0.000 OA
ATOM     25  C   UNL     1      -0.511  13.143  20.619  0.00  0.00    +0.000 C 
ATOM     26  C   UNL     1      -0.567  11.636  20.940  0.00  0.00    +0.000 C 
ENDBRANCH  18  21
ENDBRANCH   1  15
TORSDOF 4
ENDMDL
MODEL 7
REMARK VINA RESULT:      -7.9      1.841      2.794
REMARK  Name = 
REMARK  4 active torsions:
REMARK  status: ('A' for Active; 'I' for Inactive)
REMARK    1  A    between atoms: C_3  and  C_4
REMARK    2  A    between atoms: C_10  and  N_11
REMARK    3  A    between atoms: N_11  and  C_12
REMARK    4  A    between atoms: C_15  and  N_16
REMARK                            x       y       z     vdW  Elec       q    Type
REMARK                         _______ _______ _______ _____ _____    ______ ____
ROOT
ATOM      1  N   UNL     1       2.963   6.210  19.951  0.00  0.00    +0.000 N 
ATOM      2  H   UNL     1       3.772   6.325  20.552  0.00  0.00    +0.000 HD
ENDROOT
BRANCH   1   7
ATOM      3  C   UNL     1       2.731   3.244  17.958  0.00  0.00    +0.000 A 
ATOM      4  C   UNL     1       3.736   3.379  17.016  0.00  0.00    +0.000 A 
ATOM      5  C   UNL     1       4.535   4.518  17.070  0.00  0.00    +0.000 A 
ATOM      6  C   UNL     1       4.285   5.457  18.065  0.00  0.00    +0.000 A 
ATOM      7  C   UNL     1       3.254   5.248  18.975  0.00  0.00    +0.000 A 
ATOM      8  N   UNL     1       2.463   4.156  18.917  0.00  0.00    +0.000 NA
BRANCH   5   9
ATOM      9  C   UNL     1       5.590   4.762  16.094  0.00  0.00    +0.000 A 
ATOM     10  C   UNL     1       5.637   4.338  14.735  0.00  0.00    +0.000 A 
ATOM     11  C   UNL     1       6.852   4.756  14.259  0.00  0.00    +0.000 A 
ATOM     12  N   UNL     1       7.458   5.390  15.300  0.00  0.00    +0.000 N 
ATOM     13  N   UNL     1       6.709   5.433  16.413  0.00  0.00    +0.000 NA
ATOM     14  H   UNL     1       8.378   5.812  15.326  0.00  0.00    +0.000 HD
ENDBRANCH   5   9
ENDBRANCH   1   7
BRANCH   1  15
ATOM     15  C   UNL     1       2.207   7.385  19.808  0.00  0.00    +0.000 A 
ATOM     16  C   UNL     1       2.205   8.036  18.579  0.00  0.00    +0.000 A 
ATOM     17  C   UNL     1       1.501   9.233  18.403  0.00  0.00    +0.000 A 
ATOM     18  C   UNL     1       0.750   9.821  19.435  0.00  0.00    +0.000 A 
ATOM     19  C   UNL     1       0.749   9.143  20.659  0.00  0.00    +0.000 A 
ATOM     20  C   UNL     1       1.459   7.948  20.845  0.00  0.00    +0.000 A 
BRANCH  18  21
ATOM     21  N   UNL     1       0.098  11.020  19.248  0.00  0.00    +0.000 N 
ATOM     22  C   UNL     1       0.760  12.313  19.492  0.00  0.00    +0.000 C 
ATOM     23  C   UNL     1      -0.220  13.232  20.233  0.00  0.00    +0.000 C 
ATOM     24  O   UNL     1      -1.432  13.413  19.478  0.00  0.00    +0.000 OA
ATOM     25  C   UNL     1      -2.076  12.147  19.255  0.00  0.00    +0.000 C 
ATOM     26  C   UNL     1      -1.166  11.153  18.507  0.00  0.00    +0.000 C 
ENDBRANCH  18  21
ENDBRANCH   1  15
TORSDOF 4
ENDMDL
MODEL 8
REMARK VINA RESULT:      -7.8      1.339      1.720
REMARK  Name = 
REMARK  4 active torsions:
REMARK  status: ('A' for Active; 'I' for Inactive)
REMARK    1  A    between atoms: C_3  and  C_4
REMARK    2  A    between atoms: C_10  and  N_11
REMARK    3  A    between atoms: N_11  and  C_12
REMARK    4  A    between atoms: C_15  and  N_16
REMARK                            x       y       z     vdW  Elec       q    Type
REMARK                         _______ _______ _______ _____ _____    ______ ____
ROOT
ATOM      1  N   UNL     1       3.322   5.563  18.762  0.00  0.00    +0.000 N 
ATOM      2  H   UNL     1       3.091   4.847  19.443  0.00  0.00    +0.000 HD
ENDROOT
BRANCH   1   7
ATOM      3  C   UNL     1       6.872   5.131  18.929  0.00  0.00    +0.000 A 
ATOM      4  C   UNL     1       7.264   4.970  17.611  0.00  0.00    +0.000 A 
ATOM      5  C   UNL     1       6.284   5.027  16.625  0.00  0.00    +0.000 A 
ATOM      6  C   UNL     1       4.966   5.243  17.011  0.00  0.00    +0.000 A 
ATOM      7  C   UNL     1       4.652   5.394  18.358  0.00  0.00    +0.000 A 
ATOM      8  N   UNL     1       5.594   5.321  19.321  0.00  0.00    +0.000 NA
BRANCH   5   9
ATOM      9  C   UNL     1       6.602   4.828  15.216  0.00  0.00    +0.000 A 
ATOM     10  C   UNL     1       6.008   3.904  14.309  0.00  0.00    +0.000 A 
ATOM     11  C   UNL     1       6.688   4.055  13.128  0.00  0.00    +0.000 A 
ATOM     12  N   UNL     1       7.616   5.023  13.360  0.00  0.00    +0.000 N 
ATOM     13  N   UNL     1       7.571   5.528  14.602  0.00  0.00    +0.000 NA
ATOM     14  H   UNL     1       8.314   5.386  12.721  0.00  0.00    +0.000 HD
ENDBRANCH   5   9
ENDBRANCH   1   7
BRANCH   1  15
ATOM     15  C   UNL     1       2.626   6.767  18.967  0.00  0.00    +0.000 A 
ATOM     16  C   UNL     1       2.507   7.661  17.908  0.00  0.00    +0.000 A 
ATOM     17  C   UNL     1       1.859   8.890  18.077  0.00  0.00    +0.000 A 
ATOM     18  C   UNL     1       1.283   9.273  19.299  0.00  0.00    +0.000 A 
ATOM     19  C   UNL     1       1.396   8.354  20.349  0.00  0.00    +0.000 A 
ATOM     20  C   UNL     1       2.052   7.124  20.188  0.00  0.00    +0.000 A 
BRANCH  18  21
ATOM     21  N   UNL     1       0.685  10.505  19.452  0.00  0.00    +0.000 N 
ATOM     22  C   UNL     1       1.377  11.754  19.092  0.00  0.00    +0.000 C 
ATOM     23  C   UNL     1       1.113  12.793  20.191  0.00  0.00    +0.000 C 
ATOM     24  O   UNL     1      -0.298  13.020  20.362  0.00  0.00    +0.000 OA
ATOM     25  C   UNL     1      -0.961  11.796  20.723  0.00  0.00    +0.000 C 
ATOM     26  C   UNL     1      -0.757  10.689  19.670  0.00  0.00    +0.000 C 
ENDBRANCH  18  21
ENDBRANCH   1  15
TORSDOF 4
ENDMDL
MODEL 9
REMARK VINA RESULT:      -7.7      1.521      2.337
REMARK  Name = 
REMARK  4 active torsions:
REMARK  status: ('A' for Active; 'I' for Inactive)
REMARK    1  A    between atoms: C_3  and  C_4
REMARK    2  A    between atoms: C_10  and  N_11
REMARK    3  A    between atoms: N_11  and  C_12
REMARK    4  A    between atoms: C_15  and  N_16
REMARK                            x       y       z     vdW  Elec       q    Type
REMARK                         _______ _______ _______ _____ _____    ______ ____
ROOT
ATOM      1  N   UNL     1       2.742   6.110  18.628  0.00  0.00    +0.000 N 
ATOM      2  H   UNL     1       2.294   5.397  19.194  0.00  0.00    +0.000 HD
ENDROOT
BRANCH   1   7
ATOM      3  C   UNL     1       6.121   5.131  19.291  0.00  0.00    +0.000 A 
ATOM      4  C   UNL     1       6.682   4.949  18.039  0.00  0.00    +0.000 A 
ATOM      5  C   UNL     1       5.883   5.184  16.923  0.00  0.00    +0.000 A 
ATOM      6  C   UNL     1       4.568   5.590  17.123  0.00  0.00    +0.000 A 
ATOM      7  C   UNL     1       4.079   5.749  18.415  0.00  0.00    +0.000 A 
ATOM      8  N   UNL     1       4.841   5.505  19.501  0.00  0.00    +0.000 NA
BRANCH   5   9
ATOM      9  C   UNL     1       6.379   4.978  15.568  0.00  0.00    +0.000 A 
ATOM     10  C   UNL     1       5.866   4.095  14.576  0.00  0.00    +0.000 A 
ATOM     11  C   UNL     1       6.708   4.217  13.500  0.00  0.00    +0.000 A 
ATOM     12  N   UNL     1       7.646   5.131  13.870  0.00  0.00    +0.000 N 
ATOM     13  N   UNL     1       7.458   5.629  15.102  0.00  0.00    +0.000 NA
ATOM     14  H   UNL     1       8.443   5.460  13.337  0.00  0.00    +0.000 HD
ENDBRANCH   5   9
ENDBRANCH   1   7
BRANCH   1  15
ATOM     15  C   UNL     1       2.216   7.396  18.839  0.00  0.00    +0.000 A 
ATOM     16  C   UNL     1       1.758   7.733  20.109  0.00  0.00    +0.000 A 
ATOM     17  C   UNL     1       1.188   8.987  20.356  0.00  0.00    +0.000 A 
ATOM     18  C   UNL     1       1.070   9.968  19.356  0.00  0.00    +0.000 A 
ATOM     19  C   UNL     1       1.552   9.618  18.090  0.00  0.00    +0.000 A 
ATOM     20  C   UNL     1       2.117   8.360  17.834  0.00  0.00    +0.000 A 
BRANCH  18  21
ATOM     21  N   UNL     1       0.469  11.180  19.614  0.00  0.00    +0.000 N 
ATOM     22  C   UNL     1       0.967  12.436  19.028  0.00  0.00    +0.000 C 
ATOM     23  C   UNL     1       0.954  13.521  20.112  0.00  0.00    +0.000 C 
ATOM     24  O   UNL     1      -0.368  13.698  20.653  0.00  0.00    +0.000 OA
ATOM     25  C   UNL     1      -0.839  12.470  21.233  0.00  0.00    +0.000 C 
ATOM     26  C   UNL     1      -0.868  11.316  20.212  0.00  0.00    +0.000 C 
ENDBRANCH  18  21
ENDBRANCH   1  15
TORSDOF 4
ENDMDL
