MODEL 1
REMARK VINA RESULT:      -6.7      0.000      0.000
REMARK  Name = 
REMARK  5 active torsions:
REMARK  status: ('A' for Active; 'I' for Inactive)
REMARK    1  A    between atoms: N_1  and  C_2
REMARK    2  A    between atoms: C_2  and  C_3
REMARK    3  A    between atoms: C_3  and  C_4
REMARK    4  A    between atoms: C_4  and  C_5
REMARK    5  A    between atoms: C_7  and  C_8
REMARK                            x       y       z     vdW  Elec       q    Type
REMARK                         _______ _______ _______ _____ _____    ______ ____
ROOT
ATOM      1  C   UNL     1       6.760   4.325  13.786  0.00  0.00    +0.000 A 
ATOM      2  N   UNL     1       5.892   3.970  14.702  0.00  0.00    +0.000 NA
ATOM      3  C   UNL     1       6.255   4.753  15.776  0.00  0.00    +0.000 A 
ATOM      4  N   UNL     1       7.322   5.534  15.548  0.00  0.00    +0.000 NA
ATOM      5  O   UNL     1       7.657   5.255  14.219  0.00  0.00    +0.000 OA
ENDROOT
BRANCH   3   6
ATOM      6  C   UNL     1       5.486   4.737  17.017  0.00  0.00    +0.000 A 
ATOM      7  C   UNL     1       4.179   4.222  17.015  0.00  0.00    +0.000 A 
ATOM      8  C   UNL     1       3.409   4.232  18.178  0.00  0.00    +0.000 A 
ATOM      9  C   UNL     1       3.944   4.756  19.346  0.00  0.00    +0.000 A 
ATOM     10  F   UNL     1       3.201   4.778  20.459  0.00  0.00    +0.000 F 
ATOM     11  C   UNL     1       5.238   5.265  19.374  0.00  0.00    +0.000 A 
ATOM     12  C   UNL     1       6.012   5.256  18.210  0.00  0.00    +0.000 A 
ENDBRANCH   3   6
BRANCH   1  13
ATOM     13  C   UNL     1       6.818   3.922  12.363  0.00  0.00    +0.000 C 
BRANCH  13  14
ATOM     14  C   UNL     1       5.547   3.174  11.945  0.00  0.00    +0.000 C 
BRANCH  14  15
ATOM     15  C   UNL     1       5.802   1.742  11.466  0.00  0.00    +0.000 C 
BRANCH  15  16
ATOM     16  N   UNL     1       7.222   1.522  11.227  0.00  0.00    +0.000 NA
ATOM     17  H   UNL     1       7.486   0.603  11.584  0.00  0.00    +0.000 HD
ATOM     18  H   UNL     1       7.771   2.200  11.754  0.00  0.00    +0.000 HD
ENDBRANCH  15  16
ENDBRANCH  14  15
ENDBRANCH  13  14
ENDBRANCH   1  13
TORSDOF 5
ENDMDL
MODEL 2
REMARK VINA RESULT:      -6.7      0.117      1.215
REMARK  Name = 
REMARK  5 active torsions:
REMARK  status: ('A' for Active; 'I' for Inactive)
REMARK    1  A    between atoms: N_1  and  C_2
REMARK    2  A    between atoms: C_2  and  C_3
REMARK    3  A    between atoms: C_3  and  C_4
REMARK    4  A    between atoms: C_4  and  C_5
REMARK    5  A    between atoms: C_7  and  C_8
REMARK                            x       y       z     vdW  Elec       q    Type
REMARK                         _______ _______ _______ _____ _____    ______ ____
ROOT
ATOM      1  C   UNL     1       6.709   4.384  13.822  0.00  0.00    +0.000 A 
ATOM      2  N   UNL     1       5.808   4.050  14.715  0.00  0.00    +0.000 NA
ATOM      3  C   UNL     1       6.152   4.835  15.794  0.00  0.00    +0.000 A 
ATOM      4  N   UNL     1       7.237   5.598  15.591  0.00  0.00    +0.000 NA
ATOM      5  O   UNL     1       7.607   5.304  14.275  0.00  0.00    +0.000 OA
ENDROOT
BRANCH   3   6
ATOM      6  C   UNL     1       5.347   4.840  17.011  0.00  0.00    +0.000 A 
ATOM      7  C   UNL     1       5.905   5.315  18.209  0.00  0.00    +0.000 A 
ATOM      8  C   UNL     1       5.170   5.293  19.394  0.00  0.00    +0.000 A 
ATOM      9  C   UNL     1       3.875   4.796  19.385  0.00  0.00    +0.000 A 
ATOM     10  F   UNL     1       3.174   4.762  20.525  0.00  0.00    +0.000 F 
ATOM     11  C   UNL     1       3.298   4.326  18.210  0.00  0.00    +0.000 A 
ATOM     12  C   UNL     1       4.032   4.348  17.020  0.00  0.00    +0.000 A 
ENDBRANCH   3   6
BRANCH   1  13
ATOM     13  C   UNL     1       6.802   3.970  12.405  0.00  0.00    +0.000 C 
BRANCH  13  14
ATOM     14  C   UNL     1       5.517   3.273  11.944  0.00  0.00    +0.000 C 
BRANCH  14  15
ATOM     15  C   UNL     1       5.730   1.830  11.477  0.00  0.00    +0.000 C 
BRANCH  15  16
ATOM     16  N   UNL     1       7.142   1.566  11.241  0.00  0.00    +0.000 NA
ATOM     17  H   UNL     1       7.313   1.515  10.236  0.00  0.00    +0.000 HD
ATOM     18  H   UNL     1       7.391   0.651  11.617  0.00  0.00    +0.000 HD
ENDBRANCH  15  16
ENDBRANCH  14  15
ENDBRANCH  13  14
ENDBRANCH   1  13
TORSDOF 5
ENDMDL
MODEL 3
REMARK VINA RESULT:      -6.6      1.744      2.265
REMARK  Name = 
REMARK  5 active torsions:
REMARK  status: ('A' for Active; 'I' for Inactive)
REMARK    1  A    between atoms: N_1  and  C_2
REMARK    2  A    between atoms: C_2  and  C_3
REMARK    3  A    between atoms: C_3  and  C_4
REMARK    4  A    between atoms: C_4  and  C_5
REMARK    5  A    between atoms: C_7  and  C_8
REMARK                            x       y       z     vdW  Elec       q    Type
REMARK                         _______ _______ _______ _____ _____    ______ ____
ROOT
ATOM      1  C   UNL     1       5.779   5.140  15.380  0.00  0.00    +0.000 A 
ATOM      2  N   UNL     1       5.080   4.400  16.208  0.00  0.00    +0.000 NA
ATOM      3  C   UNL     1       4.430   5.343  16.974  0.00  0.00    +0.000 A 
ATOM      4  N   UNL     1       4.737   6.611  16.659  0.00  0.00    +0.000 NA
ATOM      5  O   UNL     1       5.631   6.478  15.592  0.00  0.00    +0.000 OA
ENDROOT
BRANCH   3   6
ATOM      6  C   UNL     1       3.464   4.950  17.995  0.00  0.00    +0.000 A 
ATOM      7  C   UNL     1       2.366   4.149  17.638  0.00  0.00    +0.000 A 
ATOM      8  C   UNL     1       1.407   3.794  18.587  0.00  0.00    +0.000 A 
ATOM      9  C   UNL     1       1.543   4.238  19.895  0.00  0.00    +0.000 A 
ATOM     10  F   UNL     1       0.615   3.909  20.801  0.00  0.00    +0.000 F 
ATOM     11  C   UNL     1       2.624   5.027  20.273  0.00  0.00    +0.000 A 
ATOM     12  C   UNL     1       3.587   5.384  19.324  0.00  0.00    +0.000 A 
ENDBRANCH   3   6
BRANCH   1  13
ATOM     13  C   UNL     1       6.599   4.710  14.226  0.00  0.00    +0.000 C 
BRANCH  13  14
ATOM     14  C   UNL     1       5.807   3.786  13.294  0.00  0.00    +0.000 C 
BRANCH  14  15
ATOM     15  C   UNL     1       6.604   3.305  12.078  0.00  0.00    +0.000 C 
BRANCH  15  16
ATOM     16  N   UNL     1       6.217   1.951  11.708  0.00  0.00    +0.000 NA
ATOM     17  H   UNL     1       5.682   1.978  10.840  0.00  0.00    +0.000 HD
ATOM     18  H   UNL     1       5.591   1.564  12.415  0.00  0.00    +0.000 HD
ENDBRANCH  15  16
ENDBRANCH  14  15
ENDBRANCH  13  14
ENDBRANCH   1  13
TORSDOF 5
ENDMDL
MODEL 4
REMARK VINA RESULT:      -6.5      4.917      6.553
REMARK  Name = 
REMARK  5 active torsions:
REMARK  status: ('A' for Active; 'I' for Inactive)
REMARK    1  A    between atoms: N_1  and  C_2
REMARK    2  A    between atoms: C_2  and  C_3
REMARK    3  A    between atoms: C_3  and  C_4
REMARK    4  A    between atoms: C_4  and  C_5
REMARK    5  A    between atoms: C_7  and  C_8
REMARK                            x       y       z     vdW  Elec       q    Type
REMARK                         _______ _______ _______ _____ _____    ______ ____
ROOT
ATOM      1  C   UNL     1       3.145   2.943  19.183  0.00  0.00    +0.000 A 
ATOM      2  N   UNL     1       3.551   4.073  18.656  0.00  0.00    +0.000 NA
ATOM      3  C   UNL     1       4.874   4.121  19.035  0.00  0.00    +0.000 A 
ATOM      4  N   UNL     1       5.264   3.084  19.792  0.00  0.00    +0.000 NA
ATOM      5  O   UNL     1       4.115   2.294  19.887  0.00  0.00    +0.000 OA
ENDROOT
BRANCH   3   6
ATOM      6  C   UNL     1       5.750   5.200  18.587  0.00  0.00    +0.000 A 
ATOM      7  C   UNL     1       5.335   6.039  17.539  0.00  0.00    +0.000 A 
ATOM      8  C   UNL     1       6.170   7.051  17.066  0.00  0.00    +0.000 A 
ATOM      9  C   UNL     1       7.421   7.228  17.640  0.00  0.00    +0.000 A 
ATOM     10  F   UNL     1       8.227   8.191  17.176  0.00  0.00    +0.000 F 
ATOM     11  C   UNL     1       7.851   6.415  18.683  0.00  0.00    +0.000 A 
ATOM     12  C   UNL     1       7.016   5.400  19.159  0.00  0.00    +0.000 A 
ENDBRANCH   3   6
BRANCH   1  13
ATOM     13  C   UNL     1       1.837   2.269  19.028  0.00  0.00    +0.000 C 
BRANCH  13  14
ATOM     14  C   UNL     1       0.742   2.991  19.820  0.00  0.00    +0.000 C 
BRANCH  14  15
ATOM     15  C   UNL     1       1.211   3.525  21.176  0.00  0.00    +0.000 C 
BRANCH  15  16
ATOM     16  N   UNL     1       1.707   2.443  22.015  0.00  0.00    +0.000 NA
ATOM     17  H   UNL     1       2.317   1.840  21.463  0.00  0.00    +0.000 HD
ATOM     18  H   UNL     1       0.929   1.857  22.320  0.00  0.00    +0.000 HD
ENDBRANCH  15  16
ENDBRANCH  14  15
ENDBRANCH  13  14
ENDBRANCH   1  13
TORSDOF 5
ENDMDL
MODEL 5
REMARK VINA RESULT:      -6.5      3.820      5.557
REMARK  Name = 
REMARK  5 active torsions:
REMARK  status: ('A' for Active; 'I' for Inactive)
REMARK    1  A    between atoms: N_1  and  C_2
REMARK    2  A    between atoms: C_2  and  C_3
REMARK    3  A    between atoms: C_3  and  C_4
REMARK    4  A    between atoms: C_4  and  C_5
REMARK    5  A    between atoms: C_7  and  C_8
REMARK                            x       y       z     vdW  Elec       q    Type
REMARK                         _______ _______ _______ _____ _____    ______ ____
ROOT
ATOM      1  C   UNL     1       6.569   6.647  17.563  0.00  0.00    +0.000 A 
ATOM      2  N   UNL     1       5.782   5.831  18.223  0.00  0.00    +0.000 NA
ATOM      3  C   UNL     1       4.818   5.526  17.287  0.00  0.00    +0.000 A 
ATOM      4  N   UNL     1       4.981   6.150  16.110  0.00  0.00    +0.000 NA
ATOM      5  O   UNL     1       6.151   6.894  16.290  0.00  0.00    +0.000 OA
ENDROOT
BRANCH   3   6
ATOM      6  C   UNL     1       3.760   4.564  17.578  0.00  0.00    +0.000 A 
ATOM      7  C   UNL     1       2.475   5.026  17.907  0.00  0.00    +0.000 A 
ATOM      8  C   UNL     1       1.457   4.128  18.229  0.00  0.00    +0.000 A 
ATOM      9  C   UNL     1       1.721   2.766  18.224  0.00  0.00    +0.000 A 
ATOM     10  F   UNL     1       0.749   1.905  18.546  0.00  0.00    +0.000 F 
ATOM     11  C   UNL     1       2.984   2.284  17.895  0.00  0.00    +0.000 A 
ATOM     12  C   UNL     1       4.006   3.182  17.571  0.00  0.00    +0.000 A 
ENDBRANCH   3   6
BRANCH   1  13
ATOM     13  C   UNL     1       7.860   7.232  17.991  0.00  0.00    +0.000 C 
BRANCH  13  14
ATOM     14  C   UNL     1       7.913   8.736  17.699  0.00  0.00    +0.000 C 
BRANCH  14  15
ATOM     15  C   UNL     1       8.772   9.527  18.688  0.00  0.00    +0.000 C 
BRANCH  15  16
ATOM     16  N   UNL     1       9.075  10.853  18.166  0.00  0.00    +0.000 NA
ATOM     17  H   UNL     1       9.798  10.776  17.451  0.00  0.00    +0.000 HD
ATOM     18  H   UNL     1       9.468  11.435  18.906  0.00  0.00    +0.000 HD
ENDBRANCH  15  16
ENDBRANCH  14  15
ENDBRANCH  13  14
ENDBRANCH   1  13
TORSDOF 5
ENDMDL
MODEL 6
REMARK VINA RESULT:      -6.5      4.343      6.435
REMARK  Name = 
REMARK  5 active torsions:
REMARK  status: ('A' for Active; 'I' for Inactive)
REMARK    1  A    between atoms: N_1  and  C_2
REMARK    2  A    between atoms: C_2  and  C_3
REMARK    3  A    between atoms: C_3  and  C_4
REMARK    4  A    between atoms: C_4  and  C_5
REMARK    5  A    between atoms: C_7  and  C_8
REMARK                            x       y       z     vdW  Elec       q    Type
REMARK                         _______ _______ _______ _____ _____    ______ ____
ROOT
ATOM      1  C   UNL     1       2.453   3.768  18.329  0.00  0.00    +0.000 A 
ATOM      2  N   UNL     1       3.346   4.581  18.840  0.00  0.00    +0.000 NA
ATOM      3  C   UNL     1       4.353   4.546  17.899  0.00  0.00    +0.000 A 
ATOM      4  N   UNL     1       4.110   3.723  16.868  0.00  0.00    +0.000 NA
ATOM      5  O   UNL     1       2.840   3.208  17.149  0.00  0.00    +0.000 OA
ENDROOT
BRANCH   3   6
ATOM      6  C   UNL     1       5.539   5.386  18.032  0.00  0.00    +0.000 A 
ATOM      7  C   UNL     1       6.480   5.103  19.036  0.00  0.00    +0.000 A 
ATOM      8  C   UNL     1       7.602   5.914  19.209  0.00  0.00    +0.000 A 
ATOM      9  C   UNL     1       7.786   7.010  18.378  0.00  0.00    +0.000 A 
ATOM     10  F   UNL     1       8.854   7.796  18.553  0.00  0.00    +0.000 F 
ATOM     11  C   UNL     1       6.871   7.307  17.373  0.00  0.00    +0.000 A 
ATOM     12  C   UNL     1       5.747   6.495  17.197  0.00  0.00    +0.000 A 
ENDBRANCH   3   6
BRANCH   1  13
ATOM     13  C   UNL     1       1.086   3.476  18.815  0.00  0.00    +0.000 C 
BRANCH  13  14
ATOM     14  C   UNL     1       0.938   3.826  20.300  0.00  0.00    +0.000 C 
BRANCH  14  15
ATOM     15  C   UNL     1       1.302   2.677  21.245  0.00  0.00    +0.000 C 
BRANCH  15  16
ATOM     16  N   UNL     1       2.390   3.063  22.133  0.00  0.00    +0.000 NA
ATOM     17  H   UNL     1       2.084   3.836  22.725  0.00  0.00    +0.000 HD
ATOM     18  H   UNL     1       3.174   3.417  21.587  0.00  0.00    +0.000 HD
ENDBRANCH  15  16
ENDBRANCH  14  15
ENDBRANCH  13  14
ENDBRANCH   1  13
TORSDOF 5
ENDMDL
MODEL 7
REMARK VINA RESULT:      -6.5      1.625      2.419
REMARK  Name = 
REMARK  5 active torsions:
REMARK  status: ('A' for Active; 'I' for Inactive)
REMARK    1  A    between atoms: N_1  and  C_2
REMARK    2  A    between atoms: C_2  and  C_3
REMARK    3  A    between atoms: C_3  and  C_4
REMARK    4  A    between atoms: C_4  and  C_5
REMARK    5  A    between atoms: C_7  and  C_8
REMARK                            x       y       z     vdW  Elec       q    Type
REMARK                         _______ _______ _______ _____ _____    ______ ____
ROOT
ATOM      1  C   UNL     1       6.199   4.339  15.547  0.00  0.00    +0.000 A 
ATOM      2  N   UNL     1       4.944   4.229  15.910  0.00  0.00    +0.000 NA
ATOM      3  C   UNL     1       5.017   4.352  17.280  0.00  0.00    +0.000 A 
ATOM      4  N   UNL     1       6.266   4.498  17.750  0.00  0.00    +0.000 NA
ATOM      5  O   UNL     1       7.055   4.496  16.596  0.00  0.00    +0.000 OA
ENDROOT
BRANCH   3   6
ATOM      6  C   UNL     1       3.812   4.366  18.103  0.00  0.00    +0.000 A 
ATOM      7  C   UNL     1       3.883   4.828  19.428  0.00  0.00    +0.000 A 
ATOM      8  C   UNL     1       2.754   4.815  20.247  0.00  0.00    +0.000 A 
ATOM      9  C   UNL     1       1.552   4.339  19.745  0.00  0.00    +0.000 A 
ATOM     10  F   UNL     1       0.472   4.313  20.535  0.00  0.00    +0.000 F 
ATOM     11  C   UNL     1       1.455   3.882  18.434  0.00  0.00    +0.000 A 
ATOM     12  C   UNL     1       2.585   3.896  17.611  0.00  0.00    +0.000 A 
ENDBRANCH   3   6
BRANCH   1  13
ATOM     13  C   UNL     1       6.763   4.408  14.180  0.00  0.00    +0.000 C 
BRANCH  13  14
ATOM     14  C   UNL     1       5.825   3.753  13.159  0.00  0.00    +0.000 C 
BRANCH  14  15
ATOM     15  C   UNL     1       6.553   3.127  11.966  0.00  0.00    +0.000 C 
BRANCH  15  16
ATOM     16  N   UNL     1       5.988   1.824  11.642  0.00  0.00    +0.000 NA
ATOM     17  H   UNL     1       6.683   1.271  11.139  0.00  0.00    +0.000 HD
ATOM     18  H   UNL     1       5.200   1.937  11.005  0.00  0.00    +0.000 HD
ENDBRANCH  15  16
ENDBRANCH  14  15
ENDBRANCH  13  14
ENDBRANCH   1  13
TORSDOF 5
ENDMDL
MODEL 8
REMARK VINA RESULT:      -6.4      3.424      5.005
REMARK  Name = 
REMARK  5 active torsions:
REMARK  status: ('A' for Active; 'I' for Inactive)
REMARK    1  A    between atoms: N_1  and  C_2
REMARK    2  A    between atoms: C_2  and  C_3
REMARK    3  A    between atoms: C_3  and  C_4
REMARK    4  A    between atoms: C_4  and  C_5
REMARK    5  A    between atoms: C_7  and  C_8
REMARK                            x       y       z     vdW  Elec       q    Type
REMARK                         _______ _______ _______ _____ _____    ______ ____
ROOT
ATOM      1  C   UNL     1       6.449   5.930  17.032  0.00  0.00    +0.000 A 
ATOM      2  N   UNL     1       5.281   5.730  17.595  0.00  0.00    +0.000 NA
ATOM      3  C   UNL     1       4.892   4.524  17.054  0.00  0.00    +0.000 A 
ATOM      4  N   UNL     1       5.763   4.015  16.170  0.00  0.00    +0.000 NA
ATOM      5  O   UNL     1       6.805   4.947  16.158  0.00  0.00    +0.000 OA
ENDROOT
BRANCH   3   6
ATOM      6  C   UNL     1       3.655   3.872  17.474  0.00  0.00    +0.000 A 
ATOM      7  C   UNL     1       2.501   4.645  17.682  0.00  0.00    +0.000 A 
ATOM      8  C   UNL     1       1.317   4.052  18.122  0.00  0.00    +0.000 A 
ATOM      9  C   UNL     1       1.285   2.684  18.355  0.00  0.00    +0.000 A 
ATOM     10  F   UNL     1       0.154   2.117  18.790  0.00  0.00    +0.000 F 
ATOM     11  C   UNL     1       2.414   1.897  18.150  0.00  0.00    +0.000 A 
ATOM     12  C   UNL     1       3.601   2.490  17.708  0.00  0.00    +0.000 A 
ENDBRANCH   3   6
BRANCH   1  13
ATOM     13  C   UNL     1       7.430   7.006  17.298  0.00  0.00    +0.000 C 
BRANCH  13  14
ATOM     14  C   UNL     1       8.109   6.815  18.658  0.00  0.00    +0.000 C 
BRANCH  14  15
ATOM     15  C   UNL     1       7.493   5.697  19.505  0.00  0.00    +0.000 C 
BRANCH  15  16
ATOM     16  N   UNL     1       8.422   5.257  20.536  0.00  0.00    +0.000 NA
ATOM     17  H   UNL     1       8.450   4.237  20.553  0.00  0.00    +0.000 HD
ATOM     18  H   UNL     1       8.084   5.547  21.453  0.00  0.00    +0.000 HD
ENDBRANCH  15  16
ENDBRANCH  14  15
ENDBRANCH  13  14
ENDBRANCH   1  13
TORSDOF 5
ENDMDL
MODEL 9
REMARK VINA RESULT:      -6.4      4.786      6.386
REMARK  Name = 
REMARK  5 active torsions:
REMARK  status: ('A' for Active; 'I' for Inactive)
REMARK    1  A    between atoms: N_1  and  C_2
REMARK    2  A    between atoms: C_2  and  C_3
REMARK    3  A    between atoms: C_3  and  C_4
REMARK    4  A    between atoms: C_4  and  C_5
REMARK    5  A    between atoms: C_7  and  C_8
REMARK                            x       y       z     vdW  Elec       q    Type
REMARK                         _______ _______ _______ _____ _____    ______ ____
ROOT
ATOM      1  C   UNL     1       3.233   2.813  18.831  0.00  0.00    +0.000 A 
ATOM      2  N   UNL     1       3.639   3.933  18.282  0.00  0.00    +0.000 NA
ATOM      3  C   UNL     1       4.908   4.075  18.800  0.00  0.00    +0.000 A 
ATOM      4  N   UNL     1       5.261   3.104  19.657  0.00  0.00    +0.000 NA
ATOM      5  O   UNL     1       4.148   2.258  19.674  0.00  0.00    +0.000 OA
ENDROOT
BRANCH   3   6
ATOM      6  C   UNL     1       5.775   5.174  18.386  0.00  0.00    +0.000 A 
ATOM      7  C   UNL     1       7.011   5.360  19.025  0.00  0.00    +0.000 A 
ATOM      8  C   UNL     1       7.839   6.427  18.675  0.00  0.00    +0.000 A 
ATOM      9  C   UNL     1       7.433   7.310  17.684  0.00  0.00    +0.000 A 
ATOM     10  F   UNL     1       8.221   8.341  17.358  0.00  0.00    +0.000 F 
ATOM     11  C   UNL     1       6.216   7.142  17.032  0.00  0.00    +0.000 A 
ATOM     12  C   UNL     1       5.385   6.073  17.381  0.00  0.00    +0.000 A 
ENDBRANCH   3   6
BRANCH   1  13
ATOM     13  C   UNL     1       1.985   2.059  18.575  0.00  0.00    +0.000 C 
BRANCH  13  14
ATOM     14  C   UNL     1       0.775   2.759  19.203  0.00  0.00    +0.000 C 
BRANCH  14  15
ATOM     15  C   UNL     1       1.031   3.282  20.619  0.00  0.00    +0.000 C 
BRANCH  15  16
ATOM     16  N   UNL     1       1.243   4.723  20.608  0.00  0.00    +0.000 NA
ATOM     17  H   UNL     1       0.350   5.195  20.463  0.00  0.00    +0.000 HD
ATOM     18  H   UNL     1       1.832   4.980  19.816  0.00  0.00    +0.000 HD
ENDBRANCH  15  16
ENDBRANCH  14  15
ENDBRANCH  13  14
ENDBRANCH   1  13
TORSDOF 5
ENDMDL
