MODEL 1
REMARK VINA RESULT:      -7.0      0.000      0.000
REMARK  Name = 
REMARK  8 active torsions:
REMARK  status: ('A' for Active; 'I' for Inactive)
REMARK    1  A    between atoms: C_2  and  C_4
REMARK    2  A    between atoms: C_6  and  O_7
REMARK    3  A    between atoms: C_9  and  O_10
REMARK    4  A    between atoms: O_10  and  C_11
REMARK    5  A    between atoms: C_11  and  C_12
REMARK    6  A    between atoms: C_11  and  C_15
REMARK    7  A    between atoms: C_12  and  O_14
REMARK    8  A    between atoms: C_15  and  O_17
REMARK                            x       y       z     vdW  Elec       q    Type
REMARK                         _______ _______ _______ _____ _____    ______ ____
ROOT
ATOM      1  C   UNL     1       6.186   4.751  16.815  0.00  0.00    +0.000 A 
ATOM      2  C   UNL     1       7.102   5.104  17.818  0.00  0.00    +0.000 A 
ATOM      3  C   UNL     1       6.678   5.249  19.131  0.00  0.00    +0.000 A 
ATOM      4  C   UNL     1       5.352   5.023  19.476  0.00  0.00    +0.000 A 
ATOM      5  C   UNL     1       4.425   4.671  18.492  0.00  0.00    +0.000 A 
ATOM      6  C   UNL     1       4.835   4.551  17.159  0.00  0.00    +0.000 A 
ENDROOT
BRANCH   1   8
ATOM      7  O   UNL     1       6.190   3.642  14.671  0.00  0.00    +0.000 OA
ATOM      8  C   UNL     1       6.671   4.554  15.422  0.00  0.00    +0.000 C 
ATOM      9  O   UNL     1       7.580   5.313  14.939  0.00  0.00    +0.000 OA
ENDBRANCH   1   8
BRANCH   3  10
ATOM     10  O   UNL     1       7.558   5.590  20.117  0.00  0.00    +0.000 OA
ATOM     11  H   UNL     1       7.161   6.291  20.654  0.00  0.00    +0.000 HD
ENDBRANCH   3  10
BRANCH   5  12
ATOM     12  O   UNL     1       3.181   4.325  18.947  0.00  0.00    +0.000 OA
BRANCH  12  13
ATOM     13  C   UNL     1       3.095   3.154  19.761  0.00  0.00    +0.000 C 
BRANCH  13  14
ATOM     14  C   UNL     1       2.010   3.348  20.802  0.00  0.00    +0.000 C 
ATOM     15  O   UNL     1       2.215   3.167  22.000  0.00  0.00    +0.000 OA
BRANCH  14  16
ATOM     16  O   UNL     1       0.809   3.736  20.318  0.00  0.00    +0.000 OA
ATOM     17  H   UNL     1       0.640   4.688  20.501  0.00  0.00    +0.000 HD
ENDBRANCH  14  16
ENDBRANCH  13  14
BRANCH  13  18
ATOM     18  C   UNL     1       2.793   1.927  18.902  0.00  0.00    +0.000 C 
ATOM     19  O   UNL     1       3.652   1.189  18.430  0.00  0.00    +0.000 OA
BRANCH  18  20
ATOM     20  O   UNL     1       1.474   1.656  18.727  0.00  0.00    +0.000 OA
ATOM     21  H   UNL     1       0.924   2.419  18.426  0.00  0.00    +0.000 HD
ENDBRANCH  18  20
ENDBRANCH  13  18
ENDBRANCH  12  13
ENDBRANCH   5  12
TORSDOF 8
ENDMDL
MODEL 2
REMARK VINA RESULT:      -6.9      0.326      1.064
REMARK  Name = 
REMARK  8 active torsions:
REMARK  status: ('A' for Active; 'I' for Inactive)
REMARK    1  A    between atoms: C_2  and  C_4
REMARK    2  A    between atoms: C_6  and  O_7
REMARK    3  A    between atoms: C_9  and  O_10
REMARK    4  A    between atoms: O_10  and  C_11
REMARK    5  A    between atoms: C_11  and  C_12
REMARK    6  A    between atoms: C_11  and  C_15
REMARK    7  A    between atoms: C_12  and  O_14
REMARK    8  A    between atoms: C_15  and  O_17
REMARK                            x       y       z     vdW  Elec       q    Type
REMARK                         _______ _______ _______ _____ _____    ______ ____
ROOT
ATOM      1  C   UNL     1       6.189   4.804  16.854  0.00  0.00    +0.000 A 
ATOM      2  C   UNL     1       7.125   5.100  17.857  0.00  0.00    +0.000 A 
ATOM      3  C   UNL     1       6.710   5.271  19.170  0.00  0.00    +0.000 A 
ATOM      4  C   UNL     1       5.372   5.127  19.514  0.00  0.00    +0.000 A 
ATOM      5  C   UNL     1       4.427   4.833  18.530  0.00  0.00    +0.000 A 
ATOM      6  C   UNL     1       4.829   4.688  17.198  0.00  0.00    +0.000 A 
ENDROOT
BRANCH   1   8
ATOM      7  O   UNL     1       7.575   5.301  14.940  0.00  0.00    +0.000 OA
ATOM      8  C   UNL     1       6.661   4.579  15.461  0.00  0.00    +0.000 C 
ATOM      9  O   UNL     1       6.165   3.636  14.753  0.00  0.00    +0.000 OA
ENDBRANCH   1   8
BRANCH   3  10
ATOM     10  O   UNL     1       7.610   5.556  20.156  0.00  0.00    +0.000 OA
ATOM     11  H   UNL     1       8.120   4.756  20.346  0.00  0.00    +0.000 HD
ENDBRANCH   3  10
BRANCH   5  12
ATOM     12  O   UNL     1       3.163   4.563  18.985  0.00  0.00    +0.000 OA
BRANCH  12  13
ATOM     13  C   UNL     1       2.963   3.300  19.620  0.00  0.00    +0.000 C 
BRANCH  13  14
ATOM     14  C   UNL     1       1.982   3.465  20.764  0.00  0.00    +0.000 C 
ATOM     15  O   UNL     1       2.318   3.322  21.937  0.00  0.00    +0.000 OA
BRANCH  14  16
ATOM     16  O   UNL     1       0.720   3.784  20.401  0.00  0.00    +0.000 OA
ATOM     17  H   UNL     1       0.597   4.759  20.350  0.00  0.00    +0.000 HD
ENDBRANCH  14  16
ENDBRANCH  13  14
BRANCH  13  18
ATOM     18  C   UNL     1       2.438   2.274  18.615  0.00  0.00    +0.000 C 
ATOM     19  O   UNL     1       1.401   2.407  17.974  0.00  0.00    +0.000 OA
BRANCH  18  20
ATOM     20  O   UNL     1       3.237   1.193  18.424  0.00  0.00    +0.000 OA
ATOM     21  H   UNL     1       4.203   1.358  18.546  0.00  0.00    +0.000 HD
ENDBRANCH  18  20
ENDBRANCH  13  18
ENDBRANCH  12  13
ENDBRANCH   5  12
TORSDOF 8
ENDMDL
MODEL 3
REMARK VINA RESULT:      -6.8      0.630      1.391
REMARK  Name = 
REMARK  8 active torsions:
REMARK  status: ('A' for Active; 'I' for Inactive)
REMARK    1  A    between atoms: C_2  and  C_4
REMARK    2  A    between atoms: C_6  and  O_7
REMARK    3  A    between atoms: C_9  and  O_10
REMARK    4  A    between atoms: O_10  and  C_11
REMARK    5  A    between atoms: C_11  and  C_12
REMARK    6  A    between atoms: C_11  and  C_15
REMARK    7  A    between atoms: C_12  and  O_14
REMARK    8  A    between atoms: C_15  and  O_17
REMARK                            x       y       z     vdW  Elec       q    Type
REMARK                         _______ _______ _______ _____ _____    ______ ____
ROOT
ATOM      1  C   UNL     1       6.462   4.811  16.628  0.00  0.00    +0.000 A 
ATOM      2  C   UNL     1       7.421   5.184  17.581  0.00  0.00    +0.000 A 
ATOM      3  C   UNL     1       7.073   5.284  18.921  0.00  0.00    +0.000 A 
ATOM      4  C   UNL     1       5.782   4.991  19.340  0.00  0.00    +0.000 A 
ATOM      5  C   UNL     1       4.813   4.617  18.407  0.00  0.00    +0.000 A 
ATOM      6  C   UNL     1       5.144   4.544  17.049  0.00  0.00    +0.000 A 
ENDROOT
BRANCH   1   8
ATOM      7  O   UNL     1       7.737   5.434  14.675  0.00  0.00    +0.000 OA
ATOM      8  C   UNL     1       6.867   4.665  15.204  0.00  0.00    +0.000 C 
ATOM      9  O   UNL     1       6.356   3.746  14.475  0.00  0.00    +0.000 OA
ENDBRANCH   1   8
BRANCH   3  10
ATOM     10  O   UNL     1       7.997   5.643  19.858  0.00  0.00    +0.000 OA
ATOM     11  H   UNL     1       7.782   6.532  20.176  0.00  0.00    +0.000 HD
ENDBRANCH   3  10
BRANCH   5  12
ATOM     12  O   UNL     1       3.616   4.206  18.928  0.00  0.00    +0.000 OA
BRANCH  12  13
ATOM     13  C   UNL     1       3.595   2.927  19.564  0.00  0.00    +0.000 C 
BRANCH  13  14
ATOM     14  C   UNL     1       2.513   2.914  20.625  0.00  0.00    +0.000 C 
ATOM     15  O   UNL     1       1.358   3.260  20.385  0.00  0.00    +0.000 OA
BRANCH  14  16
ATOM     16  O   UNL     1       2.907   2.491  21.847  0.00  0.00    +0.000 OA
ATOM     17  H   UNL     1       3.873   2.624  21.977  0.00  0.00    +0.000 HD
ENDBRANCH  14  16
ENDBRANCH  13  14
BRANCH  13  18
ATOM     18  C   UNL     1       3.345   1.823  18.537  0.00  0.00    +0.000 C 
ATOM     19  O   UNL     1       2.481   1.873  17.669  0.00  0.00    +0.000 OA
BRANCH  18  20
ATOM     20  O   UNL     1       4.200   0.769  18.604  0.00  0.00    +0.000 OA
ATOM     21  H   UNL     1       5.061   0.896  18.139  0.00  0.00    +0.000 HD
ENDBRANCH  18  20
ENDBRANCH  13  18
ENDBRANCH  12  13
ENDBRANCH   5  12
TORSDOF 8
ENDMDL
MODEL 4
REMARK VINA RESULT:      -6.8      0.709      1.269
REMARK  Name = 
REMARK  8 active torsions:
REMARK  status: ('A' for Active; 'I' for Inactive)
REMARK    1  A    between atoms: C_2  and  C_4
REMARK    2  A    between atoms: C_6  and  O_7
REMARK    3  A    between atoms: C_9  and  O_10
REMARK    4  A    between atoms: O_10  and  C_11
REMARK    5  A    between atoms: C_11  and  C_12
REMARK    6  A    between atoms: C_11  and  C_15
REMARK    7  A    between atoms: C_12  and  O_14
REMARK    8  A    between atoms: C_15  and  O_17
REMARK                            x       y       z     vdW  Elec       q    Type
REMARK                         _______ _______ _______ _____ _____    ______ ____
ROOT
ATOM      1  C   UNL     1       6.456   4.858  16.618  0.00  0.00    +0.000 A 
ATOM      2  C   UNL     1       7.440   5.195  17.561  0.00  0.00    +0.000 A 
ATOM      3  C   UNL     1       7.102   5.345  18.899  0.00  0.00    +0.000 A 
ATOM      4  C   UNL     1       5.797   5.140  19.327  0.00  0.00    +0.000 A 
ATOM      5  C   UNL     1       4.804   4.805  18.404  0.00  0.00    +0.000 A 
ATOM      6  C   UNL     1       5.127   4.680  17.048  0.00  0.00    +0.000 A 
ENDROOT
BRANCH   1   8
ATOM      7  O   UNL     1       6.326   3.733  14.486  0.00  0.00    +0.000 OA
ATOM      8  C   UNL     1       6.847   4.655  15.197  0.00  0.00    +0.000 C 
ATOM      9  O   UNL     1       7.716   5.418  14.649  0.00  0.00    +0.000 OA
ENDBRANCH   1   8
BRANCH   3  10
ATOM     10  O   UNL     1       8.049   5.670  19.826  0.00  0.00    +0.000 OA
ATOM     11  H   UNL     1       7.749   6.454  20.309  0.00  0.00    +0.000 HD
ENDBRANCH   3  10
BRANCH   5  12
ATOM     12  O   UNL     1       3.586   4.478  18.937  0.00  0.00    +0.000 OA
BRANCH  12  13
ATOM     13  C   UNL     1       3.584   3.536  20.011  0.00  0.00    +0.000 C 
BRANCH  13  14
ATOM     14  C   UNL     1       2.231   3.560  20.693  0.00  0.00    +0.000 C 
ATOM     15  O   UNL     1       1.207   3.893  20.102  0.00  0.00    +0.000 OA
BRANCH  14  16
ATOM     16  O   UNL     1       2.233   3.184  21.992  0.00  0.00    +0.000 OA
ATOM     17  H   UNL     1       2.920   2.503  22.167  0.00  0.00    +0.000 HD
ENDBRANCH  14  16
ENDBRANCH  13  14
BRANCH  13  18
ATOM     18  C   UNL     1       3.892   2.132  19.491  0.00  0.00    +0.000 C 
ATOM     19  O   UNL     1       3.189   1.525  18.690  0.00  0.00    +0.000 OA
BRANCH  18  20
ATOM     20  O   UNL     1       5.056   1.595  19.938  0.00  0.00    +0.000 OA
ATOM     21  H   UNL     1       4.998   0.656  20.239  0.00  0.00    +0.000 HD
ENDBRANCH  18  20
ENDBRANCH  13  18
ENDBRANCH  12  13
ENDBRANCH   5  12
TORSDOF 8
ENDMDL
MODEL 5
REMARK VINA RESULT:      -6.8      1.175      2.053
REMARK  Name = 
REMARK  8 active torsions:
REMARK  status: ('A' for Active; 'I' for Inactive)
REMARK    1  A    between atoms: C_2  and  C_4
REMARK    2  A    between atoms: C_6  and  O_7
REMARK    3  A    between atoms: C_9  and  O_10
REMARK    4  A    between atoms: O_10  and  C_11
REMARK    5  A    between atoms: C_11  and  C_12
REMARK    6  A    between atoms: C_11  and  C_15
REMARK    7  A    between atoms: C_12  and  O_14
REMARK    8  A    between atoms: C_15  and  O_17
REMARK                            x       y       z     vdW  Elec       q    Type
REMARK                         _______ _______ _______ _____ _____    ______ ____
ROOT
ATOM      1  C   UNL     1       6.556   4.822  16.497  0.00  0.00    +0.000 A 
ATOM      2  C   UNL     1       7.489   5.366  17.394  0.00  0.00    +0.000 A 
ATOM      3  C   UNL     1       7.175   5.486  18.740  0.00  0.00    +0.000 A 
ATOM      4  C   UNL     1       5.949   5.047  19.223  0.00  0.00    +0.000 A 
ATOM      5  C   UNL     1       5.008   4.502  18.347  0.00  0.00    +0.000 A 
ATOM      6  C   UNL     1       5.302   4.405  16.982  0.00  0.00    +0.000 A 
ENDROOT
BRANCH   1   8
ATOM      7  O   UNL     1       6.424   3.737  14.344  0.00  0.00    +0.000 OA
ATOM      8  C   UNL     1       6.931   4.659  15.067  0.00  0.00    +0.000 C 
ATOM      9  O   UNL     1       7.768   5.457  14.520  0.00  0.00    +0.000 OA
ENDBRANCH   1   8
BRANCH   3  10
ATOM     10  O   UNL     1       8.073   6.012  19.623  0.00  0.00    +0.000 OA
ATOM     11  H   UNL     1       7.808   6.921  19.825  0.00  0.00    +0.000 HD
ENDBRANCH   3  10
BRANCH   5  12
ATOM     12  O   UNL     1       3.895   3.963  18.933  0.00  0.00    +0.000 OA
BRANCH  12  13
ATOM     13  C   UNL     1       2.939   3.354  18.064  0.00  0.00    +0.000 C 
BRANCH  13  14
ATOM     14  C   UNL     1       2.805   1.886  18.418  0.00  0.00    +0.000 C 
ATOM     15  O   UNL     1       3.783   1.152  18.542  0.00  0.00    +0.000 OA
BRANCH  14  16
ATOM     16  O   UNL     1       1.539   1.447  18.590  0.00  0.00    +0.000 OA
ATOM     17  H   UNL     1       0.891   2.183  18.512  0.00  0.00    +0.000 HD
ENDBRANCH  14  16
ENDBRANCH  13  14
BRANCH  13  18
ATOM     18  C   UNL     1       1.586   4.054  18.183  0.00  0.00    +0.000 C 
ATOM     19  O   UNL     1       0.896   4.386  17.226  0.00  0.00    +0.000 OA
BRANCH  18  20
ATOM     20  O   UNL     1       1.147   4.248  19.454  0.00  0.00    +0.000 OA
ATOM     21  H   UNL     1       1.570   4.999  19.935  0.00  0.00    +0.000 HD
ENDBRANCH  18  20
ENDBRANCH  13  18
ENDBRANCH  12  13
ENDBRANCH   5  12
TORSDOF 8
ENDMDL
MODEL 6
REMARK VINA RESULT:      -6.8      1.559      5.828
REMARK  Name = 
REMARK  8 active torsions:
REMARK  status: ('A' for Active; 'I' for Inactive)
REMARK    1  A    between atoms: C_2  and  C_4
REMARK    2  A    between atoms: C_6  and  O_7
REMARK    3  A    between atoms: C_9  and  O_10
REMARK    4  A    between atoms: O_10  and  C_11
REMARK    5  A    between atoms: C_11  and  C_12
REMARK    6  A    between atoms: C_11  and  C_15
REMARK    7  A    between atoms: C_12  and  O_14
REMARK    8  A    between atoms: C_15  and  O_17
REMARK                            x       y       z     vdW  Elec       q    Type
REMARK                         _______ _______ _______ _____ _____    ______ ____
ROOT
ATOM      1  C   UNL     1       2.734   4.036  20.194  0.00  0.00    +0.000 A 
ATOM      2  C   UNL     1       2.292   5.363  20.081  0.00  0.00    +0.000 A 
ATOM      3  C   UNL     1       2.867   6.214  19.147  0.00  0.00    +0.000 A 
ATOM      4  C   UNL     1       3.865   5.759  18.295  0.00  0.00    +0.000 A 
ATOM      5  C   UNL     1       4.318   4.442  18.392  0.00  0.00    +0.000 A 
ATOM      6  C   UNL     1       3.768   3.584  19.351  0.00  0.00    +0.000 A 
ENDROOT
BRANCH   1   8
ATOM      7  O   UNL     1       2.719   2.603  22.136  0.00  0.00    +0.000 OA
ATOM      8  C   UNL     1       2.073   3.128  21.169  0.00  0.00    +0.000 C 
ATOM      9  O   UNL     1       0.826   2.861  21.065  0.00  0.00    +0.000 OA
ENDBRANCH   1   8
BRANCH   3  10
ATOM     10  O   UNL     1       2.444   7.505  19.026  0.00  0.00    +0.000 OA
ATOM     11  H   UNL     1       2.230   7.842  19.908  0.00  0.00    +0.000 HD
ENDBRANCH   3  10
BRANCH   5  12
ATOM     12  O   UNL     1       5.194   4.044  17.417  0.00  0.00    +0.000 OA
BRANCH  12  13
ATOM     13  C   UNL     1       6.249   4.949  17.089  0.00  0.00    +0.000 C 
BRANCH  13  14
ATOM     14  C   UNL     1       7.386   4.771  18.075  0.00  0.00    +0.000 C 
ATOM     15  O   UNL     1       7.397   5.332  19.168  0.00  0.00    +0.000 OA
BRANCH  14  16
ATOM     16  O   UNL     1       8.380   3.950  17.668  0.00  0.00    +0.000 OA
ATOM     17  H   UNL     1       8.522   4.015  16.697  0.00  0.00    +0.000 HD
ENDBRANCH  14  16
ENDBRANCH  13  14
BRANCH  13  18
ATOM     18  C   UNL     1       6.739   4.703  15.663  0.00  0.00    +0.000 C 
ATOM     19  O   UNL     1       7.470   5.469  15.044  0.00  0.00    +0.000 OA
BRANCH  18  20
ATOM     20  O   UNL     1       6.353   3.521  15.116  0.00  0.00    +0.000 OA
ATOM     21  H   UNL     1       6.687   2.715  15.579  0.00  0.00    +0.000 HD
ENDBRANCH  18  20
ENDBRANCH  13  18
ENDBRANCH  12  13
ENDBRANCH   5  12
TORSDOF 8
ENDMDL
MODEL 7
REMARK VINA RESULT:      -6.8      0.629      1.116
REMARK  Name = 
REMARK  8 active torsions:
REMARK  status: ('A' for Active; 'I' for Inactive)
REMARK    1  A    between atoms: C_2  and  C_4
REMARK    2  A    between atoms: C_6  and  O_7
REMARK    3  A    between atoms: C_9  and  O_10
REMARK    4  A    between atoms: O_10  and  C_11
REMARK    5  A    between atoms: C_11  and  C_12
REMARK    6  A    between atoms: C_11  and  C_15
REMARK    7  A    between atoms: C_12  and  O_14
REMARK    8  A    between atoms: C_15  and  O_17
REMARK                            x       y       z     vdW  Elec       q    Type
REMARK                         _______ _______ _______ _____ _____    ______ ____
ROOT
ATOM      1  C   UNL     1       6.308   4.834  16.744  0.00  0.00    +0.000 A 
ATOM      2  C   UNL     1       7.219   5.109  17.775  0.00  0.00    +0.000 A 
ATOM      3  C   UNL     1       6.771   5.269  19.079  0.00  0.00    +0.000 A 
ATOM      4  C   UNL     1       5.423   5.133  19.385  0.00  0.00    +0.000 A 
ATOM      5  C   UNL     1       4.501   4.859  18.372  0.00  0.00    +0.000 A 
ATOM      6  C   UNL     1       4.938   4.726  17.050  0.00  0.00    +0.000 A 
ENDROOT
BRANCH   1   8
ATOM      7  O   UNL     1       6.331   3.713  14.605  0.00  0.00    +0.000 OA
ATOM      8  C   UNL     1       6.816   4.619  15.362  0.00  0.00    +0.000 C 
ATOM      9  O   UNL     1       7.749   5.357  14.892  0.00  0.00    +0.000 OA
ENDBRANCH   1   8
BRANCH   3  10
ATOM     10  O   UNL     1       7.645   5.535  20.091  0.00  0.00    +0.000 OA
ATOM     11  H   UNL     1       7.490   6.439  20.402  0.00  0.00    +0.000 HD
ENDBRANCH   3  10
BRANCH   5  12
ATOM     12  O   UNL     1       3.224   4.596  18.789  0.00  0.00    +0.000 OA
BRANCH  12  13
ATOM     13  C   UNL     1       3.044   3.465  19.643  0.00  0.00    +0.000 C 
BRANCH  13  14
ATOM     14  C   UNL     1       2.390   3.913  20.935  0.00  0.00    +0.000 C 
ATOM     15  O   UNL     1       1.983   5.061  21.097  0.00  0.00    +0.000 OA
BRANCH  14  16
ATOM     16  O   UNL     1       2.284   2.961  21.889  0.00  0.00    +0.000 OA
ATOM     17  H   UNL     1       1.523   3.137  22.488  0.00  0.00    +0.000 HD
ENDBRANCH  14  16
ENDBRANCH  13  14
BRANCH  13  18
ATOM     18  C   UNL     1       2.186   2.405  18.952  0.00  0.00    +0.000 C 
ATOM     19  O   UNL     1       0.977   2.284  19.117  0.00  0.00    +0.000 OA
BRANCH  18  20
ATOM     20  O   UNL     1       2.849   1.610  18.073  0.00  0.00    +0.000 OA
ATOM     21  H   UNL     1       3.748   1.927  17.815  0.00  0.00    +0.000 HD
ENDBRANCH  18  20
ENDBRANCH  13  18
ENDBRANCH  12  13
ENDBRANCH   5  12
TORSDOF 8
ENDMDL
MODEL 8
REMARK VINA RESULT:      -6.8      1.255      2.224
REMARK  Name = 
REMARK  8 active torsions:
REMARK  status: ('A' for Active; 'I' for Inactive)
REMARK    1  A    between atoms: C_2  and  C_4
REMARK    2  A    between atoms: C_6  and  O_7
REMARK    3  A    between atoms: C_9  and  O_10
REMARK    4  A    between atoms: O_10  and  C_11
REMARK    5  A    between atoms: C_11  and  C_12
REMARK    6  A    between atoms: C_11  and  C_15
REMARK    7  A    between atoms: C_12  and  O_14
REMARK    8  A    between atoms: C_15  and  O_17
REMARK                            x       y       z     vdW  Elec       q    Type
REMARK                         _______ _______ _______ _____ _____    ______ ____
ROOT
ATOM      1  C   UNL     1       6.594   4.889  16.307  0.00  0.00    +0.000 A 
ATOM      2  C   UNL     1       7.514   5.548  17.136  0.00  0.00    +0.000 A 
ATOM      3  C   UNL     1       7.270   5.664  18.497  0.00  0.00    +0.000 A 
ATOM      4  C   UNL     1       6.129   5.108  19.061  0.00  0.00    +0.000 A 
ATOM      5  C   UNL     1       5.201   4.448  18.253  0.00  0.00    +0.000 A 
ATOM      6  C   UNL     1       5.422   4.352  16.874  0.00  0.00    +0.000 A 
ENDROOT
BRANCH   1   8
ATOM      7  O   UNL     1       7.783   5.451  14.282  0.00  0.00    +0.000 OA
ATOM      8  C   UNL     1       6.898   4.735  14.859  0.00  0.00    +0.000 C 
ATOM      9  O   UNL     1       6.281   3.861  14.156  0.00  0.00    +0.000 OA
ENDBRANCH   1   8
BRANCH   3  10
ATOM     10  O   UNL     1       8.157   6.300  19.315  0.00  0.00    +0.000 OA
ATOM     11  H   UNL     1       8.625   5.633  19.839  0.00  0.00    +0.000 HD
ENDBRANCH   3  10
BRANCH   5  12
ATOM     12  O   UNL     1       4.188   3.807  18.915  0.00  0.00    +0.000 OA
BRANCH  12  13
ATOM     13  C   UNL     1       3.123   3.290  18.117  0.00  0.00    +0.000 C 
BRANCH  13  14
ATOM     14  C   UNL     1       2.912   1.827  18.452  0.00  0.00    +0.000 C 
ATOM     15  O   UNL     1       3.831   1.012  18.427  0.00  0.00    +0.000 OA
BRANCH  14  16
ATOM     16  O   UNL     1       1.646   1.487  18.783  0.00  0.00    +0.000 OA
ATOM     17  H   UNL     1       1.040   2.260  18.722  0.00  0.00    +0.000 HD
ENDBRANCH  14  16
ENDBRANCH  13  14
BRANCH  13  18
ATOM     18  C   UNL     1       1.838   4.082  18.362  0.00  0.00    +0.000 C 
ATOM     19  O   UNL     1       1.550   4.612  19.430  0.00  0.00    +0.000 OA
BRANCH  18  20
ATOM     20  O   UNL     1       1.029   4.217  17.280  0.00  0.00    +0.000 OA
ATOM     21  H   UNL     1       0.183   4.700  17.445  0.00  0.00    +0.000 HD
ENDBRANCH  18  20
ENDBRANCH  13  18
ENDBRANCH  12  13
ENDBRANCH   5  12
TORSDOF 8
ENDMDL
MODEL 9
REMARK VINA RESULT:      -6.7      1.844      2.393
REMARK  Name = 
REMARK  8 active torsions:
REMARK  status: ('A' for Active; 'I' for Inactive)
REMARK    1  A    between atoms: C_2  and  C_4
REMARK    2  A    between atoms: C_6  and  O_7
REMARK    3  A    between atoms: C_9  and  O_10
REMARK    4  A    between atoms: O_10  and  C_11
REMARK    5  A    between atoms: C_11  and  C_12
REMARK    6  A    between atoms: C_11  and  C_15
REMARK    7  A    between atoms: C_12  and  O_14
REMARK    8  A    between atoms: C_15  and  O_17
REMARK                            x       y       z     vdW  Elec       q    Type
REMARK                         _______ _______ _______ _____ _____    ______ ____
ROOT
ATOM      1  C   UNL     1       5.339   4.891  16.090  0.00  0.00    +0.000 A 
ATOM      2  C   UNL     1       4.953   6.196  16.436  0.00  0.00    +0.000 A 
ATOM      3  C   UNL     1       3.954   6.402  17.377  0.00  0.00    +0.000 A 
ATOM      4  C   UNL     1       3.342   5.326  18.007  0.00  0.00    +0.000 A 
ATOM      5  C   UNL     1       3.712   4.021  17.676  0.00  0.00    +0.000 A 
ATOM      6  C   UNL     1       4.697   3.800  16.707  0.00  0.00    +0.000 A 
ENDROOT
BRANCH   1   8
ATOM      7  O   UNL     1       7.472   5.449  15.106  0.00  0.00    +0.000 OA
ATOM      8  C   UNL     1       6.444   4.693  15.115  0.00  0.00    +0.000 C 
ATOM      9  O   UNL     1       6.394   3.740  14.263  0.00  0.00    +0.000 OA
ENDBRANCH   1   8
BRANCH   3  10
ATOM     10  O   UNL     1       3.571   7.665  17.724  0.00  0.00    +0.000 OA
ATOM     11  H   UNL     1       4.002   7.897  18.559  0.00  0.00    +0.000 HD
ENDBRANCH   3  10
BRANCH   5  12
ATOM     12  O   UNL     1       3.164   3.036  18.452  0.00  0.00    +0.000 OA
BRANCH  12  13
ATOM     13  C   UNL     1       3.584   2.979  19.816  0.00  0.00    +0.000 C 
BRANCH  13  14
ATOM     14  C   UNL     1       2.368   2.838  20.709  0.00  0.00    +0.000 C 
ATOM     15  O   UNL     1       1.223   2.879  20.265  0.00  0.00    +0.000 OA
BRANCH  14  16
ATOM     16  O   UNL     1       2.634   2.662  22.023  0.00  0.00    +0.000 OA
ATOM     17  H   UNL     1       2.323   3.429  22.557  0.00  0.00    +0.000 HD
ENDBRANCH  14  16
ENDBRANCH  13  14
BRANCH  13  18
ATOM     18  C   UNL     1       4.540   1.806  20.032  0.00  0.00    +0.000 C 
ATOM     19  O   UNL     1       5.218   1.647  21.041  0.00  0.00    +0.000 OA
BRANCH  18  20
ATOM     20  O   UNL     1       4.559   0.886  19.032  0.00  0.00    +0.000 OA
ATOM     21  H   UNL     1       4.004   1.108  18.247  0.00  0.00    +0.000 HD
ENDBRANCH  18  20
ENDBRANCH  13  18
ENDBRANCH  12  13
ENDBRANCH   5  12
TORSDOF 8
ENDMDL
