MODEL 1
REMARK VINA RESULT:      -6.9      0.000      0.000
REMARK  Name = 
REMARK  10 active torsions:
REMARK  status: ('A' for Active; 'I' for Inactive)
REMARK    1  A    between atoms: C_1  and  O_2
REMARK    2  A    between atoms: O_2  and  C_3
REMARK    3  A    between atoms: C_6  and  C_7
REMARK    4  A    between atoms: C_8  and  C_9
REMARK    5  A    between atoms: C_9  and  C_11
REMARK    6  A    between atoms: C_14  and  N_15
REMARK    7  A    between atoms: C_18  and  O_19
REMARK    8  A    between atoms: O_19  and  C_20
REMARK    9  A    between atoms: C_21  and  O_22
REMARK   10  A    between atoms: O_22  and  C_23
REMARK                            x       y       z     vdW  Elec       q    Type
REMARK                         _______ _______ _______ _____ _____    ______ ____
ROOT
ATOM      1  C   UNL     1       2.082   7.697  19.534  0.00  0.00    +0.000 C 
ATOM      2  C   UNL     1       1.601   8.775  18.897  0.00  0.00    +0.000 C 
ENDROOT
BRANCH   1   6
ATOM      3  C   UNL     1       4.788   5.022  17.574  0.00  0.00    +0.000 A 
ATOM      4  C   UNL     1       4.484   6.282  17.039  0.00  0.00    +0.000 A 
ATOM      5  C   UNL     1       3.601   7.137  17.691  0.00  0.00    +0.000 A 
ATOM      6  C   UNL     1       2.965   6.728  18.866  0.00  0.00    +0.000 A 
ATOM      7  C   UNL     1       3.196   5.429  19.375  0.00  0.00    +0.000 A 
ATOM      8  C   UNL     1       4.109   4.559  18.722  0.00  0.00    +0.000 A 
BRANCH   3  10
ATOM      9  C   UNL     1       6.157   4.628  15.679  0.00  0.00    +0.000 C 
ATOM     10  O   UNL     1       5.764   4.245  16.999  0.00  0.00    +0.000 OA
ENDBRANCH   3  10
BRANCH   7  11
ATOM     11  O   UNL     1       2.553   5.173  20.565  0.00  0.00    +0.000 OA
ATOM     12  C   UNL     1       1.347   4.424  20.534  0.00  0.00    +0.000 C 
ENDBRANCH   7  11
BRANCH   8  13
ATOM     13  O   UNL     1       4.362   3.368  19.352  0.00  0.00    +0.000 OA
ATOM     14  C   UNL     1       3.734   2.178  18.901  0.00  0.00    +0.000 C 
ENDBRANCH   8  13
ENDBRANCH   1   6
BRANCH   2  15
ATOM     15  C   UNL     1       0.771   9.785  19.621  0.00  0.00    +0.000 C 
ATOM     16  O   UNL     1       1.044  10.160  20.759  0.00  0.00    +0.000 OA
BRANCH  15  17
ATOM     17  C   UNL     1      -0.424  10.314  18.905  0.00  0.00    +0.000 A 
ATOM     18  C   UNL     1      -1.100  11.422  19.428  0.00  0.00    +0.000 A 
ATOM     19  C   UNL     1      -2.223  11.938  18.768  0.00  0.00    +0.000 A 
ATOM     20  C   UNL     1      -2.647  11.400  17.550  0.00  0.00    +0.000 A 
ATOM     21  C   UNL     1      -1.989  10.275  17.051  0.00  0.00    +0.000 A 
ATOM     22  C   UNL     1      -0.870   9.748  17.704  0.00  0.00    +0.000 A 
BRANCH  20  23
ATOM     23  N   UNL     1      -3.839  11.834  16.959  0.00  0.00    +0.000 N 
ATOM     24  H   UNL     1      -3.809  11.866  15.944  0.00  0.00    +0.000 HD
ATOM     25  H   UNL     1      -4.666  11.356  17.300  0.00  0.00    +0.000 HD
ENDBRANCH  20  23
ENDBRANCH  15  17
ENDBRANCH   2  15
TORSDOF 7
ENDMDL
MODEL 2
REMARK VINA RESULT:      -6.8      0.171      1.016
REMARK  Name = 
REMARK  10 active torsions:
REMARK  status: ('A' for Active; 'I' for Inactive)
REMARK    1  A    between atoms: C_1  and  O_2
REMARK    2  A    between atoms: O_2  and  C_3
REMARK    3  A    between atoms: C_6  and  C_7
REMARK    4  A    between atoms: C_8  and  C_9
REMARK    5  A    between atoms: C_9  and  C_11
REMARK    6  A    between atoms: C_14  and  N_15
REMARK    7  A    between atoms: C_18  and  O_19
REMARK    8  A    between atoms: O_19  and  C_20
REMARK    9  A    between atoms: C_21  and  O_22
REMARK   10  A    between atoms: O_22  and  C_23
REMARK                            x       y       z     vdW  Elec       q    Type
REMARK                         _______ _______ _______ _____ _____    ______ ____
ROOT
ATOM      1  C   UNL     1       1.936   7.716  19.586  0.00  0.00    +0.000 C 
ATOM      2  C   UNL     1       1.658   8.914  19.053  0.00  0.00    +0.000 C 
ENDROOT
BRANCH   1   6
ATOM      3  C   UNL     1       4.716   5.091  17.661  0.00  0.00    +0.000 A 
ATOM      4  C   UNL     1       4.405   6.351  17.129  0.00  0.00    +0.000 A 
ATOM      5  C   UNL     1       3.498   7.189  17.770  0.00  0.00    +0.000 A 
ATOM      6  C   UNL     1       2.845   6.763  18.929  0.00  0.00    +0.000 A 
ATOM      7  C   UNL     1       3.084   5.463  19.433  0.00  0.00    +0.000 A 
ATOM      8  C   UNL     1       4.021   4.611  18.792  0.00  0.00    +0.000 A 
BRANCH   3  10
ATOM      9  C   UNL     1       5.860   4.457  15.684  0.00  0.00    +0.000 C 
ATOM     10  O   UNL     1       5.714   4.331  17.100  0.00  0.00    +0.000 OA
ENDBRANCH   3  10
BRANCH   7  11
ATOM     11  O   UNL     1       2.421   5.190  20.609  0.00  0.00    +0.000 OA
ATOM     12  C   UNL     1       1.235   4.411  20.551  0.00  0.00    +0.000 C 
ENDBRANCH   7  11
BRANCH   8  13
ATOM     13  O   UNL     1       4.278   3.419  19.419  0.00  0.00    +0.000 OA
ATOM     14  C   UNL     1       3.713   2.216  18.919  0.00  0.00    +0.000 C 
ENDBRANCH   8  13
ENDBRANCH   1   6
BRANCH   2  15
ATOM     15  C   UNL     1       0.795   9.893  19.779  0.00  0.00    +0.000 C 
ATOM     16  O   UNL     1       1.053  10.271  20.920  0.00  0.00    +0.000 OA
BRANCH  15  17
ATOM     17  C   UNL     1      -0.414  10.388  19.063  0.00  0.00    +0.000 A 
ATOM     18  C   UNL     1      -0.772   9.806  17.841  0.00  0.00    +0.000 A 
ATOM     19  C   UNL     1      -1.908  10.253  17.154  0.00  0.00    +0.000 A 
ATOM     20  C   UNL     1      -2.736  11.237  17.702  0.00  0.00    +0.000 A 
ATOM     21  C   UNL     1      -2.356  11.836  18.904  0.00  0.00    +0.000 A 
ATOM     22  C   UNL     1      -1.221  11.401  19.596  0.00  0.00    +0.000 A 
BRANCH  20  23
ATOM     23  N   UNL     1      -3.795  11.769  16.959  0.00  0.00    +0.000 N 
ATOM     24  H   UNL     1      -4.471  12.284  17.514  0.00  0.00    +0.000 HD
ATOM     25  H   UNL     1      -3.502  12.289  16.138  0.00  0.00    +0.000 HD
ENDBRANCH  20  23
ENDBRANCH  15  17
ENDBRANCH   2  15
TORSDOF 7
ENDMDL
MODEL 3
REMARK VINA RESULT:      -6.7      1.652      2.990
REMARK  Name = 
REMARK  10 active torsions:
REMARK  status: ('A' for Active; 'I' for Inactive)
REMARK    1  A    between atoms: C_1  and  O_2
REMARK    2  A    between atoms: O_2  and  C_3
REMARK    3  A    between atoms: C_6  and  C_7
REMARK    4  A    between atoms: C_8  and  C_9
REMARK    5  A    between atoms: C_9  and  C_11
REMARK    6  A    between atoms: C_14  and  N_15
REMARK    7  A    between atoms: C_18  and  O_19
REMARK    8  A    between atoms: O_19  and  C_20
REMARK    9  A    between atoms: C_21  and  O_22
REMARK   10  A    between atoms: O_22  and  C_23
REMARK                            x       y       z     vdW  Elec       q    Type
REMARK                         _______ _______ _______ _____ _____    ______ ____
ROOT
ATOM      1  C   UNL     1       2.944   8.054  17.872  0.00  0.00    +0.000 C 
ATOM      2  C   UNL     1       1.741   8.597  18.105  0.00  0.00    +0.000 C 
ENDROOT
BRANCH   1   6
ATOM      3  C   UNL     1       3.331   3.799  17.604  0.00  0.00    +0.000 A 
ATOM      4  C   UNL     1       2.211   4.399  18.196  0.00  0.00    +0.000 A 
ATOM      5  C   UNL     1       2.104   5.784  18.274  0.00  0.00    +0.000 A 
ATOM      6  C   UNL     1       3.140   6.596  17.807  0.00  0.00    +0.000 A 
ATOM      7  C   UNL     1       4.314   6.006  17.283  0.00  0.00    +0.000 A 
ATOM      8  C   UNL     1       4.421   4.594  17.186  0.00  0.00    +0.000 A 
BRANCH   3  10
ATOM      9  C   UNL     1       3.492   1.649  18.590  0.00  0.00    +0.000 C 
ATOM     10  O   UNL     1       3.364   2.440  17.406  0.00  0.00    +0.000 OA
ENDBRANCH   3  10
BRANCH   7  11
ATOM     11  O   UNL     1       5.232   6.917  16.808  0.00  0.00    +0.000 OA
ATOM     12  C   UNL     1       6.489   7.012  17.460  0.00  0.00    +0.000 C 
ENDBRANCH   7  11
BRANCH   8  13
ATOM     13  O   UNL     1       5.540   4.117  16.555  0.00  0.00    +0.000 OA
ATOM     14  C   UNL     1       5.589   4.063  15.137  0.00  0.00    +0.000 C 
ENDBRANCH   8  13
ENDBRANCH   1   6
BRANCH   2  15
ATOM     15  C   UNL     1       1.554  10.080  18.087  0.00  0.00    +0.000 C 
ATOM     16  O   UNL     1       2.498  10.855  17.947  0.00  0.00    +0.000 OA
BRANCH  15  17
ATOM     17  C   UNL     1       0.165  10.587  18.264  0.00  0.00    +0.000 A 
ATOM     18  C   UNL     1      -0.901   9.869  17.710  0.00  0.00    +0.000 A 
ATOM     19  C   UNL     1      -2.216  10.327  17.869  0.00  0.00    +0.000 A 
ATOM     20  C   UNL     1      -2.491  11.465  18.632  0.00  0.00    +0.000 A 
ATOM     21  C   UNL     1      -1.422  12.195  19.153  0.00  0.00    +0.000 A 
ATOM     22  C   UNL     1      -0.104  11.749  18.997  0.00  0.00    +0.000 A 
BRANCH  20  23
ATOM     23  N   UNL     1      -3.787  11.989  18.683  0.00  0.00    +0.000 N 
ATOM     24  H   UNL     1      -4.519  11.293  18.578  0.00  0.00    +0.000 HD
ATOM     25  H   UNL     1      -3.954  12.600  19.477  0.00  0.00    +0.000 HD
ENDBRANCH  20  23
ENDBRANCH  15  17
ENDBRANCH   2  15
TORSDOF 7
ENDMDL
MODEL 4
REMARK VINA RESULT:      -6.7      1.424      2.930
REMARK  Name = 
REMARK  10 active torsions:
REMARK  status: ('A' for Active; 'I' for Inactive)
REMARK    1  A    between atoms: C_1  and  O_2
REMARK    2  A    between atoms: O_2  and  C_3
REMARK    3  A    between atoms: C_6  and  C_7
REMARK    4  A    between atoms: C_8  and  C_9
REMARK    5  A    between atoms: C_9  and  C_11
REMARK    6  A    between atoms: C_14  and  N_15
REMARK    7  A    between atoms: C_18  and  O_19
REMARK    8  A    between atoms: O_19  and  C_20
REMARK    9  A    between atoms: C_21  and  O_22
REMARK   10  A    between atoms: O_22  and  C_23
REMARK                            x       y       z     vdW  Elec       q    Type
REMARK                         _______ _______ _______ _____ _____    ______ ____
ROOT
ATOM      1  C   UNL     1       2.334   7.927  18.480  0.00  0.00    +0.000 C 
ATOM      2  C   UNL     1       1.649   8.898  19.100  0.00  0.00    +0.000 C 
ENDROOT
BRANCH   1   6
ATOM      3  C   UNL     1       2.780   4.085  20.314  0.00  0.00    +0.000 A 
ATOM      4  C   UNL     1       2.005   5.095  20.903  0.00  0.00    +0.000 A 
ATOM      5  C   UNL     1       1.873   6.337  20.291  0.00  0.00    +0.000 A 
ATOM      6  C   UNL     1       2.556   6.612  19.103  0.00  0.00    +0.000 A 
ATOM      7  C   UNL     1       3.407   5.634  18.539  0.00  0.00    +0.000 A 
ATOM      8  C   UNL     1       3.532   4.358  19.150  0.00  0.00    +0.000 A 
BRANCH   3  10
ATOM      9  C   UNL     1       1.680   2.500  21.691  0.00  0.00    +0.000 C 
ATOM     10  O   UNL     1       2.790   2.820  20.850  0.00  0.00    +0.000 OA
ENDBRANCH   3  10
BRANCH   7  11
ATOM     11  O   UNL     1       3.974   6.011  17.342  0.00  0.00    +0.000 OA
ATOM     12  C   UNL     1       5.338   6.407  17.335  0.00  0.00    +0.000 C 
ENDBRANCH   7  11
BRANCH   8  13
ATOM     13  O   UNL     1       4.282   3.435  18.469  0.00  0.00    +0.000 OA
ATOM     14  C   UNL     1       3.654   2.530  17.573  0.00  0.00    +0.000 C 
ENDBRANCH   8  13
ENDBRANCH   1   6
BRANCH   2  15
ATOM     15  C   UNL     1       1.371  10.196  18.414  0.00  0.00    +0.000 C 
ATOM     16  O   UNL     1       2.266  10.874  17.912  0.00  0.00    +0.000 OA
BRANCH  15  17
ATOM     17  C   UNL     1      -0.047  10.649  18.376  0.00  0.00    +0.000 A 
ATOM     18  C   UNL     1      -0.404  11.837  19.023  0.00  0.00    +0.000 A 
ATOM     19  C   UNL     1      -1.732  12.284  18.995  0.00  0.00    +0.000 A 
ATOM     20  C   UNL     1      -2.705  11.590  18.270  0.00  0.00    +0.000 A 
ATOM     21  C   UNL     1      -2.351  10.388  17.655  0.00  0.00    +0.000 A 
ATOM     22  C   UNL     1      -1.029   9.931  17.681  0.00  0.00    +0.000 A 
BRANCH  20  23
ATOM     23  N   UNL     1      -4.051  11.966  18.348  0.00  0.00    +0.000 N 
ATOM     24  H   UNL     1      -4.343  12.608  17.618  0.00  0.00    +0.000 HD
ATOM     25  H   UNL     1      -4.692  11.186  18.447  0.00  0.00    +0.000 HD
ENDBRANCH  20  23
ENDBRANCH  15  17
ENDBRANCH   2  15
TORSDOF 7
ENDMDL
MODEL 5
REMARK VINA RESULT:      -6.7      1.426      3.076
REMARK  Name = 
REMARK  10 active torsions:
REMARK  status: ('A' for Active; 'I' for Inactive)
REMARK    1  A    between atoms: C_1  and  O_2
REMARK    2  A    between atoms: O_2  and  C_3
REMARK    3  A    between atoms: C_6  and  C_7
REMARK    4  A    between atoms: C_8  and  C_9
REMARK    5  A    between atoms: C_9  and  C_11
REMARK    6  A    between atoms: C_14  and  N_15
REMARK    7  A    between atoms: C_18  and  O_19
REMARK    8  A    between atoms: O_19  and  C_20
REMARK    9  A    between atoms: C_21  and  O_22
REMARK   10  A    between atoms: O_22  and  C_23
REMARK                            x       y       z     vdW  Elec       q    Type
REMARK                         _______ _______ _______ _____ _____    ______ ____
ROOT
ATOM      1  C   UNL     1       2.293   8.013  18.459  0.00  0.00    +0.000 C 
ATOM      2  C   UNL     1       1.623   8.985  19.095  0.00  0.00    +0.000 C 
ENDROOT
BRANCH   1   6
ATOM      3  C   UNL     1       2.776   4.164  20.268  0.00  0.00    +0.000 A 
ATOM      4  C   UNL     1       1.960   5.149  20.843  0.00  0.00    +0.000 A 
ATOM      5  C   UNL     1       1.816   6.394  20.239  0.00  0.00    +0.000 A 
ATOM      6  C   UNL     1       2.527   6.697  19.076  0.00  0.00    +0.000 A 
ATOM      7  C   UNL     1       3.419   5.746  18.529  0.00  0.00    +0.000 A 
ATOM      8  C   UNL     1       3.556   4.467  19.131  0.00  0.00    +0.000 A 
BRANCH   3  10
ATOM      9  C   UNL     1       1.695   2.554  21.632  0.00  0.00    +0.000 C 
ATOM     10  O   UNL     1       2.801   2.894  20.792  0.00  0.00    +0.000 OA
ENDBRANCH   3  10
BRANCH   7  11
ATOM     11  O   UNL     1       4.013   6.149  17.353  0.00  0.00    +0.000 OA
ATOM     12  C   UNL     1       5.382   6.527  17.382  0.00  0.00    +0.000 C 
ENDBRANCH   7  11
BRANCH   8  13
ATOM     13  O   UNL     1       4.349   3.569  18.464  0.00  0.00    +0.000 OA
ATOM     14  C   UNL     1       3.770   2.654  17.546  0.00  0.00    +0.000 C 
ENDBRANCH   8  13
ENDBRANCH   1   6
BRANCH   2  15
ATOM     15  C   UNL     1       1.331  10.283  18.417  0.00  0.00    +0.000 C 
ATOM     16  O   UNL     1       2.216  10.965  17.903  0.00  0.00    +0.000 OA
BRANCH  15  17
ATOM     17  C   UNL     1      -0.090  10.732  18.400  0.00  0.00    +0.000 A 
ATOM     18  C   UNL     1      -1.038   9.977  17.701  0.00  0.00    +0.000 A 
ATOM     19  C   UNL     1      -2.380  10.378  17.677  0.00  0.00    +0.000 A 
ATOM     20  C   UNL     1      -2.806  11.496  18.400  0.00  0.00    +0.000 A 
ATOM     21  C   UNL     1      -1.851  12.264  19.068  0.00  0.00    +0.000 A 
ATOM     22  C   UNL     1      -0.507  11.874  19.094  0.00  0.00    +0.000 A 
BRANCH  20  23
ATOM     23  N   UNL     1      -4.118  11.967  18.273  0.00  0.00    +0.000 N 
ATOM     24  H   UNL     1      -4.371  12.231  17.325  0.00  0.00    +0.000 HD
ATOM     25  H   UNL     1      -4.815  11.366  18.700  0.00  0.00    +0.000 HD
ENDBRANCH  20  23
ENDBRANCH  15  17
ENDBRANCH   2  15
TORSDOF 7
ENDMDL
MODEL 6
REMARK VINA RESULT:      -6.6      1.256      1.521
REMARK  Name = 
REMARK  10 active torsions:
REMARK  status: ('A' for Active; 'I' for Inactive)
REMARK    1  A    between atoms: C_1  and  O_2
REMARK    2  A    between atoms: O_2  and  C_3
REMARK    3  A    between atoms: C_6  and  C_7
REMARK    4  A    between atoms: C_8  and  C_9
REMARK    5  A    between atoms: C_9  and  C_11
REMARK    6  A    between atoms: C_14  and  N_15
REMARK    7  A    between atoms: C_18  and  O_19
REMARK    8  A    between atoms: O_19  and  C_20
REMARK    9  A    between atoms: C_21  and  O_22
REMARK   10  A    between atoms: O_22  and  C_23
REMARK                            x       y       z     vdW  Elec       q    Type
REMARK                         _______ _______ _______ _____ _____    ______ ____
ROOT
ATOM      1  C   UNL     1       2.035   6.916  20.326  0.00  0.00    +0.000 C 
ATOM      2  C   UNL     1       1.705   8.193  20.083  0.00  0.00    +0.000 C 
ENDROOT
BRANCH   1   6
ATOM      3  C   UNL     1       4.364   4.715  17.487  0.00  0.00    +0.000 A 
ATOM      4  C   UNL     1       4.016   6.056  17.270  0.00  0.00    +0.000 A 
ATOM      5  C   UNL     1       3.258   6.754  18.205  0.00  0.00    +0.000 A 
ATOM      6  C   UNL     1       2.789   6.109  19.352  0.00  0.00    +0.000 A 
ATOM      7  C   UNL     1       3.060   4.735  19.546  0.00  0.00    +0.000 A 
ATOM      8  C   UNL     1       3.847   4.023  18.604  0.00  0.00    +0.000 A 
BRANCH   3  10
ATOM      9  C   UNL     1       6.602   4.448  16.755  0.00  0.00    +0.000 C 
ATOM     10  O   UNL     1       5.227   4.078  16.629  0.00  0.00    +0.000 OA
ENDBRANCH   3  10
BRANCH   7  11
ATOM     11  O   UNL     1       2.589   4.237  20.741  0.00  0.00    +0.000 OA
ATOM     12  C   UNL     1       1.368   3.512  20.737  0.00  0.00    +0.000 C 
ENDBRANCH   7  11
BRANCH   8  13
ATOM     13  O   UNL     1       4.159   2.730  18.935  0.00  0.00    +0.000 OA
ATOM     14  C   UNL     1       3.477   1.652  18.311  0.00  0.00    +0.000 C 
ENDBRANCH   8  13
ENDBRANCH   1   6
BRANCH   2  15
ATOM     15  C   UNL     1       1.009   9.013  21.120  0.00  0.00    +0.000 C 
ATOM     16  O   UNL     1       1.221   8.863  22.322  0.00  0.00    +0.000 OA
BRANCH  15  17
ATOM     17  C   UNL     1       0.026  10.021  20.635  0.00  0.00    +0.000 A 
ATOM     18  C   UNL     1      -0.529  10.929  21.544  0.00  0.00    +0.000 A 
ATOM     19  C   UNL     1      -1.452  11.889  21.107  0.00  0.00    +0.000 A 
ATOM     20  C   UNL     1      -1.785  11.998  19.754  0.00  0.00    +0.000 A 
ATOM     21  C   UNL     1      -1.255  11.068  18.858  0.00  0.00    +0.000 A 
ATOM     22  C   UNL     1      -0.336  10.103  19.285  0.00  0.00    +0.000 A 
BRANCH  20  23
ATOM     23  N   UNL     1      -2.799  12.869  19.340  0.00  0.00    +0.000 N 
ATOM     24  H   UNL     1      -2.767  13.100  18.352  0.00  0.00    +0.000 HD
ATOM     25  H   UNL     1      -3.728  12.591  19.637  0.00  0.00    +0.000 HD
ENDBRANCH  20  23
ENDBRANCH  15  17
ENDBRANCH   2  15
TORSDOF 7
ENDMDL
MODEL 7
REMARK VINA RESULT:      -6.6      3.185      8.009
REMARK  Name = 
REMARK  10 active torsions:
REMARK  status: ('A' for Active; 'I' for Inactive)
REMARK    1  A    between atoms: C_1  and  O_2
REMARK    2  A    between atoms: O_2  and  C_3
REMARK    3  A    between atoms: C_6  and  C_7
REMARK    4  A    between atoms: C_8  and  C_9
REMARK    5  A    between atoms: C_9  and  C_11
REMARK    6  A    between atoms: C_14  and  N_15
REMARK    7  A    between atoms: C_18  and  O_19
REMARK    8  A    between atoms: O_19  and  C_20
REMARK    9  A    between atoms: C_21  and  O_22
REMARK   10  A    between atoms: O_22  and  C_23
REMARK                            x       y       z     vdW  Elec       q    Type
REMARK                         _______ _______ _______ _____ _____    ______ ____
ROOT
ATOM      1  C   UNL     1       2.125   7.327  19.719  0.00  0.00    +0.000 C 
ATOM      2  C   UNL     1       2.049   6.046  20.107  0.00  0.00    +0.000 C 
ENDROOT
BRANCH   1   6
ATOM      3  C   UNL     1       0.215  10.457  21.928  0.00  0.00    +0.000 A 
ATOM      4  C   UNL     1       0.714   9.309  22.561  0.00  0.00    +0.000 A 
ATOM      5  C   UNL     1       1.331   8.303  21.825  0.00  0.00    +0.000 A 
ATOM      6  C   UNL     1       1.415   8.401  20.434  0.00  0.00    +0.000 A 
ATOM      7  C   UNL     1       0.843   9.511  19.771  0.00  0.00    +0.000 A 
ATOM      8  C   UNL     1       0.228  10.549  20.519  0.00  0.00    +0.000 A 
BRANCH   3  10
ATOM      9  C   UNL     1      -1.615  11.371  23.126  0.00  0.00    +0.000 C 
ATOM     10  O   UNL     1      -0.265  11.505  22.675  0.00  0.00    +0.000 OA
ENDBRANCH   3  10
BRANCH   7  11
ATOM     11  O   UNL     1       1.045   9.513  18.409  0.00  0.00    +0.000 OA
ATOM     12  C   UNL     1       2.105  10.300  17.883  0.00  0.00    +0.000 C 
ENDBRANCH   7  11
BRANCH   8  13
ATOM     13  O   UNL     1      -0.190  11.641  19.803  0.00  0.00    +0.000 OA
ATOM     14  C   UNL     1      -1.537  11.731  19.365  0.00  0.00    +0.000 C 
ENDBRANCH   8  13
ENDBRANCH   1   6
BRANCH   2  15
ATOM     15  C   UNL     1       2.841   4.987  19.412  0.00  0.00    +0.000 C 
ATOM     16  O   UNL     1       2.526   3.800  19.458  0.00  0.00    +0.000 OA
BRANCH  15  17
ATOM     17  C   UNL     1       4.050   5.431  18.664  0.00  0.00    +0.000 A 
ATOM     18  C   UNL     1       5.307   5.328  19.271  0.00  0.00    +0.000 A 
ATOM     19  C   UNL     1       6.457   5.735  18.583  0.00  0.00    +0.000 A 
ATOM     20  C   UNL     1       6.379   6.188  17.263  0.00  0.00    +0.000 A 
ATOM     21  C   UNL     1       5.121   6.320  16.674  0.00  0.00    +0.000 A 
ATOM     22  C   UNL     1       3.965   5.920  17.354  0.00  0.00    +0.000 A 
BRANCH  20  23
ATOM     23  N   UNL     1       7.509   6.711  16.624  0.00  0.00    +0.000 N 
ATOM     24  H   UNL     1       7.818   6.170  15.822  0.00  0.00    +0.000 HD
ATOM     25  H   UNL     1       7.441   7.701  16.412  0.00  0.00    +0.000 HD
ENDBRANCH  20  23
ENDBRANCH  15  17
ENDBRANCH   2  15
TORSDOF 7
ENDMDL
MODEL 8
REMARK VINA RESULT:      -6.6      2.499      3.669
REMARK  Name = 
REMARK  10 active torsions:
REMARK  status: ('A' for Active; 'I' for Inactive)
REMARK    1  A    between atoms: C_1  and  O_2
REMARK    2  A    between atoms: O_2  and  C_3
REMARK    3  A    between atoms: C_6  and  C_7
REMARK    4  A    between atoms: C_8  and  C_9
REMARK    5  A    between atoms: C_9  and  C_11
REMARK    6  A    between atoms: C_14  and  N_15
REMARK    7  A    between atoms: C_18  and  O_19
REMARK    8  A    between atoms: O_19  and  C_20
REMARK    9  A    between atoms: C_21  and  O_22
REMARK   10  A    between atoms: O_22  and  C_23
REMARK                            x       y       z     vdW  Elec       q    Type
REMARK                         _______ _______ _______ _____ _____    ______ ____
ROOT
ATOM      1  C   UNL     1       2.868   7.715  17.908  0.00  0.00    +0.000 C 
ATOM      2  C   UNL     1       1.987   8.175  18.808  0.00  0.00    +0.000 C 
ENDROOT
BRANCH   1   6
ATOM      3  C   UNL     1       3.736   3.533  17.615  0.00  0.00    +0.000 A 
ATOM      4  C   UNL     1       2.581   4.001  18.259  0.00  0.00    +0.000 A 
ATOM      5  C   UNL     1       2.317   5.364  18.343  0.00  0.00    +0.000 A 
ATOM      6  C   UNL     1       3.230   6.290  17.831  0.00  0.00    +0.000 A 
ATOM      7  C   UNL     1       4.439   5.839  17.254  0.00  0.00    +0.000 A 
ATOM      8  C   UNL     1       4.705   4.448  17.149  0.00  0.00    +0.000 A 
BRANCH   3  10
ATOM      9  C   UNL     1       3.624   1.351  18.536  0.00  0.00    +0.000 C 
ATOM     10  O   UNL     1       3.918   2.186  17.413  0.00  0.00    +0.000 OA
ENDBRANCH   3  10
BRANCH   7  11
ATOM     11  O   UNL     1       5.222   6.848  16.739  0.00  0.00    +0.000 OA
ATOM     12  C   UNL     1       6.459   7.135  17.374  0.00  0.00    +0.000 C 
ENDBRANCH   7  11
BRANCH   8  13
ATOM     13  O   UNL     1       5.843   4.102  16.467  0.00  0.00    +0.000 OA
ATOM     14  C   UNL     1       5.814   3.977  15.053  0.00  0.00    +0.000 C 
ENDBRANCH   8  13
ENDBRANCH   1   6
BRANCH   2  15
ATOM     15  C   UNL     1       1.579   9.612  18.813  0.00  0.00    +0.000 C 
ATOM     16  O   UNL     1       1.920  10.391  17.925  0.00  0.00    +0.000 OA
BRANCH  15  17
ATOM     17  C   UNL     1       0.743  10.072  19.957  0.00  0.00    +0.000 A 
ATOM     18  C   UNL     1       0.567   9.227  21.059  0.00  0.00    +0.000 A 
ATOM     19  C   UNL     1      -0.210   9.643  22.148  0.00  0.00    +0.000 A 
ATOM     20  C   UNL     1      -0.767  10.925  22.183  0.00  0.00    +0.000 A 
ATOM     21  C   UNL     1      -0.616  11.750  21.067  0.00  0.00    +0.000 A 
ATOM     22  C   UNL     1       0.155  11.343  19.972  0.00  0.00    +0.000 A 
BRANCH  20  23
ATOM     23  N   UNL     1      -1.645  11.290  23.209  0.00  0.00    +0.000 N 
ATOM     24  H   UNL     1      -1.862  12.282  23.233  0.00  0.00    +0.000 HD
ATOM     25  H   UNL     1      -2.479  10.716  23.262  0.00  0.00    +0.000 HD
ENDBRANCH  20  23
ENDBRANCH  15  17
ENDBRANCH   2  15
TORSDOF 7
ENDMDL
MODEL 9
REMARK VINA RESULT:      -6.5      1.776      3.047
REMARK  Name = 
REMARK  10 active torsions:
REMARK  status: ('A' for Active; 'I' for Inactive)
REMARK    1  A    between atoms: C_1  and  O_2
REMARK    2  A    between atoms: O_2  and  C_3
REMARK    3  A    between atoms: C_6  and  C_7
REMARK    4  A    between atoms: C_8  and  C_9
REMARK    5  A    between atoms: C_9  and  C_11
REMARK    6  A    between atoms: C_14  and  N_15
REMARK    7  A    between atoms: C_18  and  O_19
REMARK    8  A    between atoms: O_19  and  C_20
REMARK    9  A    between atoms: C_21  and  O_22
REMARK   10  A    between atoms: O_22  and  C_23
REMARK                            x       y       z     vdW  Elec       q    Type
REMARK                         _______ _______ _______ _____ _____    ______ ____
ROOT
ATOM      1  C   UNL     1       2.114   7.444  20.446  0.00  0.00    +0.000 C 
ATOM      2  C   UNL     1       1.069   7.826  21.194  0.00  0.00    +0.000 C 
ENDROOT
BRANCH   1   6
ATOM      3  C   UNL     1       2.360   3.384  19.110  0.00  0.00    +0.000 A 
ATOM      4  C   UNL     1       1.985   3.705  20.423  0.00  0.00    +0.000 A 
ATOM      5  C   UNL     1       1.911   5.031  20.838  0.00  0.00    +0.000 A 
ATOM      6  C   UNL     1       2.261   6.061  19.962  0.00  0.00    +0.000 A 
ATOM      7  C   UNL     1       2.722   5.753  18.661  0.00  0.00    +0.000 A 
ATOM      8  C   UNL     1       2.782   4.402  18.227  0.00  0.00    +0.000 A 
BRANCH   3  10
ATOM      9  C   UNL     1       3.517   1.348  18.742  0.00  0.00    +0.000 C 
ATOM     10  O   UNL     1       2.293   2.085  18.670  0.00  0.00    +0.000 OA
ENDBRANCH   3  10
BRANCH   7  11
ATOM     11  O   UNL     1       2.980   6.859  17.883  0.00  0.00    +0.000 OA
ATOM     12  C   UNL     1       4.333   7.197  17.615  0.00  0.00    +0.000 C 
ENDBRANCH   7  11
BRANCH   8  13
ATOM     13  O   UNL     1       3.124   4.206  16.914  0.00  0.00    +0.000 OA
ATOM     14  C   UNL     1       4.470   3.924  16.564  0.00  0.00    +0.000 C 
ENDBRANCH   8  13
ENDBRANCH   1   6
BRANCH   2  15
ATOM     15  C   UNL     1       0.903   9.252  21.605  0.00  0.00    +0.000 C 
ATOM     16  O   UNL     1       1.149   9.635  22.747  0.00  0.00    +0.000 OA
BRANCH  15  17
ATOM     17  C   UNL     1       0.406  10.200  20.568  0.00  0.00    +0.000 A 
ATOM     18  C   UNL     1       0.967  11.480  20.486  0.00  0.00    +0.000 A 
ATOM     19  C   UNL     1       0.518  12.385  19.515  0.00  0.00    +0.000 A 
ATOM     20  C   UNL     1      -0.445  12.007  18.576  0.00  0.00    +0.000 A 
ATOM     21  C   UNL     1      -1.025  10.742  18.684  0.00  0.00    +0.000 A 
ATOM     22  C   UNL     1      -0.587   9.832  19.653  0.00  0.00    +0.000 A 
BRANCH  20  23
ATOM     23  N   UNL     1      -0.982  12.949  17.691  0.00  0.00    +0.000 N 
ATOM     24  H   UNL     1      -1.939  13.215  17.901  0.00  0.00    +0.000 HD
ATOM     25  H   UNL     1      -0.387  13.757  17.538  0.00  0.00    +0.000 HD
ENDBRANCH  20  23
ENDBRANCH  15  17
ENDBRANCH   2  15
TORSDOF 7
ENDMDL
