MODEL 1
REMARK VINA RESULT:      -7.2      0.000      0.000
REMARK  Name = 
REMARK  7 active torsions:
REMARK  status: ('A' for Active; 'I' for Inactive)
REMARK    1  A    between atoms: C_1  and  O_2
REMARK    2  A    between atoms: O_2  and  C_3
REMARK    3  A    between atoms: C_6  and  N_7
REMARK    4  A    between atoms: C_8  and  N_9
REMARK    5  A    between atoms: C_10  and  C_11
REMARK    6  A    between atoms: N_13  and  C_14
REMARK    7  A    between atoms: C_14  and  C_15
REMARK                            x       y       z     vdW  Elec       q    Type
REMARK                         _______ _______ _______ _____ _____    ______ ____
ROOT
ATOM      1  N   UNL     1       3.321   5.830  17.961  0.00  0.00    +0.000 N 
ATOM      2  C   UNL     1       4.461   5.967  17.124  0.00  0.00    +0.000 A 
ATOM      3  C   UNL     1       4.974   4.769  16.749  0.00  0.00    +0.000 A 
ATOM      4  S   UNL     1       4.112   3.420  17.390  0.00  0.00    +0.000 S 
ATOM      5  C   UNL     1       2.905   4.481  18.114  0.00  0.00    +0.000 A 
ATOM      6  S   UNL     1       1.494   3.804  18.712  0.00  0.00    +0.000 S 
ENDROOT
BRANCH   1  10
ATOM      7  C   UNL     1       1.287   9.200  19.677  0.00  0.00    +0.000 A 
ATOM      8  C   UNL     1       1.639   8.111  20.473  0.00  0.00    +0.000 A 
ATOM      9  C   UNL     1       2.295   6.994  19.923  0.00  0.00    +0.000 A 
ATOM     10  C   UNL     1       2.586   6.928  18.554  0.00  0.00    +0.000 A 
ATOM     11  C   UNL     1       2.127   7.992  17.759  0.00  0.00    +0.000 A 
ATOM     12  C   UNL     1       1.512   9.126  18.310  0.00  0.00    +0.000 A 
BRANCH   7  14
ATOM     13  C   UNL     1      -0.676  10.465  20.021  0.00  0.00    +0.000 C 
ATOM     14  O   UNL     1       0.705  10.256  20.318  0.00  0.00    +0.000 OA
ENDBRANCH   7  14
ENDBRANCH   1  10
BRANCH   3  15
ATOM     15  C   UNL     1       6.202   4.531  15.925  0.00  0.00    +0.000 C 
ATOM     16  O   UNL     1       7.310   4.392  16.443  0.00  0.00    +0.000 OA
ATOM     17  N   UNL     1       5.981   4.476  14.570  0.00  0.00    +0.000 N 
ATOM     18  H   UNL     1       5.032   4.581  14.229  0.00  0.00    +0.000 HD
BRANCH  17  19
ATOM     19  C   UNL     1       6.993   4.192  13.565  0.00  0.00    +0.000 C 
BRANCH  19  20
ATOM     20  C   UNL     1       6.376   3.757  12.230  0.00  0.00    +0.000 C 
ATOM     21  C   UNL     1       4.860   3.635  12.243  0.00  0.00    +0.000 C 
ATOM     22  C   UNL     1       4.615   2.608  11.168  0.00  0.00    +0.000 C 
ATOM     23  C   UNL     1       5.798   1.677  11.334  0.00  0.00    +0.000 C 
ATOM     24  O   UNL     1       6.888   2.463  11.838  0.00  0.00    +0.000 OA
ENDBRANCH  19  20
ENDBRANCH  17  19
ENDBRANCH   3  15
BRANCH   2  25
ATOM     25  N   UNL     1       5.016   7.181  16.757  0.00  0.00    +0.000 N 
ATOM     26  H   UNL     1       4.880   7.902  17.460  0.00  0.00    +0.000 HD
ATOM     27  H   UNL     1       6.004   7.095  16.491  0.00  0.00    +0.000 HD
ENDBRANCH   2  25
TORSDOF 6
ENDMDL
MODEL 2
REMARK VINA RESULT:      -7.2      0.422      1.063
REMARK  Name = 
REMARK  7 active torsions:
REMARK  status: ('A' for Active; 'I' for Inactive)
REMARK    1  A    between atoms: C_1  and  O_2
REMARK    2  A    between atoms: O_2  and  C_3
REMARK    3  A    between atoms: C_6  and  N_7
REMARK    4  A    between atoms: C_8  and  N_9
REMARK    5  A    between atoms: C_10  and  C_11
REMARK    6  A    between atoms: N_13  and  C_14
REMARK    7  A    between atoms: C_14  and  C_15
REMARK                            x       y       z     vdW  Elec       q    Type
REMARK                         _______ _______ _______ _____ _____    ______ ____
ROOT
ATOM      1  N   UNL     1       3.351   5.922  17.976  0.00  0.00    +0.000 N 
ATOM      2  C   UNL     1       4.492   6.036  17.138  0.00  0.00    +0.000 A 
ATOM      3  C   UNL     1       4.992   4.828  16.778  0.00  0.00    +0.000 A 
ATOM      4  S   UNL     1       4.114   3.496  17.435  0.00  0.00    +0.000 S 
ATOM      5  C   UNL     1       2.919   4.580  18.146  0.00  0.00    +0.000 A 
ATOM      6  S   UNL     1       1.500   3.927  18.753  0.00  0.00    +0.000 S 
ENDROOT
BRANCH   1  10
ATOM      7  C   UNL     1       1.068   9.107  19.733  0.00  0.00    +0.000 A 
ATOM      8  C   UNL     1       1.424   9.157  18.386  0.00  0.00    +0.000 A 
ATOM      9  C   UNL     1       2.182   8.127  17.799  0.00  0.00    +0.000 A 
ATOM     10  C   UNL     1       2.629   7.036  18.556  0.00  0.00    +0.000 A 
ATOM     11  C   UNL     1       2.345   7.065  19.933  0.00  0.00    +0.000 A 
ATOM     12  C   UNL     1       1.554   8.066  20.512  0.00  0.00    +0.000 A 
BRANCH   7  14
ATOM     13  C   UNL     1       0.608  10.607  21.497  0.00  0.00    +0.000 C 
ATOM     14  O   UNL     1       0.285  10.127  20.192  0.00  0.00    +0.000 OA
ENDBRANCH   7  14
ENDBRANCH   1  10
BRANCH   3  15
ATOM     15  C   UNL     1       6.216   4.565  15.956  0.00  0.00    +0.000 C 
ATOM     16  O   UNL     1       7.329   4.460  16.472  0.00  0.00    +0.000 OA
ATOM     17  N   UNL     1       5.987   4.448  14.607  0.00  0.00    +0.000 N 
ATOM     18  H   UNL     1       5.034   4.528  14.268  0.00  0.00    +0.000 HD
BRANCH  17  19
ATOM     19  C   UNL     1       6.995   4.130  13.608  0.00  0.00    +0.000 C 
BRANCH  19  20
ATOM     20  C   UNL     1       6.373   3.750  12.259  0.00  0.00    +0.000 C 
ATOM     21  C   UNL     1       4.854   3.668  12.263  0.00  0.00    +0.000 C 
ATOM     22  C   UNL     1       4.588   2.679  11.157  0.00  0.00    +0.000 C 
ATOM     23  C   UNL     1       5.745   1.714  11.299  0.00  0.00    +0.000 C 
ATOM     24  O   UNL     1       6.852   2.456  11.830  0.00  0.00    +0.000 OA
ENDBRANCH  19  20
ENDBRANCH  17  19
ENDBRANCH   3  15
BRANCH   2  25
ATOM     25  N   UNL     1       5.061   7.239  16.756  0.00  0.00    +0.000 N 
ATOM     26  H   UNL     1       4.367   7.940  16.512  0.00  0.00    +0.000 HD
ATOM     27  H   UNL     1       5.729   7.594  17.450  0.00  0.00    +0.000 HD
ENDBRANCH   2  25
TORSDOF 6
ENDMDL
MODEL 3
REMARK VINA RESULT:      -6.7      4.123      5.823
REMARK  Name = 
REMARK  7 active torsions:
REMARK  status: ('A' for Active; 'I' for Inactive)
REMARK    1  A    between atoms: C_1  and  O_2
REMARK    2  A    between atoms: O_2  and  C_3
REMARK    3  A    between atoms: C_6  and  N_7
REMARK    4  A    between atoms: C_8  and  N_9
REMARK    5  A    between atoms: C_10  and  C_11
REMARK    6  A    between atoms: N_13  and  C_14
REMARK    7  A    between atoms: C_14  and  C_15
REMARK                            x       y       z     vdW  Elec       q    Type
REMARK                         _______ _______ _______ _____ _____    ______ ____
ROOT
ATOM      1  N   UNL     1       0.969   9.884  19.988  0.00  0.00    +0.000 N 
ATOM      2  C   UNL     1       1.603   8.997  19.077  0.00  0.00    +0.000 A 
ATOM      3  C   UNL     1       1.861   7.786  19.630  0.00  0.00    +0.000 A 
ATOM      4  S   UNL     1       1.356   7.659  21.275  0.00  0.00    +0.000 S 
ATOM      5  C   UNL     1       0.638   9.267  21.223  0.00  0.00    +0.000 A 
ATOM      6  S   UNL     1      -0.359   9.744  22.483  0.00  0.00    +0.000 S 
ENDROOT
BRANCH   1  10
ATOM      7  C   UNL     1      -0.041  13.928  18.954  0.00  0.00    +0.000 A 
ATOM      8  C   UNL     1       0.978  13.670  19.869  0.00  0.00    +0.000 A 
ATOM      9  C   UNL     1       1.313  12.350  20.228  0.00  0.00    +0.000 A 
ATOM     10  C   UNL     1       0.612  11.258  19.699  0.00  0.00    +0.000 A 
ATOM     11  C   UNL     1      -0.477  11.552  18.861  0.00  0.00    +0.000 A 
ATOM     12  C   UNL     1      -0.786  12.862  18.468  0.00  0.00    +0.000 A 
BRANCH   7  14
ATOM     13  C   UNL     1       0.903  16.078  18.709  0.00  0.00    +0.000 C 
ATOM     14  O   UNL     1      -0.249  15.238  18.632  0.00  0.00    +0.000 OA
ENDBRANCH   7  14
ENDBRANCH   1  10
BRANCH   3  15
ATOM     15  C   UNL     1       2.571   6.633  18.990  0.00  0.00    +0.000 C 
ATOM     16  O   UNL     1       2.291   6.254  17.852  0.00  0.00    +0.000 OA
ATOM     17  N   UNL     1       3.545   6.056  19.768  0.00  0.00    +0.000 N 
ATOM     18  H   UNL     1       3.724   6.445  20.687  0.00  0.00    +0.000 HD
BRANCH  17  19
ATOM     19  C   UNL     1       4.417   4.969  19.352  0.00  0.00    +0.000 C 
BRANCH  19  20
ATOM     20  C   UNL     1       5.820   5.464  18.977  0.00  0.00    +0.000 C 
ATOM     21  C   UNL     1       5.876   6.300  17.708  0.00  0.00    +0.000 C 
ATOM     22  C   UNL     1       7.285   6.055  17.230  0.00  0.00    +0.000 C 
ATOM     23  C   UNL     1       7.508   4.606  17.606  0.00  0.00    +0.000 C 
ATOM     24  O   UNL     1       6.709   4.343  18.769  0.00  0.00    +0.000 OA
ENDBRANCH  19  20
ENDBRANCH  17  19
ENDBRANCH   3  15
BRANCH   2  25
ATOM     25  N   UNL     1       1.957   9.332  17.781  0.00  0.00    +0.000 N 
ATOM     26  H   UNL     1       1.207   9.800  17.280  0.00  0.00    +0.000 HD
ATOM     27  H   UNL     1       2.831   9.869  17.741  0.00  0.00    +0.000 HD
ENDBRANCH   2  25
TORSDOF 6
ENDMDL
MODEL 4
REMARK VINA RESULT:      -6.7      4.109      5.871
REMARK  Name = 
REMARK  7 active torsions:
REMARK  status: ('A' for Active; 'I' for Inactive)
REMARK    1  A    between atoms: C_1  and  O_2
REMARK    2  A    between atoms: O_2  and  C_3
REMARK    3  A    between atoms: C_6  and  N_7
REMARK    4  A    between atoms: C_8  and  N_9
REMARK    5  A    between atoms: C_10  and  C_11
REMARK    6  A    between atoms: N_13  and  C_14
REMARK    7  A    between atoms: C_14  and  C_15
REMARK                            x       y       z     vdW  Elec       q    Type
REMARK                         _______ _______ _______ _____ _____    ______ ____
ROOT
ATOM      1  N   UNL     1       1.039   9.984  19.777  0.00  0.00    +0.000 N 
ATOM      2  C   UNL     1       1.650   9.022  18.929  0.00  0.00    +0.000 A 
ATOM      3  C   UNL     1       1.874   7.844  19.561  0.00  0.00    +0.000 A 
ATOM      4  S   UNL     1       1.363   7.839  21.208  0.00  0.00    +0.000 S 
ATOM      5  C   UNL     1       0.689   9.459  21.049  0.00  0.00    +0.000 A 
ATOM      6  S   UNL     1      -0.296  10.044  22.272  0.00  0.00    +0.000 S 
ENDROOT
BRANCH   1  10
ATOM      7  C   UNL     1       0.078  14.063  18.838  0.00  0.00    +0.000 A 
ATOM      8  C   UNL     1      -0.759  13.029  18.420  0.00  0.00    +0.000 A 
ATOM      9  C   UNL     1      -0.451  11.687  18.709  0.00  0.00    +0.000 A 
ATOM     10  C   UNL     1       0.720  11.346  19.399  0.00  0.00    +0.000 A 
ATOM     11  C   UNL     1       1.595  12.399  19.716  0.00  0.00    +0.000 A 
ATOM     12  C   UNL     1       1.272  13.740  19.468  0.00  0.00    +0.000 A 
BRANCH   7  14
ATOM     13  C   UNL     1       0.400  16.375  19.192  0.00  0.00    +0.000 C 
ATOM     14  O   UNL     1      -0.339  15.332  18.556  0.00  0.00    +0.000 OA
ENDBRANCH   7  14
ENDBRANCH   1  10
BRANCH   3  15
ATOM     15  C   UNL     1       2.553   6.633  18.999  0.00  0.00    +0.000 C 
ATOM     16  O   UNL     1       2.199   6.131  17.932  0.00  0.00    +0.000 OA
ATOM     17  N   UNL     1       3.587   6.149  19.763  0.00  0.00    +0.000 N 
ATOM     18  H   UNL     1       3.825   6.636  20.621  0.00  0.00    +0.000 HD
BRANCH  17  19
ATOM     19  C   UNL     1       4.442   5.029  19.406  0.00  0.00    +0.000 C 
BRANCH  19  20
ATOM     20  C   UNL     1       5.841   5.484  18.972  0.00  0.00    +0.000 C 
ATOM     21  C   UNL     1       5.869   6.312  17.696  0.00  0.00    +0.000 C 
ATOM     22  C   UNL     1       7.250   6.027  17.164  0.00  0.00    +0.000 C 
ATOM     23  C   UNL     1       7.450   4.575  17.541  0.00  0.00    +0.000 C 
ATOM     24  O   UNL     1       6.692   4.340  18.737  0.00  0.00    +0.000 OA
ENDBRANCH  19  20
ENDBRANCH  17  19
ENDBRANCH   3  15
BRANCH   2  25
ATOM     25  N   UNL     1       2.015   9.263  17.615  0.00  0.00    +0.000 N 
ATOM     26  H   UNL     1       1.870   8.455  17.015  0.00  0.00    +0.000 HD
ATOM     27  H   UNL     1       1.565  10.102  17.231  0.00  0.00    +0.000 HD
ENDBRANCH   2  25
TORSDOF 6
ENDMDL
MODEL 5
REMARK VINA RESULT:      -6.7      4.476      6.195
REMARK  Name = 
REMARK  7 active torsions:
REMARK  status: ('A' for Active; 'I' for Inactive)
REMARK    1  A    between atoms: C_1  and  O_2
REMARK    2  A    between atoms: O_2  and  C_3
REMARK    3  A    between atoms: C_6  and  N_7
REMARK    4  A    between atoms: C_8  and  N_9
REMARK    5  A    between atoms: C_10  and  C_11
REMARK    6  A    between atoms: N_13  and  C_14
REMARK    7  A    between atoms: C_14  and  C_15
REMARK                            x       y       z     vdW  Elec       q    Type
REMARK                         _______ _______ _______ _____ _____    ______ ____
ROOT
ATOM      1  N   UNL     1       1.317   9.013  19.871  0.00  0.00    +0.000 N 
ATOM      2  C   UNL     1       1.765   7.674  20.024  0.00  0.00    +0.000 A 
ATOM      3  C   UNL     1       2.475   7.241  18.953  0.00  0.00    +0.000 A 
ATOM      4  S   UNL     1       2.633   8.424  17.708  0.00  0.00    +0.000 S 
ATOM      5  C   UNL     1       1.814   9.633  18.694  0.00  0.00    +0.000 A 
ATOM      6  S   UNL     1       1.854  11.235  18.202  0.00  0.00    +0.000 S 
ENDROOT
BRANCH   1  10
ATOM      7  C   UNL     1      -1.200  10.984  22.738  0.00  0.00    +0.000 A 
ATOM      8  C   UNL     1      -1.223  11.371  21.400  0.00  0.00    +0.000 A 
ATOM      9  C   UNL     1      -0.395  10.744  20.450  0.00  0.00    +0.000 A 
ATOM     10  C   UNL     1       0.498   9.732  20.826  0.00  0.00    +0.000 A 
ATOM     11  C   UNL     1       0.574   9.435  22.198  0.00  0.00    +0.000 A 
ATOM     12  C   UNL     1      -0.279  10.027  23.140  0.00  0.00    +0.000 A 
BRANCH   7  14
ATOM     13  C   UNL     1      -3.024  12.472  22.921  0.00  0.00    +0.000 C 
ATOM     14  O   UNL     1      -2.081  11.617  23.568  0.00  0.00    +0.000 OA
ENDBRANCH   7  14
ENDBRANCH   1  10
BRANCH   3  15
ATOM     15  C   UNL     1       3.046   5.872  18.741  0.00  0.00    +0.000 C 
ATOM     16  O   UNL     1       4.212   5.607  19.032  0.00  0.00    +0.000 OA
ATOM     17  N   UNL     1       2.166   4.960  18.211  0.00  0.00    +0.000 N 
ATOM     18  H   UNL     1       1.216   5.258  18.019  0.00  0.00    +0.000 HD
BRANCH  17  19
ATOM     19  C   UNL     1       2.455   3.555  17.973  0.00  0.00    +0.000 C 
BRANCH  19  20
ATOM     20  C   UNL     1       2.137   2.684  19.195  0.00  0.00    +0.000 C 
ATOM     21  C   UNL     1       0.983   3.187  20.048  0.00  0.00    +0.000 C 
ATOM     22  C   UNL     1       1.328   2.632  21.406  0.00  0.00    +0.000 C 
ATOM     23  C   UNL     1       2.838   2.732  21.424  0.00  0.00    +0.000 C 
ATOM     24  O   UNL     1       3.287   2.603  20.067  0.00  0.00    +0.000 OA
ENDBRANCH  19  20
ENDBRANCH  17  19
ENDBRANCH   3  15
BRANCH   2  25
ATOM     25  N   UNL     1       1.483   6.878  21.121  0.00  0.00    +0.000 N 
ATOM     26  H   UNL     1       1.342   7.419  21.970  0.00  0.00    +0.000 HD
ATOM     27  H   UNL     1       0.701   6.236  20.949  0.00  0.00    +0.000 HD
ENDBRANCH   2  25
TORSDOF 6
ENDMDL
MODEL 6
REMARK VINA RESULT:      -6.7      4.900      6.628
REMARK  Name = 
REMARK  7 active torsions:
REMARK  status: ('A' for Active; 'I' for Inactive)
REMARK    1  A    between atoms: C_1  and  O_2
REMARK    2  A    between atoms: O_2  and  C_3
REMARK    3  A    between atoms: C_6  and  N_7
REMARK    4  A    between atoms: C_8  and  N_9
REMARK    5  A    between atoms: C_10  and  C_11
REMARK    6  A    between atoms: N_13  and  C_14
REMARK    7  A    between atoms: C_14  and  C_15
REMARK                            x       y       z     vdW  Elec       q    Type
REMARK                         _______ _______ _______ _____ _____    ______ ____
ROOT
ATOM      1  N   UNL     1       0.967  10.395  19.783  0.00  0.00    +0.000 N 
ATOM      2  C   UNL     1       1.576   9.428  18.938  0.00  0.00    +0.000 A 
ATOM      3  C   UNL     1       1.772   8.243  19.566  0.00  0.00    +0.000 A 
ATOM      4  S   UNL     1       1.237   8.236  21.206  0.00  0.00    +0.000 S 
ATOM      5  C   UNL     1       0.591   9.867  21.047  0.00  0.00    +0.000 A 
ATOM      6  S   UNL     1      -0.403  10.461  22.258  0.00  0.00    +0.000 S 
ENDROOT
BRANCH   1  10
ATOM      7  C   UNL     1       0.082  14.492  18.854  0.00  0.00    +0.000 A 
ATOM      8  C   UNL     1      -0.757  13.473  18.406  0.00  0.00    +0.000 A 
ATOM      9  C   UNL     1      -0.473  12.124  18.692  0.00  0.00    +0.000 A 
ATOM     10  C   UNL     1       0.675  11.763  19.408  0.00  0.00    +0.000 A 
ATOM     11  C   UNL     1       1.555  12.802  19.756  0.00  0.00    +0.000 A 
ATOM     12  C   UNL     1       1.255  14.150  19.511  0.00  0.00    +0.000 A 
BRANCH   7  14
ATOM     13  C   UNL     1      -0.763  16.532  19.691  0.00  0.00    +0.000 C 
ATOM     14  O   UNL     1      -0.312  15.769  18.572  0.00  0.00    +0.000 OA
ENDBRANCH   7  14
ENDBRANCH   1  10
BRANCH   3  15
ATOM     15  C   UNL     1       2.441   7.024  19.007  0.00  0.00    +0.000 C 
ATOM     16  O   UNL     1       2.396   6.757  17.806  0.00  0.00    +0.000 OA
ATOM     17  N   UNL     1       3.099   6.255  19.936  0.00  0.00    +0.000 N 
ATOM     18  H   UNL     1       3.102   6.560  20.903  0.00  0.00    +0.000 HD
BRANCH  17  19
ATOM     19  C   UNL     1       3.877   5.063  19.639  0.00  0.00    +0.000 C 
BRANCH  19  20
ATOM     20  C   UNL     1       3.042   3.782  19.762  0.00  0.00    +0.000 C 
ATOM     21  C   UNL     1       2.369   3.340  18.472  0.00  0.00    +0.000 C 
ATOM     22  C   UNL     1       1.171   2.582  18.984  0.00  0.00    +0.000 C 
ATOM     23  C   UNL     1       0.785   3.377  20.213  0.00  0.00    +0.000 C 
ATOM     24  O   UNL     1       1.989   3.960  20.735  0.00  0.00    +0.000 OA
ENDBRANCH  19  20
ENDBRANCH  17  19
ENDBRANCH   3  15
BRANCH   2  25
ATOM     25  N   UNL     1       1.964   9.670  17.631  0.00  0.00    +0.000 N 
ATOM     26  H   UNL     1       2.806   9.163  17.373  0.00  0.00    +0.000 HD
ATOM     27  H   UNL     1       1.204   9.505  16.960  0.00  0.00    +0.000 HD
ENDBRANCH   2  25
TORSDOF 6
ENDMDL
MODEL 7
REMARK VINA RESULT:      -6.6      1.604      1.977
REMARK  Name = 
REMARK  7 active torsions:
REMARK  status: ('A' for Active; 'I' for Inactive)
REMARK    1  A    between atoms: C_1  and  O_2
REMARK    2  A    between atoms: O_2  and  C_3
REMARK    3  A    between atoms: C_6  and  N_7
REMARK    4  A    between atoms: C_8  and  N_9
REMARK    5  A    between atoms: C_10  and  C_11
REMARK    6  A    between atoms: N_13  and  C_14
REMARK    7  A    between atoms: C_14  and  C_15
REMARK                            x       y       z     vdW  Elec       q    Type
REMARK                         _______ _______ _______ _____ _____    ______ ____
ROOT
ATOM      1  N   UNL     1       2.920   6.243  19.179  0.00  0.00    +0.000 N 
ATOM      2  C   UNL     1       3.970   6.166  18.225  0.00  0.00    +0.000 A 
ATOM      3  C   UNL     1       4.560   4.946  18.203  0.00  0.00    +0.000 A 
ATOM      4  S   UNL     1       3.881   3.833  19.333  0.00  0.00    +0.000 S 
ATOM      5  C   UNL     1       2.644   4.997  19.802  0.00  0.00    +0.000 A 
ATOM      6  S   UNL     1       1.355   4.471  20.734  0.00  0.00    +0.000 S 
ENDROOT
BRANCH   1  10
ATOM      7  C   UNL     1       0.752   9.863  19.978  0.00  0.00    +0.000 A 
ATOM      8  C   UNL     1       0.968   8.934  20.994  0.00  0.00    +0.000 A 
ATOM      9  C   UNL     1       1.666   7.737  20.745  0.00  0.00    +0.000 A 
ATOM     10  C   UNL     1       2.137   7.429  19.462  0.00  0.00    +0.000 A 
ATOM     11  C   UNL     1       1.815   8.334  18.437  0.00  0.00    +0.000 A 
ATOM     12  C   UNL     1       1.158   9.546  18.688  0.00  0.00    +0.000 A 
BRANCH   7  14
ATOM     13  C   UNL     1      -1.049  11.334  19.570  0.00  0.00    +0.000 C 
ATOM     14  O   UNL     1       0.113  11.016  20.335  0.00  0.00    +0.000 OA
ENDBRANCH   7  14
ENDBRANCH   1  10
BRANCH   3  15
ATOM     15  C   UNL     1       5.733   4.524  17.373  0.00  0.00    +0.000 C 
ATOM     16  O   UNL     1       6.880   4.542  17.819  0.00  0.00    +0.000 OA
ATOM     17  N   UNL     1       5.417   4.118  16.099  0.00  0.00    +0.000 N 
ATOM     18  H   UNL     1       4.443   4.116  15.818  0.00  0.00    +0.000 HD
BRANCH  17  19
ATOM     19  C   UNL     1       6.364   3.603  15.123  0.00  0.00    +0.000 C 
BRANCH  19  20
ATOM     20  C   UNL     1       6.483   4.514  13.895  0.00  0.00    +0.000 C 
ATOM     21  C   UNL     1       6.695   3.779  12.580  0.00  0.00    +0.000 C 
ATOM     22  C   UNL     1       7.429   4.807  11.758  0.00  0.00    +0.000 C 
ATOM     23  C   UNL     1       8.298   5.490  12.792  0.00  0.00    +0.000 C 
ATOM     24  O   UNL     1       7.601   5.417  14.045  0.00  0.00    +0.000 OA
ENDBRANCH  19  20
ENDBRANCH  17  19
ENDBRANCH   3  15
BRANCH   2  25
ATOM     25  N   UNL     1       4.379   7.223  17.429  0.00  0.00    +0.000 N 
ATOM     26  H   UNL     1       4.941   7.900  17.938  0.00  0.00    +0.000 HD
ATOM     27  H   UNL     1       4.850   6.909  16.573  0.00  0.00    +0.000 HD
ENDBRANCH   2  25
TORSDOF 6
ENDMDL
MODEL 8
REMARK VINA RESULT:      -6.6      4.768      6.585
REMARK  Name = 
REMARK  7 active torsions:
REMARK  status: ('A' for Active; 'I' for Inactive)
REMARK    1  A    between atoms: C_1  and  O_2
REMARK    2  A    between atoms: O_2  and  C_3
REMARK    3  A    between atoms: C_6  and  N_7
REMARK    4  A    between atoms: C_8  and  N_9
REMARK    5  A    between atoms: C_10  and  C_11
REMARK    6  A    between atoms: N_13  and  C_14
REMARK    7  A    between atoms: C_14  and  C_15
REMARK                            x       y       z     vdW  Elec       q    Type
REMARK                         _______ _______ _______ _____ _____    ______ ____
ROOT
ATOM      1  N   UNL     1       1.074  10.167  19.629  0.00  0.00    +0.000 N 
ATOM      2  C   UNL     1       1.667   9.252  18.719  0.00  0.00    +0.000 A 
ATOM      3  C   UNL     1       1.919   8.047  19.288  0.00  0.00    +0.000 A 
ATOM      4  S   UNL     1       1.457   7.960  20.948  0.00  0.00    +0.000 S 
ATOM      5  C   UNL     1       0.766   9.580  20.885  0.00  0.00    +0.000 A 
ATOM      6  S   UNL     1      -0.187  10.099  22.162  0.00  0.00    +0.000 S 
ENDROOT
BRANCH   1  10
ATOM      7  C   UNL     1       0.067  14.279  18.911  0.00  0.00    +0.000 A 
ATOM      8  C   UNL     1      -0.817  13.265  18.545  0.00  0.00    +0.000 A 
ATOM      9  C   UNL     1      -0.496  11.912  18.763  0.00  0.00    +0.000 A 
ATOM     10  C   UNL     1       0.733  11.542  19.324  0.00  0.00    +0.000 A 
ATOM     11  C   UNL     1       1.646  12.579  19.586  0.00  0.00    +0.000 A 
ATOM     12  C   UNL     1       1.313  13.929  19.411  0.00  0.00    +0.000 A 
BRANCH   7  14
ATOM     13  C   UNL     1      -1.014  16.170  19.822  0.00  0.00    +0.000 C 
ATOM     14  O   UNL     1      -0.362  15.560  18.708  0.00  0.00    +0.000 OA
ENDBRANCH   7  14
ENDBRANCH   1  10
BRANCH   3  15
ATOM     15  C   UNL     1       2.590   6.870  18.651  0.00  0.00    +0.000 C 
ATOM     16  O   UNL     1       3.687   6.971  18.103  0.00  0.00    +0.000 OA
ATOM     17  N   UNL     1       1.887   5.692  18.740  0.00  0.00    +0.000 N 
ATOM     18  H   UNL     1       0.998   5.694  19.227  0.00  0.00    +0.000 HD
BRANCH  17  19
ATOM     19  C   UNL     1       2.351   4.400  18.260  0.00  0.00    +0.000 C 
BRANCH  19  20
ATOM     20  C   UNL     1       2.031   3.269  19.245  0.00  0.00    +0.000 C 
ATOM     21  C   UNL     1       0.972   3.613  20.282  0.00  0.00    +0.000 C 
ATOM     22  C   UNL     1       1.346   2.708  21.428  0.00  0.00    +0.000 C 
ATOM     23  C   UNL     1       2.858   2.700  21.356  0.00  0.00    +0.000 C 
ATOM     24  O   UNL     1       3.217   2.891  19.980  0.00  0.00    +0.000 OA
ENDBRANCH  19  20
ENDBRANCH  17  19
ENDBRANCH   3  15
BRANCH   2  25
ATOM     25  N   UNL     1       1.991   9.556  17.408  0.00  0.00    +0.000 N 
ATOM     26  H   UNL     1       1.171   9.655  16.816  0.00  0.00    +0.000 HD
ATOM     27  H   UNL     1       2.609  10.373  17.337  0.00  0.00    +0.000 HD
ENDBRANCH   2  25
TORSDOF 6
ENDMDL
MODEL 9
REMARK VINA RESULT:      -6.5      4.452      6.099
REMARK  Name = 
REMARK  7 active torsions:
REMARK  status: ('A' for Active; 'I' for Inactive)
REMARK    1  A    between atoms: C_1  and  O_2
REMARK    2  A    between atoms: O_2  and  C_3
REMARK    3  A    between atoms: C_6  and  N_7
REMARK    4  A    between atoms: C_8  and  N_9
REMARK    5  A    between atoms: C_10  and  C_11
REMARK    6  A    between atoms: N_13  and  C_14
REMARK    7  A    between atoms: C_14  and  C_15
REMARK                            x       y       z     vdW  Elec       q    Type
REMARK                         _______ _______ _______ _____ _____    ______ ____
ROOT
ATOM      1  N   UNL     1       1.324   8.960  19.806  0.00  0.00    +0.000 N 
ATOM      2  C   UNL     1       1.774   7.627  20.001  0.00  0.00    +0.000 A 
ATOM      3  C   UNL     1       2.526   7.178  18.966  0.00  0.00    +0.000 A 
ATOM      4  S   UNL     1       2.723   8.339  17.705  0.00  0.00    +0.000 S 
ATOM      5  C   UNL     1       1.861   9.561  18.637  0.00  0.00    +0.000 A 
ATOM      6  S   UNL     1       1.909  11.153  18.115  0.00  0.00    +0.000 S 
ENDROOT
BRANCH   1  10
ATOM      7  C   UNL     1      -1.123  11.286  22.460  0.00  0.00    +0.000 A 
ATOM      8  C   UNL     1      -0.320  10.262  22.960  0.00  0.00    +0.000 A 
ATOM      9  C   UNL     1       0.478   9.482  22.102  0.00  0.00    +0.000 A 
ATOM     10  C   UNL     1       0.466   9.692  20.716  0.00  0.00    +0.000 A 
ATOM     11  C   UNL     1      -0.430  10.659  20.231  0.00  0.00    +0.000 A 
ATOM     12  C   UNL     1      -1.194  11.466  21.086  0.00  0.00    +0.000 A 
BRANCH   7  14
ATOM     13  C   UNL     1      -1.614  13.430  23.318  0.00  0.00    +0.000 C 
ATOM     14  O   UNL     1      -1.815  12.018  23.382  0.00  0.00    +0.000 OA
ENDBRANCH   7  14
ENDBRANCH   1  10
BRANCH   3  15
ATOM     15  C   UNL     1       3.112   5.809  18.802  0.00  0.00    +0.000 C 
ATOM     16  O   UNL     1       4.256   5.548  19.173  0.00  0.00    +0.000 OA
ATOM     17  N   UNL     1       2.271   4.892  18.219  0.00  0.00    +0.000 N 
ATOM     18  H   UNL     1       1.336   5.187  17.961  0.00  0.00    +0.000 HD
BRANCH  17  19
ATOM     19  C   UNL     1       2.578   3.486  18.010  0.00  0.00    +0.000 C 
BRANCH  19  20
ATOM     20  C   UNL     1       2.198   2.624  19.220  0.00  0.00    +0.000 C 
ATOM     21  C   UNL     1       1.023   3.153  20.029  0.00  0.00    +0.000 C 
ATOM     22  C   UNL     1       1.306   2.594  21.400  0.00  0.00    +0.000 C 
ATOM     23  C   UNL     1       2.816   2.663  21.474  0.00  0.00    +0.000 C 
ATOM     24  O   UNL     1       3.312   2.521  20.135  0.00  0.00    +0.000 OA
ENDBRANCH  19  20
ENDBRANCH  17  19
ENDBRANCH   3  15
BRANCH   2  25
ATOM     25  N   UNL     1       1.456   6.851  21.103  0.00  0.00    +0.000 N 
ATOM     26  H   UNL     1       2.088   7.003  21.884  0.00  0.00    +0.000 HD
ATOM     27  H   UNL     1       0.474   6.956  21.385  0.00  0.00    +0.000 HD
ENDBRANCH   2  25
TORSDOF 6
ENDMDL
