MODEL 1
REMARK VINA RESULT:      -6.1      0.000      0.000
REMARK  Name = 
REMARK  4 active torsions:
REMARK  status: ('A' for Active; 'I' for Inactive)
REMARK    1  A    between atoms: C_1  and  C_2
REMARK    2  A    between atoms: C_5  and  C_6
REMARK    3  A    between atoms: C_7  and  C_8
REMARK    4  A    between atoms: N_16  and  C_17
REMARK                            x       y       z     vdW  Elec       q    Type
REMARK                         _______ _______ _______ _____ _____    ______ ____
ROOT
ATOM      1  C   UNL     1      -1.073  11.515  22.441  0.00  0.00    +0.000 C 
ATOM      2  O   UNL     1      -0.594  10.861  23.365  0.00  0.00    +0.000 OA
ATOM      3  N   UNL     1      -2.355  12.087  22.535  0.00  0.00    +0.000 N 
ATOM      4  C   UNL     1      -3.034  12.056  23.825  0.00  0.00    +0.000 C 
ATOM      5  C   UNL     1      -3.529  13.456  24.184  0.00  0.00    +0.000 C 
ATOM      6  C   UNL     1      -4.341  14.126  23.053  0.00  0.00    +0.000 C 
ATOM      7  C   UNL     1      -3.642  13.980  21.681  0.00  0.00    +0.000 C 
ATOM      8  C   UNL     1      -3.197  12.539  21.425  0.00  0.00    +0.000 C 
ATOM      9  N   UNL     1      -4.594  15.546  23.386  0.00  0.00    +0.000 N 
ATOM     10  C   UNL     1      -3.551  16.556  23.406  0.00  0.00    +0.000 C 
ATOM     11  C   UNL     1      -5.916  15.902  23.613  0.00  0.00    +0.000 C 
ATOM     12  O   UNL     1      -6.279  17.057  23.813  0.00  0.00    +0.000 OA
ATOM     13  C   UNL     1      -6.872  14.747  23.655  0.00  0.00    +0.000 C 
ATOM     14  S   UNL     1      -6.027  13.373  22.956  0.00  0.00    +0.000 S 
ATOM     15  O   UNL     1      -6.438  13.254  21.572  0.00  0.00    +0.000 OA
ATOM     16  O   UNL     1      -6.154  12.256  23.868  0.00  0.00    +0.000 OA
ENDROOT
BRANCH   1  23
ATOM     17  C   UNL     1       0.818   9.727  18.201  0.00  0.00    +0.000 C 
ATOM     18  C   UNL     1       0.658  10.896  19.123  0.00  0.00    +0.000 A 
ATOM     19  C   UNL     1       1.344  12.092  18.925  0.00  0.00    +0.000 A 
ATOM     20  C   UNL     1       1.209  13.138  19.842  0.00  0.00    +0.000 A 
ATOM     21  C   UNL     1       0.436  12.991  21.011  0.00  0.00    +0.000 A 
ATOM     22  C   UNL     1       0.327  14.159  21.950  0.00  0.00    +0.000 C 
ATOM     23  C   UNL     1      -0.227  11.765  21.234  0.00  0.00    +0.000 A 
ATOM     24  C   UNL     1      -0.164  10.771  20.244  0.00  0.00    +0.000 A 
ENDBRANCH   1  23
TORSDOF 1
ENDMDL
MODEL 2
REMARK VINA RESULT:      -6.1      4.148      5.521
REMARK  Name = 
REMARK  4 active torsions:
REMARK  status: ('A' for Active; 'I' for Inactive)
REMARK    1  A    between atoms: C_1  and  C_2
REMARK    2  A    between atoms: C_5  and  C_6
REMARK    3  A    between atoms: C_7  and  C_8
REMARK    4  A    between atoms: N_16  and  C_17
REMARK                            x       y       z     vdW  Elec       q    Type
REMARK                         _______ _______ _______ _____ _____    ______ ____
ROOT
ATOM      1  C   UNL     1      -0.108  10.679  18.575  0.00  0.00    +0.000 C 
ATOM      2  O   UNL     1      -1.042  10.432  17.815  0.00  0.00    +0.000 OA
ATOM      3  N   UNL     1       0.168  11.993  18.996  0.00  0.00    +0.000 N 
ATOM      4  C   UNL     1      -0.792  13.040  18.668  0.00  0.00    +0.000 C 
ATOM      5  C   UNL     1      -1.146  13.830  19.927  0.00  0.00    +0.000 C 
ATOM      6  C   UNL     1       0.093  14.323  20.708  0.00  0.00    +0.000 C 
ATOM      7  C   UNL     1       1.146  13.203  20.878  0.00  0.00    +0.000 C 
ATOM      8  C   UNL     1       1.427  12.487  19.557  0.00  0.00    +0.000 C 
ATOM      9  N   UNL     1      -0.322  14.882  22.014  0.00  0.00    +0.000 N 
ATOM     10  C   UNL     1      -0.839  14.067  23.100  0.00  0.00    +0.000 C 
ATOM     11  C   UNL     1      -0.126  16.243  22.195  0.00  0.00    +0.000 C 
ATOM     12  O   UNL     1      -0.345  16.822  23.255  0.00  0.00    +0.000 OA
ATOM     13  C   UNL     1       0.322  16.975  20.965  0.00  0.00    +0.000 C 
ATOM     14  S   UNL     1       0.868  15.752  19.826  0.00  0.00    +0.000 S 
ATOM     15  O   UNL     1       2.310  15.669  19.919  0.00  0.00    +0.000 OA
ATOM     16  O   UNL     1       0.217  15.998  18.557  0.00  0.00    +0.000 OA
ENDROOT
BRANCH   1  23
ATOM     17  C   UNL     1       3.263   7.125  17.701  0.00  0.00    +0.000 C 
ATOM     18  C   UNL     1       2.384   7.822  18.694  0.00  0.00    +0.000 A 
ATOM     19  C   UNL     1       2.236   7.360  20.000  0.00  0.00    +0.000 A 
ATOM     20  C   UNL     1       1.362   8.008  20.878  0.00  0.00    +0.000 A 
ATOM     21  C   UNL     1       0.568   9.092  20.453  0.00  0.00    +0.000 A 
ATOM     22  C   UNL     1      -0.344   9.747  21.451  0.00  0.00    +0.000 C 
ATOM     23  C   UNL     1       0.687   9.534  19.118  0.00  0.00    +0.000 A 
ATOM     24  C   UNL     1       1.651   8.938  18.290  0.00  0.00    +0.000 A 
ENDBRANCH   1  23
TORSDOF 1
ENDMDL
MODEL 3
REMARK VINA RESULT:      -6.0      8.157     10.501
REMARK  Name = 
REMARK  4 active torsions:
REMARK  status: ('A' for Active; 'I' for Inactive)
REMARK    1  A    between atoms: C_1  and  C_2
REMARK    2  A    between atoms: C_5  and  C_6
REMARK    3  A    between atoms: C_7  and  C_8
REMARK    4  A    between atoms: N_16  and  C_17
REMARK                            x       y       z     vdW  Elec       q    Type
REMARK                         _______ _______ _______ _____ _____    ______ ____
ROOT
ATOM      1  C   UNL     1       8.895  15.140  18.458  0.00  0.00    +0.000 C 
ATOM      2  O   UNL     1       9.371  15.686  17.464  0.00  0.00    +0.000 OA
ATOM      3  N   UNL     1       7.760  15.659  19.106  0.00  0.00    +0.000 N 
ATOM      4  C   UNL     1       7.036  16.752  18.466  0.00  0.00    +0.000 C 
ATOM      5  C   UNL     1       5.547  16.416  18.394  0.00  0.00    +0.000 C 
ATOM      6  C   UNL     1       4.956  15.967  19.750  0.00  0.00    +0.000 C 
ATOM      7  C   UNL     1       5.858  14.927  20.453  0.00  0.00    +0.000 C 
ATOM      8  C   UNL     1       7.322  15.370  20.473  0.00  0.00    +0.000 C 
ATOM      9  N   UNL     1       3.582  15.454  19.556  0.00  0.00    +0.000 N 
ATOM     10  C   UNL     1       3.288  14.206  18.873  0.00  0.00    +0.000 C 
ATOM     11  C   UNL     1       2.559  16.192  20.132  0.00  0.00    +0.000 C 
ATOM     12  O   UNL     1       1.383  15.839  20.124  0.00  0.00    +0.000 OA
ATOM     13  C   UNL     1       2.992  17.501  20.721  0.00  0.00    +0.000 C 
ATOM     14  S   UNL     1       4.744  17.431  20.860  0.00  0.00    +0.000 S 
ATOM     15  O   UNL     1       5.069  17.070  22.224  0.00  0.00    +0.000 OA
ATOM     16  O   UNL     1       5.290  18.628  20.257  0.00  0.00    +0.000 OA
ENDROOT
BRANCH   1  23
ATOM     17  C   UNL     1       8.839  10.169  18.264  0.00  0.00    +0.000 C 
ATOM     18  C   UNL     1       9.501  11.410  18.780  0.00  0.00    +0.000 A 
ATOM     19  C   UNL     1      10.534  11.362  19.713  0.00  0.00    +0.000 A 
ATOM     20  C   UNL     1      11.085  12.546  20.211  0.00  0.00    +0.000 A 
ATOM     21  C   UNL     1      10.575  13.805  19.835  0.00  0.00    +0.000 A 
ATOM     22  C   UNL     1      11.221  15.038  20.402  0.00  0.00    +0.000 C 
ATOM     23  C   UNL     1       9.501  13.854  18.920  0.00  0.00    +0.000 A 
ATOM     24  C   UNL     1       9.040  12.656  18.353  0.00  0.00    +0.000 A 
ENDBRANCH   1  23
TORSDOF 1
ENDMDL
MODEL 4
REMARK VINA RESULT:      -6.0      0.973      1.000
REMARK  Name = 
REMARK  4 active torsions:
REMARK  status: ('A' for Active; 'I' for Inactive)
REMARK    1  A    between atoms: C_1  and  C_2
REMARK    2  A    between atoms: C_5  and  C_6
REMARK    3  A    between atoms: C_7  and  C_8
REMARK    4  A    between atoms: N_16  and  C_17
REMARK                            x       y       z     vdW  Elec       q    Type
REMARK                         _______ _______ _______ _____ _____    ______ ____
ROOT
ATOM      1  C   UNL     1      -0.434  11.359  21.926  0.00  0.00    +0.000 C 
ATOM      2  O   UNL     1       0.010  10.755  22.901  0.00  0.00    +0.000 OA
ATOM      3  N   UNL     1      -1.696  11.981  21.960  0.00  0.00    +0.000 N 
ATOM      4  C   UNL     1      -2.393  12.062  23.239  0.00  0.00    +0.000 C 
ATOM      5  C   UNL     1      -2.843  13.500  23.492  0.00  0.00    +0.000 C 
ATOM      6  C   UNL     1      -3.615  14.118  22.304  0.00  0.00    +0.000 C 
ATOM      7  C   UNL     1      -2.903  13.852  20.958  0.00  0.00    +0.000 C 
ATOM      8  C   UNL     1      -2.506  12.383  20.809  0.00  0.00    +0.000 C 
ATOM      9  N   UNL     1      -3.822  15.565  22.535  0.00  0.00    +0.000 N 
ATOM     10  C   UNL     1      -2.744  16.538  22.502  0.00  0.00    +0.000 C 
ATOM     11  C   UNL     1      -5.133  15.981  22.715  0.00  0.00    +0.000 C 
ATOM     12  O   UNL     1      -5.459  17.159  22.830  0.00  0.00    +0.000 OA
ATOM     13  C   UNL     1      -6.130  14.866  22.822  0.00  0.00    +0.000 C 
ATOM     14  S   UNL     1      -5.325  13.417  22.233  0.00  0.00    +0.000 S 
ATOM     15  O   UNL     1      -5.721  13.217  20.854  0.00  0.00    +0.000 OA
ATOM     16  O   UNL     1      -5.504  12.372  23.218  0.00  0.00    +0.000 OA
ENDROOT
BRANCH   1  23
ATOM     17  C   UNL     1       1.443   9.219  17.845  0.00  0.00    +0.000 C 
ATOM     18  C   UNL     1       1.315  10.453  18.684  0.00  0.00    +0.000 A 
ATOM     19  C   UNL     1       2.049  11.607  18.418  0.00  0.00    +0.000 A 
ATOM     20  C   UNL     1       1.942  12.717  19.260  0.00  0.00    +0.000 A 
ATOM     21  C   UNL     1       1.149  12.678  20.425  0.00  0.00    +0.000 A 
ATOM     22  C   UNL     1       1.073  13.911  21.281  0.00  0.00    +0.000 C 
ATOM     23  C   UNL     1       0.437  11.495  20.718  0.00  0.00    +0.000 A 
ATOM     24  C   UNL     1       0.475  10.436  19.799  0.00  0.00    +0.000 A 
ENDBRANCH   1  23
TORSDOF 1
ENDMDL
MODEL 5
REMARK VINA RESULT:      -6.0      4.415      6.649
REMARK  Name = 
REMARK  4 active torsions:
REMARK  status: ('A' for Active; 'I' for Inactive)
REMARK    1  A    between atoms: C_1  and  C_2
REMARK    2  A    between atoms: C_5  and  C_6
REMARK    3  A    between atoms: C_7  and  C_8
REMARK    4  A    between atoms: N_16  and  C_17
REMARK                            x       y       z     vdW  Elec       q    Type
REMARK                         _______ _______ _______ _____ _____    ______ ____
ROOT
ATOM      1  C   UNL     1      -1.008  11.827  20.320  0.00  0.00    +0.000 C 
ATOM      2  O   UNL     1      -0.946  11.127  21.329  0.00  0.00    +0.000 OA
ATOM      3  N   UNL     1      -0.417  13.103  20.275  0.00  0.00    +0.000 N 
ATOM      4  C   UNL     1       0.440  13.508  21.384  0.00  0.00    +0.000 C 
ATOM      5  C   UNL     1       1.774  14.023  20.845  0.00  0.00    +0.000 C 
ATOM      6  C   UNL     1       1.615  15.090  19.739  0.00  0.00    +0.000 C 
ATOM      7  C   UNL     1       0.569  14.669  18.681  0.00  0.00    +0.000 C 
ATOM      8  C   UNL     1      -0.725  14.179  19.331  0.00  0.00    +0.000 C 
ATOM      9  N   UNL     1       2.930  15.376  19.121  0.00  0.00    +0.000 N 
ATOM     10  C   UNL     1       3.635  14.427  18.278  0.00  0.00    +0.000 C 
ATOM     11  C   UNL     1       3.444  16.648  19.321  0.00  0.00    +0.000 C 
ATOM     12  O   UNL     1       4.479  17.049  18.797  0.00  0.00    +0.000 OA
ATOM     13  C   UNL     1       2.662  17.490  20.285  0.00  0.00    +0.000 C 
ATOM     14  S   UNL     1       1.103  16.702  20.486  0.00  0.00    +0.000 S 
ATOM     15  O   UNL     1       0.152  17.370  19.622  0.00  0.00    +0.000 OA
ATOM     16  O   UNL     1       0.850  16.564  21.905  0.00  0.00    +0.000 OA
ENDROOT
BRANCH   1  23
ATOM     17  C   UNL     1      -5.108  11.484  17.523  0.00  0.00    +0.000 C 
ATOM     18  C   UNL     1      -3.663  11.135  17.700  0.00  0.00    +0.000 A 
ATOM     19  C   UNL     1      -3.006  10.250  16.848  0.00  0.00    +0.000 A 
ATOM     20  C   UNL     1      -1.672   9.908  17.084  0.00  0.00    +0.000 A 
ATOM     21  C   UNL     1      -0.981  10.392  18.212  0.00  0.00    +0.000 A 
ATOM     22  C   UNL     1       0.455   9.991  18.400  0.00  0.00    +0.000 C 
ATOM     23  C   UNL     1      -1.657  11.257  19.099  0.00  0.00    +0.000 A 
ATOM     24  C   UNL     1      -2.960  11.671  18.780  0.00  0.00    +0.000 A 
ENDBRANCH   1  23
TORSDOF 1
ENDMDL
MODEL 6
REMARK VINA RESULT:      -5.9      4.756      6.344
REMARK  Name = 
REMARK  4 active torsions:
REMARK  status: ('A' for Active; 'I' for Inactive)
REMARK    1  A    between atoms: C_1  and  C_2
REMARK    2  A    between atoms: C_5  and  C_6
REMARK    3  A    between atoms: C_7  and  C_8
REMARK    4  A    between atoms: N_16  and  C_17
REMARK                            x       y       z     vdW  Elec       q    Type
REMARK                         _______ _______ _______ _____ _____    ______ ____
ROOT
ATOM      1  C   UNL     1      -0.043  11.686  18.984  0.00  0.00    +0.000 C 
ATOM      2  O   UNL     1      -0.972  11.552  18.190  0.00  0.00    +0.000 OA
ATOM      3  N   UNL     1       0.575  12.934  19.186  0.00  0.00    +0.000 N 
ATOM      4  C   UNL     1      -0.032  14.113  18.578  0.00  0.00    +0.000 C 
ATOM      5  C   UNL     1      -0.206  15.207  19.630  0.00  0.00    +0.000 C 
ATOM      6  C   UNL     1       1.083  15.495  20.431  0.00  0.00    +0.000 C 
ATOM      7  C   UNL     1       1.766  14.192  20.908  0.00  0.00    +0.000 C 
ATOM      8  C   UNL     1       1.894  13.175  19.773  0.00  0.00    +0.000 C 
ATOM      9  N   UNL     1       0.782  16.398  21.565  0.00  0.00    +0.000 N 
ATOM     10  C   UNL     1       0.005  15.990  22.722  0.00  0.00    +0.000 C 
ATOM     11  C   UNL     1       1.348  17.663  21.515  0.00  0.00    +0.000 C 
ATOM     12  O   UNL     1       1.253  18.482  22.425  0.00  0.00    +0.000 OA
ATOM     13  C   UNL     1       2.043  17.983  20.225  0.00  0.00    +0.000 C 
ATOM     14  S   UNL     1       2.272  16.454  19.388  0.00  0.00    +0.000 S 
ATOM     15  O   UNL     1       3.626  16.006  19.641  0.00  0.00    +0.000 OA
ATOM     16  O   UNL     1       1.779  16.604  18.036  0.00  0.00    +0.000 OA
ENDROOT
BRANCH   1  23
ATOM     17  C   UNL     1      -0.174   9.393  23.398  0.00  0.00    +0.000 C 
ATOM     18  C   UNL     1       0.255   9.357  21.963  0.00  0.00    +0.000 A 
ATOM     19  C   UNL     1       1.076   8.349  21.463  0.00  0.00    +0.000 A 
ATOM     20  C   UNL     1       1.499   8.384  20.131  0.00  0.00    +0.000 A 
ATOM     21  C   UNL     1       1.165   9.461  19.286  0.00  0.00    +0.000 A 
ATOM     22  C   UNL     1       1.647   9.431  17.863  0.00  0.00    +0.000 C 
ATOM     23  C   UNL     1       0.368  10.505  19.804  0.00  0.00    +0.000 A 
ATOM     24  C   UNL     1      -0.135  10.390  21.109  0.00  0.00    +0.000 A 
ENDBRANCH   1  23
TORSDOF 1
ENDMDL
MODEL 7
REMARK VINA RESULT:      -5.9      9.765     11.593
REMARK  Name = 
REMARK  4 active torsions:
REMARK  status: ('A' for Active; 'I' for Inactive)
REMARK    1  A    between atoms: C_1  and  C_2
REMARK    2  A    between atoms: C_5  and  C_6
REMARK    3  A    between atoms: C_7  and  C_8
REMARK    4  A    between atoms: N_16  and  C_17
REMARK                            x       y       z     vdW  Elec       q    Type
REMARK                         _______ _______ _______ _____ _____    ______ ____
ROOT
ATOM      1  C   UNL     1       9.447  12.357  20.861  0.00  0.00    +0.000 C 
ATOM      2  O   UNL     1       9.924  11.234  20.715  0.00  0.00    +0.000 OA
ATOM      3  N   UNL     1       8.503  12.628  21.868  0.00  0.00    +0.000 N 
ATOM      4  C   UNL     1       8.240  11.597  22.866  0.00  0.00    +0.000 C 
ATOM      5  C   UNL     1       8.351  12.193  24.268  0.00  0.00    +0.000 C 
ATOM      6  C   UNL     1       7.521  13.483  24.452  0.00  0.00    +0.000 C 
ATOM      7  C   UNL     1       7.721  14.466  23.275  0.00  0.00    +0.000 C 
ATOM      8  C   UNL     1       7.580  13.764  21.924  0.00  0.00    +0.000 C 
ATOM      9  N   UNL     1       7.849  14.114  25.750  0.00  0.00    +0.000 N 
ATOM     10  C   UNL     1       9.127  14.748  26.025  0.00  0.00    +0.000 C 
ATOM     11  C   UNL     1       6.836  14.145  26.696  0.00  0.00    +0.000 C 
ATOM     12  O   UNL     1       6.941  14.711  27.780  0.00  0.00    +0.000 OA
ATOM     13  C   UNL     1       5.607  13.374  26.317  0.00  0.00    +0.000 C 
ATOM     14  S   UNL     1       5.725  13.063  24.590  0.00  0.00    +0.000 S 
ATOM     15  O   UNL     1       4.929  14.058  23.903  0.00  0.00    +0.000 OA
ATOM     16  O   UNL     1       5.500  11.650  24.372  0.00  0.00    +0.000 OA
ENDROOT
BRANCH   1  23
ATOM     17  C   UNL     1      12.220  16.472  20.505  0.00  0.00    +0.000 C 
ATOM     18  C   UNL     1      11.364  15.458  19.813  0.00  0.00    +0.000 A 
ATOM     19  C   UNL     1      10.979  15.602  18.482  0.00  0.00    +0.000 A 
ATOM     20  C   UNL     1      10.131  14.661  17.890  0.00  0.00    +0.000 A 
ATOM     21  C   UNL     1       9.598  13.588  18.633  0.00  0.00    +0.000 A 
ATOM     22  C   UNL     1       8.701  12.608  17.931  0.00  0.00    +0.000 C 
ATOM     23  C   UNL     1       9.956  13.463  19.993  0.00  0.00    +0.000 A 
ATOM     24  C   UNL     1      10.893  14.358  20.531  0.00  0.00    +0.000 A 
ENDBRANCH   1  23
TORSDOF 1
ENDMDL
MODEL 8
REMARK VINA RESULT:      -5.9      6.345     10.091
REMARK  Name = 
REMARK  4 active torsions:
REMARK  status: ('A' for Active; 'I' for Inactive)
REMARK    1  A    between atoms: C_1  and  C_2
REMARK    2  A    between atoms: C_5  and  C_6
REMARK    3  A    between atoms: C_7  and  C_8
REMARK    4  A    between atoms: N_16  and  C_17
REMARK                            x       y       z     vdW  Elec       q    Type
REMARK                         _______ _______ _______ _____ _____    ______ ____
ROOT
ATOM      1  C   UNL     1       0.853   9.180  20.336  0.00  0.00    +0.000 C 
ATOM      2  O   UNL     1       0.649   9.199  21.548  0.00  0.00    +0.000 OA
ATOM      3  N   UNL     1       1.750   8.264  19.758  0.00  0.00    +0.000 N 
ATOM      4  C   UNL     1       2.295   7.203  20.598  0.00  0.00    +0.000 C 
ATOM      5  C   UNL     1       2.109   5.851  19.911  0.00  0.00    +0.000 C 
ATOM      6  C   UNL     1       2.618   5.832  18.452  0.00  0.00    +0.000 C 
ATOM      7  C   UNL     1       2.138   7.071  17.661  0.00  0.00    +0.000 C 
ATOM      8  C   UNL     1       2.380   8.365  18.439  0.00  0.00    +0.000 C 
ATOM      9  N   UNL     1       2.209   4.573  17.791  0.00  0.00    +0.000 N 
ATOM     10  C   UNL     1       0.831   4.266  17.447  0.00  0.00    +0.000 C 
ATOM     11  C   UNL     1       3.228   3.702  17.435  0.00  0.00    +0.000 C 
ATOM     12  O   UNL     1       3.041   2.664  16.806  0.00  0.00    +0.000 OA
ATOM     13  C   UNL     1       4.585   4.096  17.934  0.00  0.00    +0.000 C 
ATOM     14  S   UNL     1       4.466   5.779  18.430  0.00  0.00    +0.000 S 
ATOM     15  O   UNL     1       4.973   6.599  17.349  0.00  0.00    +0.000 OA
ATOM     16  O   UNL     1       5.009   5.893  19.767  0.00  0.00    +0.000 OA
ENDROOT
BRANCH   1  23
ATOM     17  C   UNL     1      -2.954   9.727  17.181  0.00  0.00    +0.000 C 
ATOM     18  C   UNL     1      -1.849  10.374  17.956  0.00  0.00    +0.000 A 
ATOM     19  C   UNL     1      -1.516  11.716  17.788  0.00  0.00    +0.000 A 
ATOM     20  C   UNL     1      -0.440  12.266  18.491  0.00  0.00    +0.000 A 
ATOM     21  C   UNL     1       0.369  11.472  19.328  0.00  0.00    +0.000 A 
ATOM     22  C   UNL     1       1.505  12.129  20.060  0.00  0.00    +0.000 C 
ATOM     23  C   UNL     1       0.058  10.102  19.467  0.00  0.00    +0.000 A 
ATOM     24  C   UNL     1      -1.092   9.601  18.838  0.00  0.00    +0.000 A 
ENDBRANCH   1  23
TORSDOF 1
ENDMDL
MODEL 9
REMARK VINA RESULT:      -5.9      1.218      2.100
REMARK  Name = 
REMARK  4 active torsions:
REMARK  status: ('A' for Active; 'I' for Inactive)
REMARK    1  A    between atoms: C_1  and  C_2
REMARK    2  A    between atoms: C_5  and  C_6
REMARK    3  A    between atoms: C_7  and  C_8
REMARK    4  A    between atoms: N_16  and  C_17
REMARK                            x       y       z     vdW  Elec       q    Type
REMARK                         _______ _______ _______ _____ _____    ______ ____
ROOT
ATOM      1  C   UNL     1      -1.451  12.257  22.223  0.00  0.00    +0.000 C 
ATOM      2  O   UNL     1      -0.724  11.897  23.148  0.00  0.00    +0.000 OA
ATOM      3  N   UNL     1      -2.824  12.494  22.420  0.00  0.00    +0.000 N 
ATOM      4  C   UNL     1      -3.338  12.493  23.784  0.00  0.00    +0.000 C 
ATOM      5  C   UNL     1      -4.155  13.761  24.031  0.00  0.00    +0.000 C 
ATOM      6  C   UNL     1      -5.224  14.020  22.946  0.00  0.00    +0.000 C 
ATOM      7  C   UNL     1      -4.651  13.843  21.521  0.00  0.00    +0.000 C 
ATOM      8  C   UNL     1      -3.862  12.540  21.388  0.00  0.00    +0.000 C 
ATOM      9  N   UNL     1      -5.817  15.363  23.132  0.00  0.00    +0.000 N 
ATOM     10  C   UNL     1      -5.089  16.595  22.885  0.00  0.00    +0.000 C 
ATOM     11  C   UNL     1      -7.156  15.404  23.491  0.00  0.00    +0.000 C 
ATOM     12  O   UNL     1      -7.797  16.446  23.594  0.00  0.00    +0.000 OA
ATOM     13  C   UNL     1      -7.757  14.066  23.806  0.00  0.00    +0.000 C 
ATOM     14  S   UNL     1      -6.646  12.859  23.174  0.00  0.00    +0.000 S 
ATOM     15  O   UNL     1      -7.144  12.426  21.884  0.00  0.00    +0.000 OA
ATOM     16  O   UNL     1      -6.377  11.902  24.226  0.00  0.00    +0.000 OA
ENDROOT
BRANCH   1  23
ATOM     17  C   UNL     1      -0.088  15.626  18.827  0.00  0.00    +0.000 C 
ATOM     18  C   UNL     1      -0.111  14.189  19.247  0.00  0.00    +0.000 A 
ATOM     19  C   UNL     1       0.315  13.166  18.404  0.00  0.00    +0.000 A 
ATOM     20  C   UNL     1       0.223  11.833  18.815  0.00  0.00    +0.000 A 
ATOM     21  C   UNL     1      -0.356  11.488  20.053  0.00  0.00    +0.000 A 
ATOM     22  C   UNL     1      -0.415  10.036  20.436  0.00  0.00    +0.000 C 
ATOM     23  C   UNL     1      -0.826  12.522  20.891  0.00  0.00    +0.000 A 
ATOM     24  C   UNL     1      -0.621  13.855  20.502  0.00  0.00    +0.000 A 
ENDBRANCH   1  23
TORSDOF 1
ENDMDL
