MODEL 1
REMARK VINA RESULT:      -7.6      0.000      0.000
REMARK  Name = 
REMARK  9 active torsions:
REMARK  status: ('A' for Active; 'I' for Inactive)
REMARK    1  A    between atoms: C_1  and  N_2
REMARK    2  A    between atoms: N_2  and  C_3
REMARK    3  A    between atoms: N_2  and  C_4
REMARK    4  A    between atoms: C_4  and  C_5
REMARK    5  A    between atoms: C_5  and  C_6
REMARK    6  A    between atoms: C_6  and  N_7
REMARK    7  A    between atoms: C_8  and  C_10
REMARK    8  A    between atoms: C_15  and  N_16
REMARK    9  A    between atoms: C_17  and  C_19
REMARK                            x       y       z     vdW  Elec       q    Type
REMARK                         _______ _______ _______ _____ _____    ______ ____
ROOT
ATOM      1  C   UNL     1       6.668   5.046  16.177  0.00  0.00    +0.000 A 
ATOM      2  C   UNL     1       7.347   5.128  14.942  0.00  0.00    +0.000 A 
ATOM      3  C   UNL     1       6.821   4.544  13.794  0.00  0.00    +0.000 A 
ATOM      4  C   UNL     1       5.596   3.901  13.860  0.00  0.00    +0.000 A 
ATOM      5  C   UNL     1       4.902   3.836  15.071  0.00  0.00    +0.000 A 
ATOM      6  C   UNL     1       5.421   4.388  16.254  0.00  0.00    +0.000 A 
ENDROOT
BRANCH   1   8
ATOM      7  N   UNL     1       7.659   7.010  17.215  0.00  0.00    +0.000 N 
ATOM      8  C   UNL     1       7.306   5.683  17.366  0.00  0.00    +0.000 C 
ATOM      9  O   UNL     1       7.490   5.037  18.390  0.00  0.00    +0.000 OA
ATOM     10  H   UNL     1       7.663   7.425  16.293  0.00  0.00    +0.000 HD
BRANCH   7  11
ATOM     11  C   UNL     1       8.237   7.809  18.278  0.00  0.00    +0.000 C 
BRANCH  11  12
ATOM     12  C   UNL     1       8.122   9.307  18.013  0.00  0.00    +0.000 C 
BRANCH  12  13
ATOM     13  C   UNL     1       9.126  10.162  18.804  0.00  0.00    +0.000 C 
BRANCH  13  15
ATOM     14  C   UNL     1       9.172  12.574  19.155  0.00  0.00    +0.000 C 
ATOM     15  N   UNL     1       9.423  11.480  18.211  0.00  0.00    +0.000 NA
ATOM     16  C   UNL     1      10.824  11.529  17.777  0.00  0.00    +0.000 C 
ENDBRANCH  13  15
ENDBRANCH  12  13
ENDBRANCH  11  12
ENDBRANCH   7  11
ENDBRANCH   1   8
BRANCH   6  17
ATOM     17  N   UNL     1       4.694   4.305  17.480  0.00  0.00    +0.000 N 
ATOM     18  C   UNL     1       4.094   3.157  17.978  0.00  0.00    +0.000 C 
ATOM     19  O   UNL     1       4.243   2.031  17.503  0.00  0.00    +0.000 OA
ATOM     20  H   UNL     1       4.693   5.154  18.049  0.00  0.00    +0.000 HD
BRANCH  18  21
ATOM     21  C   UNL     1       3.190   3.251  19.162  0.00  0.00    +0.000 A 
ATOM     22  C   UNL     1       1.980   3.947  18.942  0.00  0.00    +0.000 A 
ATOM     23  C   UNL     1       1.010   4.065  19.939  0.00  0.00    +0.000 A 
ATOM     24  C   UNL     1       1.234   3.492  21.183  0.00  0.00    +0.000 A 
ATOM     25  C   UNL     1       2.425   2.806  21.425  0.00  0.00    +0.000 A 
ATOM     26  C   UNL     1       3.401   2.675  20.419  0.00  0.00    +0.000 A 
ATOM     27 CL   UNL     1       4.781   1.721  20.815  0.00  0.00    +0.000 Cl
ENDBRANCH  18  21
ENDBRANCH   6  17
TORSDOF 7
ENDMDL
MODEL 2
REMARK VINA RESULT:      -7.6      1.019      1.024
REMARK  Name = 
REMARK  9 active torsions:
REMARK  status: ('A' for Active; 'I' for Inactive)
REMARK    1  A    between atoms: C_1  and  N_2
REMARK    2  A    between atoms: N_2  and  C_3
REMARK    3  A    between atoms: N_2  and  C_4
REMARK    4  A    between atoms: C_4  and  C_5
REMARK    5  A    between atoms: C_5  and  C_6
REMARK    6  A    between atoms: C_6  and  N_7
REMARK    7  A    between atoms: C_8  and  C_10
REMARK    8  A    between atoms: C_15  and  N_16
REMARK    9  A    between atoms: C_17  and  C_19
REMARK                            x       y       z     vdW  Elec       q    Type
REMARK                         _______ _______ _______ _____ _____    ______ ____
ROOT
ATOM      1  C   UNL     1       6.839   4.925  16.077  0.00  0.00    +0.000 A 
ATOM      2  C   UNL     1       7.438   5.255  14.842  0.00  0.00    +0.000 A 
ATOM      3  C   UNL     1       7.003   4.675  13.655  0.00  0.00    +0.000 A 
ATOM      4  C   UNL     1       5.943   3.783  13.684  0.00  0.00    +0.000 A 
ATOM      5  C   UNL     1       5.325   3.468  14.898  0.00  0.00    +0.000 A 
ATOM      6  C   UNL     1       5.763   4.013  16.117  0.00  0.00    +0.000 A 
ENDROOT
BRANCH   1   8
ATOM      7  N   UNL     1       7.676   6.920  17.188  0.00  0.00    +0.000 N 
ATOM      8  C   UNL     1       7.375   5.577  17.307  0.00  0.00    +0.000 C 
ATOM      9  O   UNL     1       7.525   4.930  18.336  0.00  0.00    +0.000 OA
ATOM     10  H   UNL     1       7.716   7.345  16.271  0.00  0.00    +0.000 HD
BRANCH   7  11
ATOM     11  C   UNL     1       8.152   7.734  18.290  0.00  0.00    +0.000 C 
BRANCH  11  12
ATOM     12  C   UNL     1       8.170   9.222  17.954  0.00  0.00    +0.000 C 
BRANCH  12  13
ATOM     13  C   UNL     1       9.056  10.064  18.888  0.00  0.00    +0.000 C 
BRANCH  13  15
ATOM     14  C   UNL     1       9.088  12.289  17.893  0.00  0.00    +0.000 C 
ATOM     15  N   UNL     1       9.871  11.092  18.212  0.00  0.00    +0.000 NA
ATOM     16  C   UNL     1      11.006  11.469  19.063  0.00  0.00    +0.000 C 
ENDBRANCH  13  15
ENDBRANCH  12  13
ENDBRANCH  11  12
ENDBRANCH   7  11
ENDBRANCH   1   8
BRANCH   6  17
ATOM     17  N   UNL     1       5.117   3.671  17.344  0.00  0.00    +0.000 N 
ATOM     18  C   UNL     1       3.802   3.976  17.667  0.00  0.00    +0.000 C 
ATOM     19  O   UNL     1       2.981   4.443  16.878  0.00  0.00    +0.000 OA
ATOM     20  H   UNL     1       5.667   3.096  17.985  0.00  0.00    +0.000 HD
BRANCH  18  21
ATOM     21  C   UNL     1       3.314   3.747  19.059  0.00  0.00    +0.000 A 
ATOM     22  C   UNL     1       2.791   4.888  19.708  0.00  0.00    +0.000 A 
ATOM     23  C   UNL     1       2.242   4.815  20.990  0.00  0.00    +0.000 A 
ATOM     24  C   UNL     1       2.211   3.596  21.653  0.00  0.00    +0.000 A 
ATOM     25  C   UNL     1       2.728   2.458  21.034  0.00  0.00    +0.000 A 
ATOM     26  C   UNL     1       3.272   2.524  19.737  0.00  0.00    +0.000 A 
ATOM     27 CL   UNL     1       3.787   1.030  19.048  0.00  0.00    +0.000 Cl
ENDBRANCH  18  21
ENDBRANCH   6  17
TORSDOF 7
ENDMDL
MODEL 3
REMARK VINA RESULT:      -7.6      3.765      6.008
REMARK  Name = 
REMARK  9 active torsions:
REMARK  status: ('A' for Active; 'I' for Inactive)
REMARK    1  A    between atoms: C_1  and  N_2
REMARK    2  A    between atoms: N_2  and  C_3
REMARK    3  A    between atoms: N_2  and  C_4
REMARK    4  A    between atoms: C_4  and  C_5
REMARK    5  A    between atoms: C_5  and  C_6
REMARK    6  A    between atoms: C_6  and  N_7
REMARK    7  A    between atoms: C_8  and  C_10
REMARK    8  A    between atoms: C_15  and  N_16
REMARK    9  A    between atoms: C_17  and  C_19
REMARK                            x       y       z     vdW  Elec       q    Type
REMARK                         _______ _______ _______ _____ _____    ______ ____
ROOT
ATOM      1  C   UNL     1       3.735   3.801  18.883  0.00  0.00    +0.000 A 
ATOM      2  C   UNL     1       3.787   2.391  18.911  0.00  0.00    +0.000 A 
ATOM      3  C   UNL     1       2.628   1.627  18.810  0.00  0.00    +0.000 A 
ATOM      4  C   UNL     1       1.408   2.264  18.647  0.00  0.00    +0.000 A 
ATOM      5  C   UNL     1       1.347   3.659  18.592  0.00  0.00    +0.000 A 
ATOM      6  C   UNL     1       2.496   4.458  18.724  0.00  0.00    +0.000 A 
ENDROOT
BRANCH   1   8
ATOM      7  N   UNL     1       6.091   4.022  18.318  0.00  0.00    +0.000 N 
ATOM      8  C   UNL     1       5.020   4.547  19.015  0.00  0.00    +0.000 C 
ATOM      9  O   UNL     1       5.082   5.556  19.708  0.00  0.00    +0.000 OA
ATOM     10  H   UNL     1       6.026   3.090  17.930  0.00  0.00    +0.000 HD
BRANCH   7  11
ATOM     11  C   UNL     1       7.401   4.641  18.280  0.00  0.00    +0.000 C 
BRANCH  11  12
ATOM     12  C   UNL     1       7.574   5.573  17.085  0.00  0.00    +0.000 C 
BRANCH  12  13
ATOM     13  C   UNL     1       7.217   4.932  15.733  0.00  0.00    +0.000 C 
BRANCH  13  15
ATOM     14  C   UNL     1       5.120   6.159  15.538  0.00  0.00    +0.000 C 
ATOM     15  N   UNL     1       5.772   4.849  15.447  0.00  0.00    +0.000 NA
ATOM     16  C   UNL     1       5.559   4.296  14.105  0.00  0.00    +0.000 C 
ENDBRANCH  13  15
ENDBRANCH  12  13
ENDBRANCH  11  12
ENDBRANCH   7  11
ENDBRANCH   1   8
BRANCH   6  17
ATOM     17  N   UNL     1       2.406   5.882  18.668  0.00  0.00    +0.000 N 
ATOM     18  C   UNL     1       1.977   6.697  19.706  0.00  0.00    +0.000 C 
ATOM     19  O   UNL     1       1.766   6.309  20.855  0.00  0.00    +0.000 OA
ATOM     20  H   UNL     1       2.759   6.312  17.810  0.00  0.00    +0.000 HD
BRANCH  18  21
ATOM     21  C   UNL     1       1.732   8.147  19.451  0.00  0.00    +0.000 A 
ATOM     22  C   UNL     1       2.222   8.633  18.218  0.00  0.00    +0.000 A 
ATOM     23  C   UNL     1       2.015   9.954  17.815  0.00  0.00    +0.000 A 
ATOM     24  C   UNL     1       1.316  10.820  18.644  0.00  0.00    +0.000 A 
ATOM     25  C   UNL     1       0.829  10.364  19.870  0.00  0.00    +0.000 A 
ATOM     26  C   UNL     1       1.026   9.030  20.275  0.00  0.00    +0.000 A 
ATOM     27 CL   UNL     1       0.290   8.569  21.764  0.00  0.00    +0.000 Cl
ENDBRANCH  18  21
ENDBRANCH   6  17
TORSDOF 7
ENDMDL
MODEL 4
REMARK VINA RESULT:      -7.5      3.697      7.054
REMARK  Name = 
REMARK  9 active torsions:
REMARK  status: ('A' for Active; 'I' for Inactive)
REMARK    1  A    between atoms: C_1  and  N_2
REMARK    2  A    between atoms: N_2  and  C_3
REMARK    3  A    between atoms: N_2  and  C_4
REMARK    4  A    between atoms: C_4  and  C_5
REMARK    5  A    between atoms: C_5  and  C_6
REMARK    6  A    between atoms: C_6  and  N_7
REMARK    7  A    between atoms: C_8  and  C_10
REMARK    8  A    between atoms: C_15  and  N_16
REMARK    9  A    between atoms: C_17  and  C_19
REMARK                            x       y       z     vdW  Elec       q    Type
REMARK                         _______ _______ _______ _____ _____    ______ ____
ROOT
ATOM      1  C   UNL     1       2.472   4.531  19.835  0.00  0.00    +0.000 A 
ATOM      2  C   UNL     1       1.743   4.381  21.033  0.00  0.00    +0.000 A 
ATOM      3  C   UNL     1       1.919   3.266  21.847  0.00  0.00    +0.000 A 
ATOM      4  C   UNL     1       2.851   2.305  21.488  0.00  0.00    +0.000 A 
ATOM      5  C   UNL     1       3.598   2.456  20.316  0.00  0.00    +0.000 A 
ATOM      6  C   UNL     1       3.419   3.554  19.458  0.00  0.00    +0.000 A 
ENDROOT
BRANCH   1   8
ATOM      7  N   UNL     1       2.298   6.953  19.677  0.00  0.00    +0.000 N 
ATOM      8  C   UNL     1       2.212   5.747  19.009  0.00  0.00    +0.000 C 
ATOM      9  O   UNL     1       1.942   5.641  17.819  0.00  0.00    +0.000 OA
ATOM     10  H   UNL     1       2.329   6.963  20.689  0.00  0.00    +0.000 HD
BRANCH   7  11
ATOM     11  C   UNL     1       2.135   8.239  19.030  0.00  0.00    +0.000 C 
BRANCH  11  12
ATOM     12  C   UNL     1       1.145   9.142  19.762  0.00  0.00    +0.000 C 
BRANCH  12  13
ATOM     13  C   UNL     1       0.910   8.752  21.231  0.00  0.00    +0.000 C 
BRANCH  13  15
ATOM     14  C   UNL     1       0.387  11.121  21.464  0.00  0.00    +0.000 C 
ATOM     15  N   UNL     1       0.767   9.888  22.160  0.00  0.00    +0.000 NA
ATOM     16  C   UNL     1      -0.243   9.578  23.178  0.00  0.00    +0.000 C 
ENDBRANCH  13  15
ENDBRANCH  12  13
ENDBRANCH  11  12
ENDBRANCH   7  11
ENDBRANCH   1   8
BRANCH   6  17
ATOM     17  N   UNL     1       4.192   3.683  18.265  0.00  0.00    +0.000 N 
ATOM     18  C   UNL     1       5.455   4.253  18.188  0.00  0.00    +0.000 C 
ATOM     19  O   UNL     1       6.133   4.579  19.163  0.00  0.00    +0.000 OA
ATOM     20  H   UNL     1       3.790   3.249  17.431  0.00  0.00    +0.000 HD
BRANCH  18  21
ATOM     21  C   UNL     1       6.066   4.514  16.851  0.00  0.00    +0.000 A 
ATOM     22  C   UNL     1       5.687   3.615  15.830  0.00  0.00    +0.000 A 
ATOM     23  C   UNL     1       6.130   3.769  14.515  0.00  0.00    +0.000 A 
ATOM     24  C   UNL     1       6.970   4.826  14.196  0.00  0.00    +0.000 A 
ATOM     25  C   UNL     1       7.363   5.723  15.189  0.00  0.00    +0.000 A 
ATOM     26  C   UNL     1       6.910   5.578  16.514  0.00  0.00    +0.000 A 
ATOM     27 CL   UNL     1       7.389   6.808  17.623  0.00  0.00    +0.000 Cl
ENDBRANCH  18  21
ENDBRANCH   6  17
TORSDOF 7
ENDMDL
MODEL 5
REMARK VINA RESULT:      -7.4      1.700      1.887
REMARK  Name = 
REMARK  9 active torsions:
REMARK  status: ('A' for Active; 'I' for Inactive)
REMARK    1  A    between atoms: C_1  and  N_2
REMARK    2  A    between atoms: N_2  and  C_3
REMARK    3  A    between atoms: N_2  and  C_4
REMARK    4  A    between atoms: C_4  and  C_5
REMARK    5  A    between atoms: C_5  and  C_6
REMARK    6  A    between atoms: C_6  and  N_7
REMARK    7  A    between atoms: C_8  and  C_10
REMARK    8  A    between atoms: C_15  and  N_16
REMARK    9  A    between atoms: C_17  and  C_19
REMARK                            x       y       z     vdW  Elec       q    Type
REMARK                         _______ _______ _______ _____ _____    ______ ____
ROOT
ATOM      1  C   UNL     1       6.731   4.839  15.864  0.00  0.00    +0.000 A 
ATOM      2  C   UNL     1       7.493   5.048  14.695  0.00  0.00    +0.000 A 
ATOM      3  C   UNL     1       7.075   4.546  13.466  0.00  0.00    +0.000 A 
ATOM      4  C   UNL     1       5.875   3.858  13.387  0.00  0.00    +0.000 A 
ATOM      5  C   UNL     1       5.099   3.668  14.534  0.00  0.00    +0.000 A 
ATOM      6  C   UNL     1       5.510   4.135  15.794  0.00  0.00    +0.000 A 
ENDROOT
BRANCH   1   8
ATOM      7  N   UNL     1       7.579   6.738  17.127  0.00  0.00    +0.000 N 
ATOM      8  C   UNL     1       7.256   5.395  17.146  0.00  0.00    +0.000 C 
ATOM      9  O   UNL     1       7.380   4.674  18.128  0.00  0.00    +0.000 OA
ATOM     10  H   UNL     1       7.641   7.225  16.242  0.00  0.00    +0.000 HD
BRANCH   7  11
ATOM     11  C   UNL     1       8.049   7.464  18.290  0.00  0.00    +0.000 C 
BRANCH  11  12
ATOM     12  C   UNL     1       8.207   8.958  18.024  0.00  0.00    +0.000 C 
BRANCH  12  13
ATOM     13  C   UNL     1       9.003   9.706  19.107  0.00  0.00    +0.000 C 
BRANCH  13  15
ATOM     14  C   UNL     1       9.515  11.883  20.075  0.00  0.00    +0.000 C 
ATOM     15  N   UNL     1       9.205  11.144  18.848  0.00  0.00    +0.000 NA
ATOM     16  C   UNL     1      10.296  11.330  17.884  0.00  0.00    +0.000 C 
ENDBRANCH  13  15
ENDBRANCH  12  13
ENDBRANCH  11  12
ENDBRANCH   7  11
ENDBRANCH   1   8
BRANCH   6  17
ATOM     17  N   UNL     1       4.700   3.924  16.951  0.00  0.00    +0.000 N 
ATOM     18  C   UNL     1       3.944   4.899  17.587  0.00  0.00    +0.000 C 
ATOM     19  O   UNL     1       3.754   6.031  17.143  0.00  0.00    +0.000 OA
ATOM     20  H   UNL     1       4.636   2.955  17.273  0.00  0.00    +0.000 HD
BRANCH  18  21
ATOM     21  C   UNL     1       3.310   4.598  18.904  0.00  0.00    +0.000 A 
ATOM     22  C   UNL     1       3.509   3.283  19.381  0.00  0.00    +0.000 A 
ATOM     23  C   UNL     1       3.026   2.874  20.626  0.00  0.00    +0.000 A 
ATOM     24  C   UNL     1       2.328   3.774  21.418  0.00  0.00    +0.000 A 
ATOM     25  C   UNL     1       2.114   5.076  20.965  0.00  0.00    +0.000 A 
ATOM     26  C   UNL     1       2.608   5.496  19.715  0.00  0.00    +0.000 A 
ATOM     27 CL   UNL     1       2.362   7.155  19.317  0.00  0.00    +0.000 Cl
ENDBRANCH  18  21
ENDBRANCH   6  17
TORSDOF 7
ENDMDL
MODEL 6
REMARK VINA RESULT:      -7.2      3.795      6.687
REMARK  Name = 
REMARK  9 active torsions:
REMARK  status: ('A' for Active; 'I' for Inactive)
REMARK    1  A    between atoms: C_1  and  N_2
REMARK    2  A    between atoms: N_2  and  C_3
REMARK    3  A    between atoms: N_2  and  C_4
REMARK    4  A    between atoms: C_4  and  C_5
REMARK    5  A    between atoms: C_5  and  C_6
REMARK    6  A    between atoms: C_6  and  N_7
REMARK    7  A    between atoms: C_8  and  C_10
REMARK    8  A    between atoms: C_15  and  N_16
REMARK    9  A    between atoms: C_17  and  C_19
REMARK                            x       y       z     vdW  Elec       q    Type
REMARK                         _______ _______ _______ _____ _____    ______ ____
ROOT
ATOM      1  C   UNL     1       2.304   4.951  19.017  0.00  0.00    +0.000 A 
ATOM      2  C   UNL     1       1.401   4.802  20.091  0.00  0.00    +0.000 A 
ATOM      3  C   UNL     1       0.760   3.589  20.327  0.00  0.00    +0.000 A 
ATOM      4  C   UNL     1       1.040   2.504  19.512  0.00  0.00    +0.000 A 
ATOM      5  C   UNL     1       1.953   2.633  18.461  0.00  0.00    +0.000 A 
ATOM      6  C   UNL     1       2.591   3.852  18.178  0.00  0.00    +0.000 A 
ENDROOT
BRANCH   1   8
ATOM      7  N   UNL     1       2.162   7.225  18.164  0.00  0.00    +0.000 N 
ATOM      8  C   UNL     1       2.937   6.288  18.820  0.00  0.00    +0.000 C 
ATOM      9  O   UNL     1       4.072   6.502  19.226  0.00  0.00    +0.000 OA
ATOM     10  H   UNL     1       1.321   6.931  17.684  0.00  0.00    +0.000 HD
BRANCH   7  11
ATOM     11  C   UNL     1       2.584   8.592  17.933  0.00  0.00    +0.000 C 
BRANCH  11  12
ATOM     12  C   UNL     1       1.413   9.569  17.892  0.00  0.00    +0.000 C 
BRANCH  12  13
ATOM     13  C   UNL     1       0.484   9.484  19.115  0.00  0.00    +0.000 C 
BRANCH  13  15
ATOM     14  C   UNL     1       0.799  10.792  21.147  0.00  0.00    +0.000 C 
ATOM     15  N   UNL     1       1.165   9.573  20.420  0.00  0.00    +0.000 NA
ATOM     16  C   UNL     1       0.831   8.403  21.240  0.00  0.00    +0.000 C 
ENDBRANCH  13  15
ENDBRANCH  12  13
ENDBRANCH  11  12
ENDBRANCH   7  11
ENDBRANCH   1   8
BRANCH   6  17
ATOM     17  N   UNL     1       3.516   3.959  17.096  0.00  0.00    +0.000 N 
ATOM     18  C   UNL     1       4.898   3.940  17.221  0.00  0.00    +0.000 C 
ATOM     19  O   UNL     1       5.500   3.675  18.261  0.00  0.00    +0.000 OA
ATOM     20  H   UNL     1       3.101   3.978  16.162  0.00  0.00    +0.000 HD
BRANCH  18  21
ATOM     21  C   UNL     1       5.750   4.269  16.040  0.00  0.00    +0.000 A 
ATOM     22  C   UNL     1       5.385   3.624  14.837  0.00  0.00    +0.000 A 
ATOM     23  C   UNL     1       6.052   3.879  13.637  0.00  0.00    +0.000 A 
ATOM     24  C   UNL     1       7.104   4.782  13.617  0.00  0.00    +0.000 A 
ATOM     25  C   UNL     1       7.486   5.426  14.795  0.00  0.00    +0.000 A 
ATOM     26  C   UNL     1       6.810   5.181  16.005  0.00  0.00    +0.000 A 
ATOM     27 CL   UNL     1       7.316   6.113  17.364  0.00  0.00    +0.000 Cl
ENDBRANCH  18  21
ENDBRANCH   6  17
TORSDOF 7
ENDMDL
MODEL 7
REMARK VINA RESULT:      -7.2      3.649      6.335
REMARK  Name = 
REMARK  9 active torsions:
REMARK  status: ('A' for Active; 'I' for Inactive)
REMARK    1  A    between atoms: C_1  and  N_2
REMARK    2  A    between atoms: N_2  and  C_3
REMARK    3  A    between atoms: N_2  and  C_4
REMARK    4  A    between atoms: C_4  and  C_5
REMARK    5  A    between atoms: C_5  and  C_6
REMARK    6  A    between atoms: C_6  and  N_7
REMARK    7  A    between atoms: C_8  and  C_10
REMARK    8  A    between atoms: C_15  and  N_16
REMARK    9  A    between atoms: C_17  and  C_19
REMARK                            x       y       z     vdW  Elec       q    Type
REMARK                         _______ _______ _______ _____ _____    ______ ____
ROOT
ATOM      1  C   UNL     1       5.947   4.872  17.093  0.00  0.00    +0.000 A 
ATOM      2  C   UNL     1       6.709   4.058  16.228  0.00  0.00    +0.000 A 
ATOM      3  C   UNL     1       6.752   4.308  14.859  0.00  0.00    +0.000 A 
ATOM      4  C   UNL     1       6.060   5.393  14.346  0.00  0.00    +0.000 A 
ATOM      5  C   UNL     1       5.323   6.221  15.197  0.00  0.00    +0.000 A 
ATOM      6  C   UNL     1       5.235   5.976  16.578  0.00  0.00    +0.000 A 
ENDROOT
BRANCH   1   8
ATOM      7  N   UNL     1       5.063   3.526  18.916  0.00  0.00    +0.000 N 
ATOM      8  C   UNL     1       5.939   4.527  18.545  0.00  0.00    +0.000 C 
ATOM      9  O   UNL     1       6.675   5.117  19.326  0.00  0.00    +0.000 OA
ATOM     10  H   UNL     1       4.349   3.219  18.268  0.00  0.00    +0.000 HD
BRANCH   7  11
ATOM     11  C   UNL     1       4.956   3.017  20.270  0.00  0.00    +0.000 C 
BRANCH  11  12
ATOM     12  C   UNL     1       3.877   1.948  20.411  0.00  0.00    +0.000 C 
BRANCH  12  13
ATOM     13  C   UNL     1       2.658   2.165  19.499  0.00  0.00    +0.000 C 
BRANCH  13  15
ATOM     14  C   UNL     1       1.569   2.642  21.627  0.00  0.00    +0.000 C 
ATOM     15  N   UNL     1       1.375   2.336  20.207  0.00  0.00    +0.000 NA
ATOM     16  C   UNL     1       0.599   3.414  19.583  0.00  0.00    +0.000 C 
ENDBRANCH  13  15
ENDBRANCH  12  13
ENDBRANCH  11  12
ENDBRANCH   7  11
ENDBRANCH   1   8
BRANCH   6  17
ATOM     17  N   UNL     1       4.472   6.835  17.426  0.00  0.00    +0.000 N 
ATOM     18  C   UNL     1       3.188   6.572  17.882  0.00  0.00    +0.000 C 
ATOM     19  O   UNL     1       2.604   5.498  17.741  0.00  0.00    +0.000 OA
ATOM     20  H   UNL     1       4.961   7.666  17.765  0.00  0.00    +0.000 HD
BRANCH  18  21
ATOM     21  C   UNL     1       2.423   7.642  18.589  0.00  0.00    +0.000 A 
ATOM     22  C   UNL     1       2.145   8.792  17.818  0.00  0.00    +0.000 A 
ATOM     23  C   UNL     1       1.387   9.850  18.325  0.00  0.00    +0.000 A 
ATOM     24  C   UNL     1       0.897   9.780  19.621  0.00  0.00    +0.000 A 
ATOM     25  C   UNL     1       1.165   8.657  20.404  0.00  0.00    +0.000 A 
ATOM     26  C   UNL     1       1.919   7.583  19.893  0.00  0.00    +0.000 A 
ATOM     27 CL   UNL     1       2.095   6.215  20.926  0.00  0.00    +0.000 Cl
ENDBRANCH  18  21
ENDBRANCH   6  17
TORSDOF 7
ENDMDL
MODEL 8
REMARK VINA RESULT:      -7.2      4.001      7.075
REMARK  Name = 
REMARK  9 active torsions:
REMARK  status: ('A' for Active; 'I' for Inactive)
REMARK    1  A    between atoms: C_1  and  N_2
REMARK    2  A    between atoms: N_2  and  C_3
REMARK    3  A    between atoms: N_2  and  C_4
REMARK    4  A    between atoms: C_4  and  C_5
REMARK    5  A    between atoms: C_5  and  C_6
REMARK    6  A    between atoms: C_6  and  N_7
REMARK    7  A    between atoms: C_8  and  C_10
REMARK    8  A    between atoms: C_15  and  N_16
REMARK    9  A    between atoms: C_17  and  C_19
REMARK                            x       y       z     vdW  Elec       q    Type
REMARK                         _______ _______ _______ _____ _____    ______ ____
ROOT
ATOM      1  C   UNL     1       2.573   4.832  19.771  0.00  0.00    +0.000 A 
ATOM      2  C   UNL     1       1.876   4.709  20.992  0.00  0.00    +0.000 A 
ATOM      3  C   UNL     1       1.967   3.551  21.758  0.00  0.00    +0.000 A 
ATOM      4  C   UNL     1       2.780   2.515  21.327  0.00  0.00    +0.000 A 
ATOM      5  C   UNL     1       3.494   2.635  20.132  0.00  0.00    +0.000 A 
ATOM      6  C   UNL     1       3.399   3.779  19.321  0.00  0.00    +0.000 A 
ENDROOT
BRANCH   1   8
ATOM      7  N   UNL     1       2.102   7.218  19.749  0.00  0.00    +0.000 N 
ATOM      8  C   UNL     1       2.409   6.099  19.000  0.00  0.00    +0.000 C 
ATOM      9  O   UNL     1       2.544   6.105  17.783  0.00  0.00    +0.000 OA
ATOM     10  H   UNL     1       1.812   7.112  20.713  0.00  0.00    +0.000 HD
BRANCH   7  11
ATOM     11  C   UNL     1       1.962   8.546  19.183  0.00  0.00    +0.000 C 
BRANCH  11  12
ATOM     12  C   UNL     1       0.959   9.405  19.947  0.00  0.00    +0.000 C 
BRANCH  12  13
ATOM     13  C   UNL     1       0.823  10.838  19.405  0.00  0.00    +0.000 C 
BRANCH  13  15
ATOM     14  C   UNL     1      -0.636  12.510  18.397  0.00  0.00    +0.000 C 
ATOM     15  N   UNL     1      -0.565  11.308  19.233  0.00  0.00    +0.000 NA
ATOM     16  C   UNL     1      -1.379  10.249  18.626  0.00  0.00    +0.000 C 
ENDBRANCH  13  15
ENDBRANCH  12  13
ENDBRANCH  11  12
ENDBRANCH   7  11
ENDBRANCH   1   8
BRANCH   6  17
ATOM     17  N   UNL     1       4.136   3.875  18.102  0.00  0.00    +0.000 N 
ATOM     18  C   UNL     1       5.480   4.209  18.005  0.00  0.00    +0.000 C 
ATOM     19  O   UNL     1       6.243   4.313  18.965  0.00  0.00    +0.000 OA
ATOM     20  H   UNL     1       3.628   3.602  17.258  0.00  0.00    +0.000 HD
BRANCH  18  21
ATOM     21  C   UNL     1       6.077   4.478  16.664  0.00  0.00    +0.000 A 
ATOM     22  C   UNL     1       5.637   3.625  15.627  0.00  0.00    +0.000 A 
ATOM     23  C   UNL     1       6.063   3.794  14.308  0.00  0.00    +0.000 A 
ATOM     24  C   UNL     1       6.945   4.820  14.000  0.00  0.00    +0.000 A 
ATOM     25  C   UNL     1       7.398   5.670  15.009  0.00  0.00    +0.000 A 
ATOM     26  C   UNL     1       6.963   5.510  16.339  0.00  0.00    +0.000 A 
ATOM     27 CL   UNL     1       7.520   6.686  17.470  0.00  0.00    +0.000 Cl
ENDBRANCH  18  21
ENDBRANCH   6  17
TORSDOF 7
ENDMDL
MODEL 9
REMARK VINA RESULT:      -7.1      1.326      1.531
REMARK  Name = 
REMARK  9 active torsions:
REMARK  status: ('A' for Active; 'I' for Inactive)
REMARK    1  A    between atoms: C_1  and  N_2
REMARK    2  A    between atoms: N_2  and  C_3
REMARK    3  A    between atoms: N_2  and  C_4
REMARK    4  A    between atoms: C_4  and  C_5
REMARK    5  A    between atoms: C_5  and  C_6
REMARK    6  A    between atoms: C_6  and  N_7
REMARK    7  A    between atoms: C_8  and  C_10
REMARK    8  A    between atoms: C_15  and  N_16
REMARK    9  A    between atoms: C_17  and  C_19
REMARK                            x       y       z     vdW  Elec       q    Type
REMARK                         _______ _______ _______ _____ _____    ______ ____
ROOT
ATOM      1  C   UNL     1       6.647   5.217  15.985  0.00  0.00    +0.000 A 
ATOM      2  C   UNL     1       7.460   5.186  14.832  0.00  0.00    +0.000 A 
ATOM      3  C   UNL     1       7.012   4.597  13.653  0.00  0.00    +0.000 A 
ATOM      4  C   UNL     1       5.734   4.063  13.605  0.00  0.00    +0.000 A 
ATOM      5  C   UNL     1       4.911   4.111  14.733  0.00  0.00    +0.000 A 
ATOM      6  C   UNL     1       5.346   4.670  15.946  0.00  0.00    +0.000 A 
ENDROOT
BRANCH   1   8
ATOM      7  N   UNL     1       7.653   7.150  17.067  0.00  0.00    +0.000 N 
ATOM      8  C   UNL     1       7.207   5.851  17.215  0.00  0.00    +0.000 C 
ATOM      9  O   UNL     1       7.253   5.226  18.267  0.00  0.00    +0.000 OA
ATOM     10  H   UNL     1       7.769   7.537  16.140  0.00  0.00    +0.000 HD
BRANCH   7  11
ATOM     11  C   UNL     1       8.174   7.945  18.161  0.00  0.00    +0.000 C 
BRANCH  11  12
ATOM     12  C   UNL     1       8.101   9.444  17.883  0.00  0.00    +0.000 C 
BRANCH  12  13
ATOM     13  C   UNL     1       9.301  10.240  18.421  0.00  0.00    +0.000 C 
BRANCH  13  15
ATOM     14  C   UNL     1       9.613  11.316  20.586  0.00  0.00    +0.000 C 
ATOM     15  N   UNL     1       8.951  11.388  19.280  0.00  0.00    +0.000 NA
ATOM     16  C   UNL     1       9.327  12.642  18.617  0.00  0.00    +0.000 C 
ENDBRANCH  13  15
ENDBRANCH  12  13
ENDBRANCH  11  12
ENDBRANCH   7  11
ENDBRANCH   1   8
BRANCH   6  17
ATOM     17  N   UNL     1       4.486   4.704  17.086  0.00  0.00    +0.000 N 
ATOM     18  C   UNL     1       3.973   3.588  17.733  0.00  0.00    +0.000 C 
ATOM     19  O   UNL     1       4.316   2.429  17.502  0.00  0.00    +0.000 OA
ATOM     20  H   UNL     1       4.310   5.632  17.477  0.00  0.00    +0.000 HD
BRANCH  18  21
ATOM     21  C   UNL     1       2.923   3.762  18.780  0.00  0.00    +0.000 A 
ATOM     22  C   UNL     1       2.324   2.566  19.235  0.00  0.00    +0.000 A 
ATOM     23  C   UNL     1       1.369   2.567  20.254  0.00  0.00    +0.000 A 
ATOM     24  C   UNL     1       0.989   3.768  20.836  0.00  0.00    +0.000 A 
ATOM     25  C   UNL     1       1.563   4.961  20.397  0.00  0.00    +0.000 A 
ATOM     26  C   UNL     1       2.534   4.965  19.378  0.00  0.00    +0.000 A 
ATOM     27 CL   UNL     1       3.234   6.494  18.998  0.00  0.00    +0.000 Cl
ENDBRANCH  18  21
ENDBRANCH   6  17
TORSDOF 7
ENDMDL
