MODEL 1
REMARK VINA RESULT:      -6.3      0.000      0.000
REMARK  Name = 
REMARK  3 active torsions:
REMARK  status: ('A' for Active; 'I' for Inactive)
REMARK    1  A    between atoms: C_1  and  C_2
REMARK    2  A    between atoms: N_4  and  C_5
REMARK    3  A    between atoms: C_8  and  C_9
REMARK                            x       y       z     vdW  Elec       q    Type
REMARK                         _______ _______ _______ _____ _____    ______ ____
ROOT
ATOM      1  C   UNL     1      -2.193  11.542  17.764  0.00  0.00    +0.000 C 
ATOM      2  C   UNL     1      -1.101  11.007  18.636  0.00  0.00    +0.000 C 
ATOM      3  N   UNL     1      -0.263  10.101  18.204  0.00  0.00    +0.000 NA
ATOM      4  N   UNL     1       0.623   9.867  19.244  0.00  0.00    +0.000 N 
ATOM      5  C   UNL     1       0.437  10.698  20.358  0.00  0.00    +0.000 C 
ATOM      6  O   UNL     1       1.101  10.794  21.375  0.00  0.00    +0.000 OA
ATOM      7  C   UNL     1      -0.824  11.419  20.034  0.00  0.00    +0.000 C 
ATOM      8  C   UNL     1      -1.554  12.116  20.921  0.00  0.00    +0.000 C 
ATOM      9  S   UNL     1      -1.034  12.470  22.554  0.00  0.00    +0.000 S 
ATOM     10  C   UNL     1      -2.656  12.186  23.293  0.00  0.00    +0.000 C 
ATOM     11  C   UNL     1      -3.691  12.817  22.379  0.00  0.00    +0.000 C 
ATOM     12  S   UNL     1      -3.206  12.608  20.632  0.00  0.00    +0.000 S 
ENDROOT
BRANCH   4  13
ATOM     13  C   UNL     1       1.494   8.753  19.162  0.00  0.00    +0.000 A 
ATOM     14  C   UNL     1       1.555   7.809  20.198  0.00  0.00    +0.000 A 
ATOM     15  C   UNL     1       2.371   6.681  20.104  0.00  0.00    +0.000 A 
ATOM     16  C   UNL     1       3.163   6.474  18.976  0.00  0.00    +0.000 A 
ATOM     17  C   UNL     1       4.069   5.283  18.895  0.00  0.00    +0.000 C 
ATOM     18  C   UNL     1       3.117   7.410  17.937  0.00  0.00    +0.000 A 
ATOM     19  C   UNL     1       2.283   8.532  18.025  0.00  0.00    +0.000 A 
ENDBRANCH   4  13
TORSDOF 1
ENDMDL
MODEL 2
REMARK VINA RESULT:      -6.2      2.916      4.138
REMARK  Name = 
REMARK  3 active torsions:
REMARK  status: ('A' for Active; 'I' for Inactive)
REMARK    1  A    between atoms: C_1  and  C_2
REMARK    2  A    between atoms: N_4  and  C_5
REMARK    3  A    between atoms: C_8  and  C_9
REMARK                            x       y       z     vdW  Elec       q    Type
REMARK                         _______ _______ _______ _____ _____    ______ ____
ROOT
ATOM      1  C   UNL     1       0.853   8.048  21.825  0.00  0.00    +0.000 C 
ATOM      2  C   UNL     1       1.432   8.065  20.445  0.00  0.00    +0.000 C 
ATOM      3  N   UNL     1       2.038   7.019  19.945  0.00  0.00    +0.000 NA
ATOM      4  N   UNL     1       2.410   7.367  18.657  0.00  0.00    +0.000 N 
ATOM      5  C   UNL     1       1.964   8.633  18.250  0.00  0.00    +0.000 C 
ATOM      6  O   UNL     1       2.054   9.175  17.162  0.00  0.00    +0.000 OA
ATOM      7  C   UNL     1       1.389   9.205  19.498  0.00  0.00    +0.000 C 
ATOM      8  C   UNL     1       1.092  10.503  19.676  0.00  0.00    +0.000 C 
ATOM      9  S   UNL     1       1.131  11.701  18.399  0.00  0.00    +0.000 S 
ATOM     10  C   UNL     1       1.862  12.992  19.427  0.00  0.00    +0.000 C 
ATOM     11  C   UNL     1       1.171  12.944  20.779  0.00  0.00    +0.000 C 
ATOM     12  S   UNL     1       0.805  11.218  21.244  0.00  0.00    +0.000 S 
ENDROOT
BRANCH   4  13
ATOM     13  C   UNL     1       3.306   6.525  17.953  0.00  0.00    +0.000 A 
ATOM     14  C   UNL     1       3.076   5.145  17.861  0.00  0.00    +0.000 A 
ATOM     15  C   UNL     1       3.924   4.315  17.126  0.00  0.00    +0.000 A 
ATOM     16  C   UNL     1       5.038   4.843  16.475  0.00  0.00    +0.000 A 
ATOM     17  C   UNL     1       5.971   3.944  15.721  0.00  0.00    +0.000 C 
ATOM     18  C   UNL     1       5.284   6.217  16.563  0.00  0.00    +0.000 A 
ATOM     19  C   UNL     1       4.420   7.052  17.286  0.00  0.00    +0.000 A 
ENDBRANCH   4  13
TORSDOF 1
ENDMDL
MODEL 3
REMARK VINA RESULT:      -6.2      2.939      4.124
REMARK  Name = 
REMARK  3 active torsions:
REMARK  status: ('A' for Active; 'I' for Inactive)
REMARK    1  A    between atoms: C_1  and  C_2
REMARK    2  A    between atoms: N_4  and  C_5
REMARK    3  A    between atoms: C_8  and  C_9
REMARK                            x       y       z     vdW  Elec       q    Type
REMARK                         _______ _______ _______ _____ _____    ______ ____
ROOT
ATOM      1  C   UNL     1       0.890   8.417  21.948  0.00  0.00    +0.000 C 
ATOM      2  C   UNL     1       1.398   8.350  20.543  0.00  0.00    +0.000 C 
ATOM      3  N   UNL     1       1.943   7.262  20.063  0.00  0.00    +0.000 NA
ATOM      4  N   UNL     1       2.260   7.539  18.743  0.00  0.00    +0.000 N 
ATOM      5  C   UNL     1       1.835   8.799  18.299  0.00  0.00    +0.000 C 
ATOM      6  O   UNL     1       1.887   9.288  17.184  0.00  0.00    +0.000 OA
ATOM      7  C   UNL     1       1.344   9.447  19.546  0.00  0.00    +0.000 C 
ATOM      8  C   UNL     1       1.099  10.762  19.677  0.00  0.00    +0.000 C 
ATOM      9  S   UNL     1       1.112  11.898  18.345  0.00  0.00    +0.000 S 
ATOM     10  C   UNL     1       1.936  13.208  19.273  0.00  0.00    +0.000 C 
ATOM     11  C   UNL     1       1.314  13.246  20.658  0.00  0.00    +0.000 C 
ATOM     12  S   UNL     1       0.915  11.557  21.222  0.00  0.00    +0.000 S 
ENDROOT
BRANCH   4  13
ATOM     13  C   UNL     1       3.091   6.635  18.036  0.00  0.00    +0.000 A 
ATOM     14  C   UNL     1       4.277   7.071  17.427  0.00  0.00    +0.000 A 
ATOM     15  C   UNL     1       5.128   6.179  16.773  0.00  0.00    +0.000 A 
ATOM     16  C   UNL     1       4.807   4.825  16.696  0.00  0.00    +0.000 A 
ATOM     17  C   UNL     1       5.701   3.876  15.958  0.00  0.00    +0.000 C 
ATOM     18  C   UNL     1       3.624   4.375  17.293  0.00  0.00    +0.000 A 
ATOM     19  C   UNL     1       2.780   5.270  17.965  0.00  0.00    +0.000 A 
ENDBRANCH   4  13
TORSDOF 1
ENDMDL
MODEL 4
REMARK VINA RESULT:      -6.2      0.223      1.125
REMARK  Name = 
REMARK  3 active torsions:
REMARK  status: ('A' for Active; 'I' for Inactive)
REMARK    1  A    between atoms: C_1  and  C_2
REMARK    2  A    between atoms: N_4  and  C_5
REMARK    3  A    between atoms: C_8  and  C_9
REMARK                            x       y       z     vdW  Elec       q    Type
REMARK                         _______ _______ _______ _____ _____    ______ ____
ROOT
ATOM      1  C   UNL     1      -2.322  11.761  17.853  0.00  0.00    +0.000 C 
ATOM      2  C   UNL     1      -1.222  11.181  18.684  0.00  0.00    +0.000 C 
ATOM      3  N   UNL     1      -0.391  10.296  18.198  0.00  0.00    +0.000 NA
ATOM      4  N   UNL     1       0.506  10.009  19.215  0.00  0.00    +0.000 N 
ATOM      5  C   UNL     1       0.335  10.785  20.370  0.00  0.00    +0.000 C 
ATOM      6  O   UNL     1       1.011  10.828  21.383  0.00  0.00    +0.000 OA
ATOM      7  C   UNL     1      -0.928  11.523  20.097  0.00  0.00    +0.000 C 
ATOM      8  C   UNL     1      -1.646  12.177  21.026  0.00  0.00    +0.000 C 
ATOM      9  S   UNL     1      -1.106  12.449  22.669  0.00  0.00    +0.000 S 
ATOM     10  C   UNL     1      -2.720  12.133  23.412  0.00  0.00    +0.000 C 
ATOM     11  C   UNL     1      -3.763  12.810  22.541  0.00  0.00    +0.000 C 
ATOM     12  S   UNL     1      -3.299  12.686  20.781  0.00  0.00    +0.000 S 
ENDROOT
BRANCH   4  13
ATOM     13  C   UNL     1       1.373   8.898  19.068  0.00  0.00    +0.000 A 
ATOM     14  C   UNL     1       2.165   8.749  17.921  0.00  0.00    +0.000 A 
ATOM     15  C   UNL     1       3.061   7.686  17.791  0.00  0.00    +0.000 A 
ATOM     16  C   UNL     1       3.175   6.732  18.800  0.00  0.00    +0.000 A 
ATOM     17  C   UNL     1       4.107   5.569  18.641  0.00  0.00    +0.000 C 
ATOM     18  C   UNL     1       2.386   6.864  19.948  0.00  0.00    +0.000 A 
ATOM     19  C   UNL     1       1.502   7.943  20.085  0.00  0.00    +0.000 A 
ENDBRANCH   4  13
TORSDOF 1
ENDMDL
MODEL 5
REMARK VINA RESULT:      -6.1      5.793      8.170
REMARK  Name = 
REMARK  3 active torsions:
REMARK  status: ('A' for Active; 'I' for Inactive)
REMARK    1  A    between atoms: C_1  and  C_2
REMARK    2  A    between atoms: N_4  and  C_5
REMARK    3  A    between atoms: C_8  and  C_9
REMARK                            x       y       z     vdW  Elec       q    Type
REMARK                         _______ _______ _______ _____ _____    ______ ____
ROOT
ATOM      1  C   UNL     1       2.655   7.356  18.619  0.00  0.00    +0.000 C 
ATOM      2  C   UNL     1       3.532   6.257  18.108  0.00  0.00    +0.000 C 
ATOM      3  N   UNL     1       4.169   6.363  16.970  0.00  0.00    +0.000 NA
ATOM      4  N   UNL     1       4.904   5.197  16.828  0.00  0.00    +0.000 N 
ATOM      5  C   UNL     1       4.836   4.335  17.932  0.00  0.00    +0.000 C 
ATOM      6  O   UNL     1       5.433   3.293  18.142  0.00  0.00    +0.000 OA
ATOM      7  C   UNL     1       3.799   4.968  18.791  0.00  0.00    +0.000 C 
ATOM      8  C   UNL     1       3.188   4.361  19.823  0.00  0.00    +0.000 C 
ATOM      9  S   UNL     1       3.662   2.802  20.462  0.00  0.00    +0.000 S 
ATOM     10  C   UNL     1       1.971   2.222  20.711  0.00  0.00    +0.000 C 
ATOM     11  C   UNL     1       1.174   3.377  21.291  0.00  0.00    +0.000 C 
ATOM     12  S   UNL     1       1.718   4.956  20.555  0.00  0.00    +0.000 S 
ENDROOT
BRANCH   4  13
ATOM     13  C   UNL     1       5.500   4.912  15.575  0.00  0.00    +0.000 A 
ATOM     14  C   UNL     1       6.796   5.357  15.276  0.00  0.00    +0.000 A 
ATOM     15  C   UNL     1       7.412   5.037  14.065  0.00  0.00    +0.000 A 
ATOM     16  C   UNL     1       6.739   4.277  13.110  0.00  0.00    +0.000 A 
ATOM     17  C   UNL     1       7.386   3.970  11.794  0.00  0.00    +0.000 C 
ATOM     18  C   UNL     1       5.443   3.831  13.391  0.00  0.00    +0.000 A 
ATOM     19  C   UNL     1       4.834   4.137  14.616  0.00  0.00    +0.000 A 
ENDBRANCH   4  13
TORSDOF 1
ENDMDL
MODEL 6
REMARK VINA RESULT:      -6.1      2.247      3.111
REMARK  Name = 
REMARK  3 active torsions:
REMARK  status: ('A' for Active; 'I' for Inactive)
REMARK    1  A    between atoms: C_1  and  C_2
REMARK    2  A    between atoms: N_4  and  C_5
REMARK    3  A    between atoms: C_8  and  C_9
REMARK                            x       y       z     vdW  Elec       q    Type
REMARK                         _______ _______ _______ _____ _____    ______ ____
ROOT
ATOM      1  C   UNL     1       0.318   9.545  22.810  0.00  0.00    +0.000 C 
ATOM      2  C   UNL     1       0.701   9.313  21.382  0.00  0.00    +0.000 C 
ATOM      3  N   UNL     1       1.351   8.240  21.014  0.00  0.00    +0.000 NA
ATOM      4  N   UNL     1       1.505   8.334  19.640  0.00  0.00    +0.000 N 
ATOM      5  C   UNL     1       0.865   9.440  19.062  0.00  0.00    +0.000 C 
ATOM      6  O   UNL     1       0.745   9.742  17.888  0.00  0.00    +0.000 OA
ATOM      7  C   UNL     1       0.400  10.215  20.244  0.00  0.00    +0.000 C 
ATOM      8  C   UNL     1      -0.018  11.492  20.203  0.00  0.00    +0.000 C 
ATOM      9  S   UNL     1      -0.289  12.386  18.723  0.00  0.00    +0.000 S 
ATOM     10  C   UNL     1       0.419  13.925  19.346  0.00  0.00    +0.000 C 
ATOM     11  C   UNL     1      -0.074  14.110  20.770  0.00  0.00    +0.000 C 
ATOM     12  S   UNL     1      -0.174  12.500  21.622  0.00  0.00    +0.000 S 
ENDROOT
BRANCH   4  13
ATOM     13  C   UNL     1       2.389   7.439  18.988  0.00  0.00    +0.000 A 
ATOM     14  C   UNL     1       2.458   6.091  19.365  0.00  0.00    +0.000 A 
ATOM     15  C   UNL     1       3.287   5.190  18.695  0.00  0.00    +0.000 A 
ATOM     16  C   UNL     1       4.086   5.621  17.637  0.00  0.00    +0.000 A 
ATOM     17  C   UNL     1       5.007   4.662  16.945  0.00  0.00    +0.000 C 
ATOM     18  C   UNL     1       4.034   6.965  17.253  0.00  0.00    +0.000 A 
ATOM     19  C   UNL     1       3.185   7.863  17.915  0.00  0.00    +0.000 A 
ENDBRANCH   4  13
TORSDOF 1
ENDMDL
MODEL 7
REMARK VINA RESULT:      -6.1      5.805      8.163
REMARK  Name = 
REMARK  3 active torsions:
REMARK  status: ('A' for Active; 'I' for Inactive)
REMARK    1  A    between atoms: C_1  and  C_2
REMARK    2  A    between atoms: N_4  and  C_5
REMARK    3  A    between atoms: C_8  and  C_9
REMARK                            x       y       z     vdW  Elec       q    Type
REMARK                         _______ _______ _______ _____ _____    ______ ____
ROOT
ATOM      1  C   UNL     1       2.626   7.317  18.592  0.00  0.00    +0.000 C 
ATOM      2  C   UNL     1       3.523   6.222  18.107  0.00  0.00    +0.000 C 
ATOM      3  N   UNL     1       4.180   6.325  16.981  0.00  0.00    +0.000 NA
ATOM      4  N   UNL     1       4.928   5.165  16.863  0.00  0.00    +0.000 N 
ATOM      5  C   UNL     1       4.847   4.311  17.973  0.00  0.00    +0.000 C 
ATOM      6  O   UNL     1       5.448   3.276  18.202  0.00  0.00    +0.000 OA
ATOM      7  C   UNL     1       3.788   4.941  18.806  0.00  0.00    +0.000 C 
ATOM      8  C   UNL     1       3.162   4.337  19.830  0.00  0.00    +0.000 C 
ATOM      9  S   UNL     1       3.637   2.787  20.491  0.00  0.00    +0.000 S 
ATOM     10  C   UNL     1       1.947   2.194  20.712  0.00  0.00    +0.000 C 
ATOM     11  C   UNL     1       1.128   3.346  21.267  0.00  0.00    +0.000 C 
ATOM     12  S   UNL     1       1.672   4.924  20.529  0.00  0.00    +0.000 S 
ENDROOT
BRANCH   4  13
ATOM     13  C   UNL     1       5.551   4.876  15.624  0.00  0.00    +0.000 A 
ATOM     14  C   UNL     1       4.883   4.138  14.636  0.00  0.00    +0.000 A 
ATOM     15  C   UNL     1       5.468   3.894  13.393  0.00  0.00    +0.000 A 
ATOM     16  C   UNL     1       6.748   4.367  13.110  0.00  0.00    +0.000 A 
ATOM     17  C   UNL     1       7.391   4.067  11.789  0.00  0.00    +0.000 C 
ATOM     18  C   UNL     1       7.430   5.098  14.088  0.00  0.00    +0.000 A 
ATOM     19  C   UNL     1       6.833   5.360  15.328  0.00  0.00    +0.000 A 
ENDBRANCH   4  13
TORSDOF 1
ENDMDL
MODEL 8
REMARK VINA RESULT:      -6.1      5.137      8.595
REMARK  Name = 
REMARK  3 active torsions:
REMARK  status: ('A' for Active; 'I' for Inactive)
REMARK    1  A    between atoms: C_1  and  C_2
REMARK    2  A    between atoms: N_4  and  C_5
REMARK    3  A    between atoms: C_8  and  C_9
REMARK                            x       y       z     vdW  Elec       q    Type
REMARK                         _______ _______ _______ _____ _____    ______ ____
ROOT
ATOM      1  C   UNL     1       2.692   3.001  17.398  0.00  0.00    +0.000 C 
ATOM      2  C   UNL     1       3.085   4.422  17.651  0.00  0.00    +0.000 C 
ATOM      3  N   UNL     1       2.288   5.251  18.274  0.00  0.00    +0.000 NA
ATOM      4  N   UNL     1       2.974   6.452  18.366  0.00  0.00    +0.000 N 
ATOM      5  C   UNL     1       4.290   6.402  17.883  0.00  0.00    +0.000 C 
ATOM      6  O   UNL     1       5.159   7.256  17.909  0.00  0.00    +0.000 OA
ATOM      7  C   UNL     1       4.370   5.051  17.264  0.00  0.00    +0.000 C 
ATOM      8  C   UNL     1       5.343   4.653  16.425  0.00  0.00    +0.000 C 
ATOM      9  S   UNL     1       6.789   5.582  16.091  0.00  0.00    +0.000 S 
ATOM     10  C   UNL     1       6.803   5.207  14.326  0.00  0.00    +0.000 C 
ATOM     11  C   UNL     1       6.460   3.736  14.169  0.00  0.00    +0.000 C 
ATOM     12  S   UNL     1       5.216   3.238  15.408  0.00  0.00    +0.000 S 
ENDROOT
BRANCH   4  13
ATOM     13  C   UNL     1       2.270   7.613  18.769  0.00  0.00    +0.000 A 
ATOM     14  C   UNL     1       1.943   8.615  17.844  0.00  0.00    +0.000 A 
ATOM     15  C   UNL     1       1.204   9.737  18.220  0.00  0.00    +0.000 A 
ATOM     16  C   UNL     1       0.786   9.897  19.540  0.00  0.00    +0.000 A 
ATOM     17  C   UNL     1       0.028  11.123  19.951  0.00  0.00    +0.000 C 
ATOM     18  C   UNL     1       1.110   8.909  20.476  0.00  0.00    +0.000 A 
ATOM     19  C   UNL     1       1.835   7.773  20.091  0.00  0.00    +0.000 A 
ENDBRANCH   4  13
TORSDOF 1
ENDMDL
MODEL 9
REMARK VINA RESULT:      -6.1      2.099      3.113
REMARK  Name = 
REMARK  3 active torsions:
REMARK  status: ('A' for Active; 'I' for Inactive)
REMARK    1  A    between atoms: C_1  and  C_2
REMARK    2  A    between atoms: N_4  and  C_5
REMARK    3  A    between atoms: C_8  and  C_9
REMARK                            x       y       z     vdW  Elec       q    Type
REMARK                         _______ _______ _______ _____ _____    ______ ____
ROOT
ATOM      1  C   UNL     1      -0.039   9.397  22.970  0.00  0.00    +0.000 C 
ATOM      2  C   UNL     1       0.430   9.269  21.556  0.00  0.00    +0.000 C 
ATOM      3  N   UNL     1       1.112   8.228  21.153  0.00  0.00    +0.000 NA
ATOM      4  N   UNL     1       1.345   8.419  19.800  0.00  0.00    +0.000 N 
ATOM      5  C   UNL     1       0.728   9.559  19.264  0.00  0.00    +0.000 C 
ATOM      6  O   UNL     1       0.674   9.941  18.108  0.00  0.00    +0.000 OA
ATOM      7  C   UNL     1       0.186  10.246  20.467  0.00  0.00    +0.000 C 
ATOM      8  C   UNL     1      -0.244  11.519  20.489  0.00  0.00    +0.000 C 
ATOM      9  S   UNL     1      -0.437  12.513  19.061  0.00  0.00    +0.000 S 
ATOM     10  C   UNL     1       0.215  14.010  19.831  0.00  0.00    +0.000 C 
ATOM     11  C   UNL     1      -0.363  14.091  21.232  0.00  0.00    +0.000 C 
ATOM     12  S   UNL     1      -0.493  12.424  21.963  0.00  0.00    +0.000 S 
ENDROOT
BRANCH   4  13
ATOM     13  C   UNL     1       2.277   7.579  19.141  0.00  0.00    +0.000 A 
ATOM     14  C   UNL     1       2.922   7.998  17.969  0.00  0.00    +0.000 A 
ATOM     15  C   UNL     1       3.880   7.200  17.342  0.00  0.00    +0.000 A 
ATOM     16  C   UNL     1       4.206   5.949  17.863  0.00  0.00    +0.000 A 
ATOM     17  C   UNL     1       5.204   5.076  17.166  0.00  0.00    +0.000 C 
ATOM     18  C   UNL     1       3.566   5.514  19.029  0.00  0.00    +0.000 A 
ATOM     19  C   UNL     1       2.619   6.326  19.667  0.00  0.00    +0.000 A 
ENDBRANCH   4  13
TORSDOF 1
ENDMDL
