MODEL 1
REMARK VINA RESULT:      -5.6      0.000      0.000
REMARK  Name = 
REMARK  21 active torsions:
REMARK  status: ('A' for Active; 'I' for Inactive)
REMARK    1  A    between atoms: C_1  and  C_2
REMARK    2  A    between atoms: C_2  and  C_3
REMARK    3  A    between atoms: C_3  and  C_4
REMARK    4  A    between atoms: C_4  and  C_5
REMARK    5  A    between atoms: C_5  and  C_6
REMARK    6  A    between atoms: C_6  and  C_7
REMARK    7  A    between atoms: C_7  and  C_8
REMARK    8  A    between atoms: C_8  and  C_9
REMARK    9  A    between atoms: C_9  and  C_10
REMARK   10  A    between atoms: C_10  and  C_11
REMARK   11  A    between atoms: C_11  and  C_12
REMARK   12  A    between atoms: C_12  and  C_13
REMARK   13  A    between atoms: C_13  and  C_14
REMARK   14  A    between atoms: C_14  and  N_15
REMARK   15  A    between atoms: N_15  and  C_16
REMARK   16  A    between atoms: N_15  and  C_17
REMARK   17  A    between atoms: N_15  and  C_18
REMARK   18  A    between atoms: C_18  and  C_19
REMARK   19  A    between atoms: C_19  and  C_20
REMARK   20  A    between atoms: C_20  and  N_21
REMARK   21  A    between atoms: C_22  and  C_23
REMARK                            x       y       z     vdW  Elec       q    Type
REMARK                         _______ _______ _______ _____ _____    ______ ____
ROOT
ATOM      1  C   UNL     1       7.743   7.319  17.772  0.00  0.00    +0.000 C 
ENDROOT
BRANCH   1   2
ATOM      2  C   UNL     1       6.357   6.915  17.262  0.00  0.00    +0.000 C 
BRANCH   2   3
ATOM      3  N   UNL     1       6.219   5.411  16.971  0.00  0.00    +0.000 N 
ATOM      4  C   UNL     1       6.149   5.178  15.466  0.00  0.00    +0.000 C 
ATOM      5  C   UNL     1       7.411   4.655  17.571  0.00  0.00    +0.000 C 
BRANCH   3   6
ATOM      6  C   UNL     1       4.901   4.960  17.665  0.00  0.00    +0.000 C 
BRANCH   6   7
ATOM      7  C   UNL     1       4.199   3.850  16.908  0.00  0.00    +0.000 C 
BRANCH   7   8
ATOM      8  C   UNL     1       3.721   2.730  17.823  0.00  0.00    +0.000 C 
BRANCH   8   9
ATOM      9  N   UNL     1       3.037   3.284  18.970  0.00  0.00    +0.000 N 
ATOM     10  C   UNL     1       1.671   3.459  19.001  0.00  0.00    +0.000 C 
ATOM     11  C   UNL     1       1.148   4.115  20.250  0.00  0.00    +0.000 C 
ATOM     12  O   UNL     1       0.937   3.154  18.066  0.00  0.00    +0.000 OA
ATOM     13  H   UNL     1       3.583   3.501  19.791  0.00  0.00    +0.000 HD
ENDBRANCH   8   9
ENDBRANCH   7   8
ENDBRANCH   6   7
ENDBRANCH   3   6
ENDBRANCH   2   3
ENDBRANCH   1   2
BRANCH   1  14
ATOM     14  C   UNL     1       7.933   8.828  17.742  0.00  0.00    +0.000 C 
BRANCH  14  15
ATOM     15  C   UNL     1       8.888   9.268  18.842  0.00  0.00    +0.000 C 
BRANCH  15  16
ATOM     16  C   UNL     1       9.221  10.733  18.733  0.00  0.00    +0.000 C 
BRANCH  16  17
ATOM     17  C   UNL     1      10.362  11.055  19.690  0.00  0.00    +0.000 C 
BRANCH  17  18
ATOM     18  C   UNL     1      11.188  12.141  19.061  0.00  0.00    +0.000 C 
BRANCH  18  19
ATOM     19  C   UNL     1      11.262  12.062  17.542  0.00  0.00    +0.000 C 
BRANCH  19  20
ATOM     20  C   UNL     1      10.825  13.438  17.078  0.00  0.00    +0.000 C 
BRANCH  20  21
ATOM     21  C   UNL     1      10.584  14.485  18.148  0.00  0.00    +0.000 C 
BRANCH  21  22
ATOM     22  C   UNL     1       9.144  15.016  18.011  0.00  0.00    +0.000 C 
BRANCH  22  23
ATOM     23  C   UNL     1       8.206  14.458  19.094  0.00  0.00    +0.000 C 
BRANCH  23  25
ATOM     24  C   UNL     1       8.247  13.482  21.481  0.00  0.00    +0.000 C 
ATOM     25  C   UNL     1       8.710  14.577  20.530  0.00  0.00    +0.000 C 
ENDBRANCH  23  25
ENDBRANCH  22  23
ENDBRANCH  21  22
ENDBRANCH  20  21
ENDBRANCH  19  20
ENDBRANCH  18  19
ENDBRANCH  17  18
ENDBRANCH  16  17
ENDBRANCH  15  16
ENDBRANCH  14  15
ENDBRANCH   1  14
TORSDOF 17
ENDMDL
MODEL 2
REMARK VINA RESULT:      -5.5      4.938      8.993
REMARK  Name = 
REMARK  21 active torsions:
REMARK  status: ('A' for Active; 'I' for Inactive)
REMARK    1  A    between atoms: C_1  and  C_2
REMARK    2  A    between atoms: C_2  and  C_3
REMARK    3  A    between atoms: C_3  and  C_4
REMARK    4  A    between atoms: C_4  and  C_5
REMARK    5  A    between atoms: C_5  and  C_6
REMARK    6  A    between atoms: C_6  and  C_7
REMARK    7  A    between atoms: C_7  and  C_8
REMARK    8  A    between atoms: C_8  and  C_9
REMARK    9  A    between atoms: C_9  and  C_10
REMARK   10  A    between atoms: C_10  and  C_11
REMARK   11  A    between atoms: C_11  and  C_12
REMARK   12  A    between atoms: C_12  and  C_13
REMARK   13  A    between atoms: C_13  and  C_14
REMARK   14  A    between atoms: C_14  and  N_15
REMARK   15  A    between atoms: N_15  and  C_16
REMARK   16  A    between atoms: N_15  and  C_17
REMARK   17  A    between atoms: N_15  and  C_18
REMARK   18  A    between atoms: C_18  and  C_19
REMARK   19  A    between atoms: C_19  and  C_20
REMARK   20  A    between atoms: C_20  and  N_21
REMARK   21  A    between atoms: C_22  and  C_23
REMARK                            x       y       z     vdW  Elec       q    Type
REMARK                         _______ _______ _______ _____ _____    ______ ____
ROOT
ATOM      1  C   UNL     1       4.308   5.591  17.898  0.00  0.00    +0.000 C 
ENDROOT
BRANCH   1   2
ATOM      2  C   UNL     1       5.136   6.271  16.804  0.00  0.00    +0.000 C 
BRANCH   2   3
ATOM      3  N   UNL     1       6.656   6.144  17.009  0.00  0.00    +0.000 N 
ATOM      4  C   UNL     1       7.259   7.519  17.276  0.00  0.00    +0.000 C 
ATOM      5  C   UNL     1       6.943   5.201  18.183  0.00  0.00    +0.000 C 
BRANCH   3   6
ATOM      6  C   UNL     1       7.216   5.538  15.691  0.00  0.00    +0.000 C 
BRANCH   6   7
ATOM      7  C   UNL     1       6.603   4.189  15.367  0.00  0.00    +0.000 C 
BRANCH   7   8
ATOM      8  C   UNL     1       5.765   4.218  14.096  0.00  0.00    +0.000 C 
BRANCH   8   9
ATOM      9  N   UNL     1       6.141   3.122  13.229  0.00  0.00    +0.000 N 
ATOM     10  C   UNL     1       6.855   3.313  12.066  0.00  0.00    +0.000 C 
ATOM     11  C   UNL     1       7.091   2.065  11.260  0.00  0.00    +0.000 C 
ATOM     12  O   UNL     1       7.227   4.419  11.685  0.00  0.00    +0.000 OA
ATOM     13  H   UNL     1       5.912   2.184  13.521  0.00  0.00    +0.000 HD
ENDBRANCH   8   9
ENDBRANCH   7   8
ENDBRANCH   6   7
ENDBRANCH   3   6
ENDBRANCH   2   3
ENDBRANCH   1   2
BRANCH   1  14
ATOM     14  C   UNL     1       3.599   4.351  17.375  0.00  0.00    +0.000 C 
BRANCH  14  15
ATOM     15  C   UNL     1       4.202   3.094  17.986  0.00  0.00    +0.000 C 
BRANCH  15  16
ATOM     16  C   UNL     1       3.155   2.034  18.214  0.00  0.00    +0.000 C 
BRANCH  16  17
ATOM     17  C   UNL     1       1.797   2.579  17.789  0.00  0.00    +0.000 C 
BRANCH  17  18
ATOM     18  C   UNL     1       0.879   2.482  18.975  0.00  0.00    +0.000 C 
BRANCH  18  19
ATOM     19  C   UNL     1       1.599   2.272  20.300  0.00  0.00    +0.000 C 
BRANCH  19  20
ATOM     20  C   UNL     1       1.248   3.504  21.111  0.00  0.00    +0.000 C 
BRANCH  20  21
ATOM     21  C   UNL     1       2.279   4.614  21.166  0.00  0.00    +0.000 C 
BRANCH  21  22
ATOM     22  C   UNL     1       1.840   5.749  20.221  0.00  0.00    +0.000 C 
BRANCH  22  23
ATOM     23  C   UNL     1       1.306   6.973  20.983  0.00  0.00    +0.000 C 
BRANCH  23  25
ATOM     24  C   UNL     1       1.945   8.291  18.861  0.00  0.00    +0.000 C 
ATOM     25  C   UNL     1       1.587   8.328  20.339  0.00  0.00    +0.000 C 
ENDBRANCH  23  25
ENDBRANCH  22  23
ENDBRANCH  21  22
ENDBRANCH  20  21
ENDBRANCH  19  20
ENDBRANCH  18  19
ENDBRANCH  17  18
ENDBRANCH  16  17
ENDBRANCH  15  16
ENDBRANCH  14  15
ENDBRANCH   1  14
TORSDOF 17
ENDMDL
MODEL 3
REMARK VINA RESULT:      -5.5      5.764      8.175
REMARK  Name = 
REMARK  21 active torsions:
REMARK  status: ('A' for Active; 'I' for Inactive)
REMARK    1  A    between atoms: C_1  and  C_2
REMARK    2  A    between atoms: C_2  and  C_3
REMARK    3  A    between atoms: C_3  and  C_4
REMARK    4  A    between atoms: C_4  and  C_5
REMARK    5  A    between atoms: C_5  and  C_6
REMARK    6  A    between atoms: C_6  and  C_7
REMARK    7  A    between atoms: C_7  and  C_8
REMARK    8  A    between atoms: C_8  and  C_9
REMARK    9  A    between atoms: C_9  and  C_10
REMARK   10  A    between atoms: C_10  and  C_11
REMARK   11  A    between atoms: C_11  and  C_12
REMARK   12  A    between atoms: C_12  and  C_13
REMARK   13  A    between atoms: C_13  and  C_14
REMARK   14  A    between atoms: C_14  and  N_15
REMARK   15  A    between atoms: N_15  and  C_16
REMARK   16  A    between atoms: N_15  and  C_17
REMARK   17  A    between atoms: N_15  and  C_18
REMARK   18  A    between atoms: C_18  and  C_19
REMARK   19  A    between atoms: C_19  and  C_20
REMARK   20  A    between atoms: C_20  and  N_21
REMARK   21  A    between atoms: C_22  and  C_23
REMARK                            x       y       z     vdW  Elec       q    Type
REMARK                         _______ _______ _______ _____ _____    ______ ____
ROOT
ATOM      1  C   UNL     1       3.818   3.440  17.580  0.00  0.00    +0.000 C 
ENDROOT
BRANCH   1   2
ATOM      2  C   UNL     1       4.224   4.882  17.264  0.00  0.00    +0.000 C 
BRANCH   2   3
ATOM      3  N   UNL     1       5.726   5.054  16.980  0.00  0.00    +0.000 N 
ATOM      4  C   UNL     1       6.009   6.486  16.538  0.00  0.00    +0.000 C 
ATOM      5  C   UNL     1       6.533   4.718  18.240  0.00  0.00    +0.000 C 
BRANCH   3   6
ATOM      6  C   UNL     1       6.066   4.045  15.846  0.00  0.00    +0.000 C 
BRANCH   6   7
ATOM      7  C   UNL     1       6.271   4.727  14.507  0.00  0.00    +0.000 C 
BRANCH   7   8
ATOM      8  C   UNL     1       6.338   3.738  13.351  0.00  0.00    +0.000 C 
BRANCH   8   9
ATOM      9  N   UNL     1       5.153   3.854  12.530  0.00  0.00    +0.000 N 
ATOM     10  C   UNL     1       4.811   2.906  11.590  0.00  0.00    +0.000 C 
ATOM     11  C   UNL     1       3.584   3.233  10.783  0.00  0.00    +0.000 C 
ATOM     12  O   UNL     1       5.479   1.897  11.386  0.00  0.00    +0.000 OA
ATOM     13  H   UNL     1       4.535   4.634  12.694  0.00  0.00    +0.000 HD
ENDBRANCH   8   9
ENDBRANCH   7   8
ENDBRANCH   6   7
ENDBRANCH   3   6
ENDBRANCH   2   3
ENDBRANCH   1   2
BRANCH   1  14
ATOM     14  C   UNL     1       2.342   3.200  17.297  0.00  0.00    +0.000 C 
BRANCH  14  15
ATOM     15  C   UNL     1       1.478   4.026  18.239  0.00  0.00    +0.000 C 
BRANCH  15  16
ATOM     16  C   UNL     1       1.705   3.641  19.678  0.00  0.00    +0.000 C 
BRANCH  16  17
ATOM     17  C   UNL     1       1.472   4.861  20.560  0.00  0.00    +0.000 C 
BRANCH  17  18
ATOM     18  C   UNL     1       2.518   5.881  20.209  0.00  0.00    +0.000 C 
BRANCH  18  19
ATOM     19  C   UNL     1       1.965   7.282  19.983  0.00  0.00    +0.000 C 
BRANCH  19  20
ATOM     20  C   UNL     1       2.517   7.683  18.629  0.00  0.00    +0.000 C 
BRANCH  20  21
ATOM     21  C   UNL     1       1.623   8.523  17.738  0.00  0.00    +0.000 C 
BRANCH  21  22
ATOM     22  C   UNL     1       1.323   9.857  18.449  0.00  0.00    +0.000 C 
BRANCH  22  23
ATOM     23  C   UNL     1      -0.155   9.989  18.852  0.00  0.00    +0.000 C 
BRANCH  23  25
ATOM     24  C   UNL     1      -2.405  10.987  18.084  0.00  0.00    +0.000 C 
ATOM     25  C   UNL     1      -0.904  11.173  18.246  0.00  0.00    +0.000 C 
ENDBRANCH  23  25
ENDBRANCH  22  23
ENDBRANCH  21  22
ENDBRANCH  20  21
ENDBRANCH  19  20
ENDBRANCH  18  19
ENDBRANCH  17  18
ENDBRANCH  16  17
ENDBRANCH  15  16
ENDBRANCH  14  15
ENDBRANCH   1  14
TORSDOF 17
ENDMDL
MODEL 4
REMARK VINA RESULT:      -5.4      5.729      8.465
REMARK  Name = 
REMARK  21 active torsions:
REMARK  status: ('A' for Active; 'I' for Inactive)
REMARK    1  A    between atoms: C_1  and  C_2
REMARK    2  A    between atoms: C_2  and  C_3
REMARK    3  A    between atoms: C_3  and  C_4
REMARK    4  A    between atoms: C_4  and  C_5
REMARK    5  A    between atoms: C_5  and  C_6
REMARK    6  A    between atoms: C_6  and  C_7
REMARK    7  A    between atoms: C_7  and  C_8
REMARK    8  A    between atoms: C_8  and  C_9
REMARK    9  A    between atoms: C_9  and  C_10
REMARK   10  A    between atoms: C_10  and  C_11
REMARK   11  A    between atoms: C_11  and  C_12
REMARK   12  A    between atoms: C_12  and  C_13
REMARK   13  A    between atoms: C_13  and  C_14
REMARK   14  A    between atoms: C_14  and  N_15
REMARK   15  A    between atoms: N_15  and  C_16
REMARK   16  A    between atoms: N_15  and  C_17
REMARK   17  A    between atoms: N_15  and  C_18
REMARK   18  A    between atoms: C_18  and  C_19
REMARK   19  A    between atoms: C_19  and  C_20
REMARK   20  A    between atoms: C_20  and  N_21
REMARK   21  A    between atoms: C_22  and  C_23
REMARK                            x       y       z     vdW  Elec       q    Type
REMARK                         _______ _______ _______ _____ _____    ______ ____
ROOT
ATOM      1  C   UNL     1       4.888   4.179  19.463  0.00  0.00    +0.000 C 
ENDROOT
BRANCH   1   2
ATOM      2  C   UNL     1       5.301   4.205  17.988  0.00  0.00    +0.000 C 
BRANCH   2   3
ATOM      3  N   UNL     1       6.418   5.216  17.676  0.00  0.00    +0.000 N 
ATOM      4  C   UNL     1       5.813   6.588  17.400  0.00  0.00    +0.000 C 
ATOM      5  C   UNL     1       7.392   5.293  18.858  0.00  0.00    +0.000 C 
BRANCH   3   6
ATOM      6  C   UNL     1       7.151   4.668  16.418  0.00  0.00    +0.000 C 
BRANCH   6   7
ATOM      7  C   UNL     1       6.447   5.044  15.129  0.00  0.00    +0.000 C 
BRANCH   7   8
ATOM      8  C   UNL     1       6.643   4.006  14.032  0.00  0.00    +0.000 C 
BRANCH   8   9
ATOM      9  N   UNL     1       5.435   3.880  13.247  0.00  0.00    +0.000 N 
ATOM     10  C   UNL     1       5.394   3.177  12.062  0.00  0.00    +0.000 C 
ATOM     11  C   UNL     1       4.069   3.216  11.351  0.00  0.00    +0.000 C 
ATOM     12  O   UNL     1       6.373   2.606  11.591  0.00  0.00    +0.000 OA
ATOM     13  H   UNL     1       4.585   4.280  13.614  0.00  0.00    +0.000 HD
ENDBRANCH   8   9
ENDBRANCH   7   8
ENDBRANCH   6   7
ENDBRANCH   3   6
ENDBRANCH   2   3
ENDBRANCH   1   2
BRANCH   1  14
ATOM     14  C   UNL     1       4.217   2.864  19.833  0.00  0.00    +0.000 C 
BRANCH  14  15
ATOM     15  C   UNL     1       3.178   3.085  20.923  0.00  0.00    +0.000 C 
BRANCH  15  16
ATOM     16  C   UNL     1       1.908   2.326  20.637  0.00  0.00    +0.000 C 
BRANCH  16  17
ATOM     17  C   UNL     1       1.831   2.033  19.143  0.00  0.00    +0.000 C 
BRANCH  17  18
ATOM     18  C   UNL     1       0.864   3.012  18.539  0.00  0.00    +0.000 C 
BRANCH  18  19
ATOM     19  C   UNL     1       1.506   3.999  17.573  0.00  0.00    +0.000 C 
BRANCH  19  20
ATOM     20  C   UNL     1       1.678   5.261  18.394  0.00  0.00    +0.000 C 
BRANCH  20  21
ATOM     21  C   UNL     1       2.409   6.418  17.741  0.00  0.00    +0.000 C 
BRANCH  21  22
ATOM     22  C   UNL     1       2.384   7.627  18.697  0.00  0.00    +0.000 C 
BRANCH  22  23
ATOM     23  C   UNL     1       2.210   8.961  17.952  0.00  0.00    +0.000 C 
BRANCH  23  25
ATOM     24  C   UNL     1       0.609  10.449  19.320  0.00  0.00    +0.000 C 
ATOM     25  C   UNL     1       0.833   9.610  18.071  0.00  0.00    +0.000 C 
ENDBRANCH  23  25
ENDBRANCH  22  23
ENDBRANCH  21  22
ENDBRANCH  20  21
ENDBRANCH  19  20
ENDBRANCH  18  19
ENDBRANCH  17  18
ENDBRANCH  16  17
ENDBRANCH  15  16
ENDBRANCH  14  15
ENDBRANCH   1  14
TORSDOF 17
ENDMDL
MODEL 5
REMARK VINA RESULT:      -5.4      4.820      8.771
REMARK  Name = 
REMARK  21 active torsions:
REMARK  status: ('A' for Active; 'I' for Inactive)
REMARK    1  A    between atoms: C_1  and  C_2
REMARK    2  A    between atoms: C_2  and  C_3
REMARK    3  A    between atoms: C_3  and  C_4
REMARK    4  A    between atoms: C_4  and  C_5
REMARK    5  A    between atoms: C_5  and  C_6
REMARK    6  A    between atoms: C_6  and  C_7
REMARK    7  A    between atoms: C_7  and  C_8
REMARK    8  A    between atoms: C_8  and  C_9
REMARK    9  A    between atoms: C_9  and  C_10
REMARK   10  A    between atoms: C_10  and  C_11
REMARK   11  A    between atoms: C_11  and  C_12
REMARK   12  A    between atoms: C_12  and  C_13
REMARK   13  A    between atoms: C_13  and  C_14
REMARK   14  A    between atoms: C_14  and  N_15
REMARK   15  A    between atoms: N_15  and  C_16
REMARK   16  A    between atoms: N_15  and  C_17
REMARK   17  A    between atoms: N_15  and  C_18
REMARK   18  A    between atoms: C_18  and  C_19
REMARK   19  A    between atoms: C_19  and  C_20
REMARK   20  A    between atoms: C_20  and  N_21
REMARK   21  A    between atoms: C_22  and  C_23
REMARK                            x       y       z     vdW  Elec       q    Type
REMARK                         _______ _______ _______ _____ _____    ______ ____
ROOT
ATOM      1  C   UNL     1       5.246   5.282  19.456  0.00  0.00    +0.000 C 
ENDROOT
BRANCH   1   2
ATOM      2  C   UNL     1       6.676   5.402  18.921  0.00  0.00    +0.000 C 
BRANCH   2   3
ATOM      3  N   UNL     1       6.785   6.220  17.623  0.00  0.00    +0.000 N 
ATOM      4  C   UNL     1       5.395   6.636  17.154  0.00  0.00    +0.000 C 
ATOM      5  C   UNL     1       7.657   7.459  17.863  0.00  0.00    +0.000 C 
BRANCH   3   6
ATOM      6  C   UNL     1       7.465   5.284  16.583  0.00  0.00    +0.000 C 
BRANCH   6   7
ATOM      7  C   UNL     1       6.458   4.487  15.777  0.00  0.00    +0.000 C 
BRANCH   7   8
ATOM      8  C   UNL     1       6.566   4.751  14.281  0.00  0.00    +0.000 C 
BRANCH   8   9
ATOM      9  N   UNL     1       6.072   3.613  13.539  0.00  0.00    +0.000 N 
ATOM     10  C   UNL     1       6.438   3.367  12.234  0.00  0.00    +0.000 C 
ATOM     11  C   UNL     1       5.767   2.176  11.604  0.00  0.00    +0.000 C 
ATOM     12  O   UNL     1       7.211   4.088  11.610  0.00  0.00    +0.000 OA
ATOM     13  H   UNL     1       5.478   2.953  14.018  0.00  0.00    +0.000 HD
ENDBRANCH   8   9
ENDBRANCH   7   8
ENDBRANCH   6   7
ENDBRANCH   3   6
ENDBRANCH   2   3
ENDBRANCH   1   2
BRANCH   1  14
ATOM     14  C   UNL     1       4.832   3.828  19.626  0.00  0.00    +0.000 C 
BRANCH  14  15
ATOM     15  C   UNL     1       4.589   3.181  18.270  0.00  0.00    +0.000 C 
BRANCH  15  16
ATOM     16  C   UNL     1       3.691   1.977  18.385  0.00  0.00    +0.000 C 
BRANCH  16  17
ATOM     17  C   UNL     1       3.149   1.897  19.808  0.00  0.00    +0.000 C 
BRANCH  17  18
ATOM     18  C   UNL     1       1.671   2.162  19.745  0.00  0.00    +0.000 C 
BRANCH  18  19
ATOM     19  C   UNL     1       1.171   3.131  20.809  0.00  0.00    +0.000 C 
BRANCH  19  20
ATOM     20  C   UNL     1       1.111   4.466  20.093  0.00  0.00    +0.000 C 
BRANCH  20  21
ATOM     21  C   UNL     1       1.303   4.455  18.589  0.00  0.00    +0.000 C 
BRANCH  21  22
ATOM     22  C   UNL     1       1.911   5.803  18.154  0.00  0.00    +0.000 C 
BRANCH  22  23
ATOM     23  C   UNL     1       2.277   6.695  19.351  0.00  0.00    +0.000 C 
BRANCH  23  25
ATOM     24  C   UNL     1       2.206   8.709  17.742  0.00  0.00    +0.000 C 
ATOM     25  C   UNL     1       2.032   8.190  19.162  0.00  0.00    +0.000 C 
ENDBRANCH  23  25
ENDBRANCH  22  23
ENDBRANCH  21  22
ENDBRANCH  20  21
ENDBRANCH  19  20
ENDBRANCH  18  19
ENDBRANCH  17  18
ENDBRANCH  16  17
ENDBRANCH  15  16
ENDBRANCH  14  15
ENDBRANCH   1  14
TORSDOF 17
ENDMDL
MODEL 6
REMARK VINA RESULT:      -5.4      6.171      8.681
REMARK  Name = 
REMARK  21 active torsions:
REMARK  status: ('A' for Active; 'I' for Inactive)
REMARK    1  A    between atoms: C_1  and  C_2
REMARK    2  A    between atoms: C_2  and  C_3
REMARK    3  A    between atoms: C_3  and  C_4
REMARK    4  A    between atoms: C_4  and  C_5
REMARK    5  A    between atoms: C_5  and  C_6
REMARK    6  A    between atoms: C_6  and  C_7
REMARK    7  A    between atoms: C_7  and  C_8
REMARK    8  A    between atoms: C_8  and  C_9
REMARK    9  A    between atoms: C_9  and  C_10
REMARK   10  A    between atoms: C_10  and  C_11
REMARK   11  A    between atoms: C_11  and  C_12
REMARK   12  A    between atoms: C_12  and  C_13
REMARK   13  A    between atoms: C_13  and  C_14
REMARK   14  A    between atoms: C_14  and  N_15
REMARK   15  A    between atoms: N_15  and  C_16
REMARK   16  A    between atoms: N_15  and  C_17
REMARK   17  A    between atoms: N_15  and  C_18
REMARK   18  A    between atoms: C_18  and  C_19
REMARK   19  A    between atoms: C_19  and  C_20
REMARK   20  A    between atoms: C_20  and  N_21
REMARK   21  A    between atoms: C_22  and  C_23
REMARK                            x       y       z     vdW  Elec       q    Type
REMARK                         _______ _______ _______ _____ _____    ______ ____
ROOT
ATOM      1  C   UNL     1       3.023   3.750  17.072  0.00  0.00    +0.000 C 
ENDROOT
BRANCH   1   2
ATOM      2  C   UNL     1       4.548   3.800  17.208  0.00  0.00    +0.000 C 
BRANCH   2   3
ATOM      3  N   UNL     1       5.081   5.150  17.718  0.00  0.00    +0.000 N 
ATOM      4  C   UNL     1       3.966   6.190  17.693  0.00  0.00    +0.000 C 
ATOM      5  C   UNL     1       5.624   4.988  19.142  0.00  0.00    +0.000 C 
BRANCH   3   6
ATOM      6  C   UNL     1       6.233   5.548  16.751  0.00  0.00    +0.000 C 
BRANCH   6   7
ATOM      7  C   UNL     1       6.862   4.345  16.076  0.00  0.00    +0.000 C 
BRANCH   7   8
ATOM      8  C   UNL     1       7.100   4.568  14.588  0.00  0.00    +0.000 C 
BRANCH   8   9
ATOM      9  N   UNL     1       6.260   3.681  13.813  0.00  0.00    +0.000 N 
ATOM     10  C   UNL     1       6.376   3.564  12.445  0.00  0.00    +0.000 C 
ATOM     11  C   UNL     1       5.370   2.646  11.804  0.00  0.00    +0.000 C 
ATOM     12  O   UNL     1       7.198   4.195  11.788  0.00  0.00    +0.000 OA
ATOM     13  H   UNL     1       5.604   3.095  14.306  0.00  0.00    +0.000 HD
ENDBRANCH   8   9
ENDBRANCH   7   8
ENDBRANCH   6   7
ENDBRANCH   3   6
ENDBRANCH   2   3
ENDBRANCH   1   2
BRANCH   1  14
ATOM     14  C   UNL     1       2.445   2.493  17.706  0.00  0.00    +0.000 C 
BRANCH  14  15
ATOM     15  C   UNL     1       1.052   2.765  18.254  0.00  0.00    +0.000 C 
BRANCH  15  16
ATOM     16  C   UNL     1       0.902   2.249  19.662  0.00  0.00    +0.000 C 
BRANCH  16  17
ATOM     17  C   UNL     1       0.896   3.431  20.625  0.00  0.00    +0.000 C 
BRANCH  17  18
ATOM     18  C   UNL     1       2.326   3.770  20.935  0.00  0.00    +0.000 C 
BRANCH  18  19
ATOM     19  C   UNL     1       2.541   5.219  21.354  0.00  0.00    +0.000 C 
BRANCH  19  20
ATOM     20  C   UNL     1       1.517   5.992  20.546  0.00  0.00    +0.000 C 
BRANCH  20  21
ATOM     21  C   UNL     1       1.851   7.430  20.200  0.00  0.00    +0.000 C 
BRANCH  21  22
ATOM     22  C   UNL     1       1.381   8.343  21.349  0.00  0.00    +0.000 C 
BRANCH  22  23
ATOM     23  C   UNL     1       0.708   9.628  20.841  0.00  0.00    +0.000 C 
BRANCH  23  25
ATOM     24  C   UNL     1      -0.397   9.666  23.171  0.00  0.00    +0.000 C 
ATOM     25  C   UNL     1      -0.365  10.218  21.753  0.00  0.00    +0.000 C 
ENDBRANCH  23  25
ENDBRANCH  22  23
ENDBRANCH  21  22
ENDBRANCH  20  21
ENDBRANCH  19  20
ENDBRANCH  18  19
ENDBRANCH  17  18
ENDBRANCH  16  17
ENDBRANCH  15  16
ENDBRANCH  14  15
ENDBRANCH   1  14
TORSDOF 17
ENDMDL
MODEL 7
REMARK VINA RESULT:      -5.4      5.015      8.642
REMARK  Name = 
REMARK  21 active torsions:
REMARK  status: ('A' for Active; 'I' for Inactive)
REMARK    1  A    between atoms: C_1  and  C_2
REMARK    2  A    between atoms: C_2  and  C_3
REMARK    3  A    between atoms: C_3  and  C_4
REMARK    4  A    between atoms: C_4  and  C_5
REMARK    5  A    between atoms: C_5  and  C_6
REMARK    6  A    between atoms: C_6  and  C_7
REMARK    7  A    between atoms: C_7  and  C_8
REMARK    8  A    between atoms: C_8  and  C_9
REMARK    9  A    between atoms: C_9  and  C_10
REMARK   10  A    between atoms: C_10  and  C_11
REMARK   11  A    between atoms: C_11  and  C_12
REMARK   12  A    between atoms: C_12  and  C_13
REMARK   13  A    between atoms: C_13  and  C_14
REMARK   14  A    between atoms: C_14  and  N_15
REMARK   15  A    between atoms: N_15  and  C_16
REMARK   16  A    between atoms: N_15  and  C_17
REMARK   17  A    between atoms: N_15  and  C_18
REMARK   18  A    between atoms: C_18  and  C_19
REMARK   19  A    between atoms: C_19  and  C_20
REMARK   20  A    between atoms: C_20  and  N_21
REMARK   21  A    between atoms: C_22  and  C_23
REMARK                            x       y       z     vdW  Elec       q    Type
REMARK                         _______ _______ _______ _____ _____    ______ ____
ROOT
ATOM      1  C   UNL     1       5.500   4.161  18.760  0.00  0.00    +0.000 C 
ENDROOT
BRANCH   1   2
ATOM      2  C   UNL     1       5.694   5.615  18.318  0.00  0.00    +0.000 C 
BRANCH   2   3
ATOM      3  N   UNL     1       6.638   5.775  17.114  0.00  0.00    +0.000 N 
ATOM      4  C   UNL     1       7.327   7.134  17.173  0.00  0.00    +0.000 C 
ATOM      5  C   UNL     1       7.680   4.650  17.120  0.00  0.00    +0.000 C 
BRANCH   3   6
ATOM      6  C   UNL     1       5.740   5.661  15.848  0.00  0.00    +0.000 C 
BRANCH   6   7
ATOM      7  C   UNL     1       5.951   4.356  15.106  0.00  0.00    +0.000 C 
BRANCH   7   8
ATOM      8  C   UNL     1       6.653   4.551  13.768  0.00  0.00    +0.000 C 
BRANCH   8   9
ATOM      9  N   UNL     1       6.694   3.300  13.042  0.00  0.00    +0.000 N 
ATOM     10  C   UNL     1       5.753   2.967  12.092  0.00  0.00    +0.000 C 
ATOM     11  C   UNL     1       5.919   1.596  11.495  0.00  0.00    +0.000 C 
ATOM     12  O   UNL     1       4.820   3.705  11.789  0.00  0.00    +0.000 OA
ATOM     13  H   UNL     1       7.471   2.679  13.209  0.00  0.00    +0.000 HD
ENDBRANCH   8   9
ENDBRANCH   7   8
ENDBRANCH   6   7
ENDBRANCH   3   6
ENDBRANCH   2   3
ENDBRANCH   1   2
BRANCH   1  14
ATOM     14  C   UNL     1       4.079   3.681  18.501  0.00  0.00    +0.000 C 
BRANCH  14  15
ATOM     15  C   UNL     1       3.896   2.259  19.010  0.00  0.00    +0.000 C 
BRANCH  15  16
ATOM     16  C   UNL     1       2.514   1.739  18.708  0.00  0.00    +0.000 C 
BRANCH  16  17
ATOM     17  C   UNL     1       1.596   2.917  18.403  0.00  0.00    +0.000 C 
BRANCH  17  18
ATOM     18  C   UNL     1       0.652   3.068  19.561  0.00  0.00    +0.000 C 
BRANCH  18  19
ATOM     19  C   UNL     1       1.276   3.725  20.786  0.00  0.00    +0.000 C 
BRANCH  19  20
ATOM     20  C   UNL     1       1.061   5.209  20.559  0.00  0.00    +0.000 C 
BRANCH  20  21
ATOM     21  C   UNL     1       2.265   6.026  20.135  0.00  0.00    +0.000 C 
BRANCH  21  22
ATOM     22  C   UNL     1       1.864   7.513  20.076  0.00  0.00    +0.000 C 
BRANCH  22  23
ATOM     23  C   UNL     1       1.010   7.938  21.283  0.00  0.00    +0.000 C 
BRANCH  23  25
ATOM     24  C   UNL     1       0.450  10.328  20.493  0.00  0.00    +0.000 C 
ATOM     25  C   UNL     1       1.002   9.433  21.593  0.00  0.00    +0.000 C 
ENDBRANCH  23  25
ENDBRANCH  22  23
ENDBRANCH  21  22
ENDBRANCH  20  21
ENDBRANCH  19  20
ENDBRANCH  18  19
ENDBRANCH  17  18
ENDBRANCH  16  17
ENDBRANCH  15  16
ENDBRANCH  14  15
ENDBRANCH   1  14
TORSDOF 17
ENDMDL
MODEL 8
REMARK VINA RESULT:      -5.3      7.047     10.755
REMARK  Name = 
REMARK  21 active torsions:
REMARK  status: ('A' for Active; 'I' for Inactive)
REMARK    1  A    between atoms: C_1  and  C_2
REMARK    2  A    between atoms: C_2  and  C_3
REMARK    3  A    between atoms: C_3  and  C_4
REMARK    4  A    between atoms: C_4  and  C_5
REMARK    5  A    between atoms: C_5  and  C_6
REMARK    6  A    between atoms: C_6  and  C_7
REMARK    7  A    between atoms: C_7  and  C_8
REMARK    8  A    between atoms: C_8  and  C_9
REMARK    9  A    between atoms: C_9  and  C_10
REMARK   10  A    between atoms: C_10  and  C_11
REMARK   11  A    between atoms: C_11  and  C_12
REMARK   12  A    between atoms: C_12  and  C_13
REMARK   13  A    between atoms: C_13  and  C_14
REMARK   14  A    between atoms: C_14  and  N_15
REMARK   15  A    between atoms: N_15  and  C_16
REMARK   16  A    between atoms: N_15  and  C_17
REMARK   17  A    between atoms: N_15  and  C_18
REMARK   18  A    between atoms: C_18  and  C_19
REMARK   19  A    between atoms: C_19  and  C_20
REMARK   20  A    between atoms: C_20  and  N_21
REMARK   21  A    between atoms: C_22  and  C_23
REMARK                            x       y       z     vdW  Elec       q    Type
REMARK                         _______ _______ _______ _____ _____    ______ ____
ROOT
ATOM      1  C   UNL     1       0.195   9.628  17.933  0.00  0.00    +0.000 C 
ENDROOT
BRANCH   1   2
ATOM      2  C   UNL     1      -0.255  10.400  19.176  0.00  0.00    +0.000 C 
BRANCH   2   3
ATOM      3  N   UNL     1      -1.364  11.429  18.898  0.00  0.00    +0.000 N 
ATOM      4  C   UNL     1      -1.909  11.973  20.215  0.00  0.00    +0.000 C 
ATOM      5  C   UNL     1      -0.808  12.572  18.041  0.00  0.00    +0.000 C 
BRANCH   3   6
ATOM      6  C   UNL     1      -2.470  10.665  18.113  0.00  0.00    +0.000 C 
BRANCH   6   7
ATOM      7  C   UNL     1      -3.027  11.478  16.961  0.00  0.00    +0.000 C 
BRANCH   7   8
ATOM      8  C   UNL     1      -4.524  11.728  17.092  0.00  0.00    +0.000 C 
BRANCH   8   9
ATOM      9  N   UNL     1      -5.122  10.723  17.942  0.00  0.00    +0.000 N 
ATOM     10  C   UNL     1      -6.413  10.827  18.412  0.00  0.00    +0.000 C 
ATOM     11  C   UNL     1      -6.837   9.721  19.340  0.00  0.00    +0.000 C 
ATOM     12  O   UNL     1      -7.148  11.772  18.141  0.00  0.00    +0.000 OA
ATOM     13  H   UNL     1      -4.585   9.895  18.151  0.00  0.00    +0.000 HD
ENDBRANCH   8   9
ENDBRANCH   7   8
ENDBRANCH   6   7
ENDBRANCH   3   6
ENDBRANCH   2   3
ENDBRANCH   1   2
BRANCH   1  14
ATOM     14  C   UNL     1       1.706   9.442  17.906  0.00  0.00    +0.000 C 
BRANCH  14  15
ATOM     15  C   UNL     1       2.118   8.301  18.824  0.00  0.00    +0.000 C 
BRANCH  15  16
ATOM     16  C   UNL     1       2.466   7.061  18.042  0.00  0.00    +0.000 C 
BRANCH  16  17
ATOM     17  C   UNL     1       3.499   6.256  18.823  0.00  0.00    +0.000 C 
BRANCH  17  18
ATOM     18  C   UNL     1       4.608   5.901  17.874  0.00  0.00    +0.000 C 
BRANCH  18  19
ATOM     19  C   UNL     1       4.341   4.648  17.051  0.00  0.00    +0.000 C 
BRANCH  19  20
ATOM     20  C   UNL     1       4.266   3.538  18.082  0.00  0.00    +0.000 C 
BRANCH  20  21
ATOM     21  C   UNL     1       3.260   2.431  17.835  0.00  0.00    +0.000 C 
BRANCH  21  22
ATOM     22  C   UNL     1       1.848   3.044  17.781  0.00  0.00    +0.000 C 
BRANCH  22  23
ATOM     23  C   UNL     1       1.002   2.682  19.013  0.00  0.00    +0.000 C 
BRANCH  23  25
ATOM     24  C   UNL     1       1.505   2.861  21.536  0.00  0.00    +0.000 C 
ATOM     25  C   UNL     1       1.191   3.581  20.232  0.00  0.00    +0.000 C 
ENDBRANCH  23  25
ENDBRANCH  22  23
ENDBRANCH  21  22
ENDBRANCH  20  21
ENDBRANCH  19  20
ENDBRANCH  18  19
ENDBRANCH  17  18
ENDBRANCH  16  17
ENDBRANCH  15  16
ENDBRANCH  14  15
ENDBRANCH   1  14
TORSDOF 17
ENDMDL
MODEL 9
REMARK VINA RESULT:      -5.2      1.534      2.217
REMARK  Name = 
REMARK  21 active torsions:
REMARK  status: ('A' for Active; 'I' for Inactive)
REMARK    1  A    between atoms: C_1  and  C_2
REMARK    2  A    between atoms: C_2  and  C_3
REMARK    3  A    between atoms: C_3  and  C_4
REMARK    4  A    between atoms: C_4  and  C_5
REMARK    5  A    between atoms: C_5  and  C_6
REMARK    6  A    between atoms: C_6  and  C_7
REMARK    7  A    between atoms: C_7  and  C_8
REMARK    8  A    between atoms: C_8  and  C_9
REMARK    9  A    between atoms: C_9  and  C_10
REMARK   10  A    between atoms: C_10  and  C_11
REMARK   11  A    between atoms: C_11  and  C_12
REMARK   12  A    between atoms: C_12  and  C_13
REMARK   13  A    between atoms: C_13  and  C_14
REMARK   14  A    between atoms: C_14  and  N_15
REMARK   15  A    between atoms: N_15  and  C_16
REMARK   16  A    between atoms: N_15  and  C_17
REMARK   17  A    between atoms: N_15  and  C_18
REMARK   18  A    between atoms: C_18  and  C_19
REMARK   19  A    between atoms: C_19  and  C_20
REMARK   20  A    between atoms: C_20  and  N_21
REMARK   21  A    between atoms: C_22  and  C_23
REMARK                            x       y       z     vdW  Elec       q    Type
REMARK                         _______ _______ _______ _____ _____    ______ ____
ROOT
ATOM      1  C   UNL     1       7.135   7.229  17.144  0.00  0.00    +0.000 C 
ENDROOT
BRANCH   1   2
ATOM      2  C   UNL     1       6.503   5.925  17.638  0.00  0.00    +0.000 C 
BRANCH   2   3
ATOM      3  N   UNL     1       5.327   5.440  16.773  0.00  0.00    +0.000 N 
ATOM      4  C   UNL     1       5.290   6.222  15.464  0.00  0.00    +0.000 C 
ATOM      5  C   UNL     1       5.475   3.940  16.490  0.00  0.00    +0.000 C 
BRANCH   3   6
ATOM      6  C   UNL     1       4.043   5.699  17.612  0.00  0.00    +0.000 C 
BRANCH   6   7
ATOM      7  C   UNL     1       3.096   4.515  17.600  0.00  0.00    +0.000 C 
BRANCH   7   8
ATOM      8  C   UNL     1       1.779   4.813  18.305  0.00  0.00    +0.000 C 
BRANCH   8   9
ATOM      9  N   UNL     1       1.496   3.787  19.284  0.00  0.00    +0.000 N 
ATOM     10  C   UNL     1       1.674   3.987  20.635  0.00  0.00    +0.000 C 
ATOM     11  C   UNL     1       1.396   2.782  21.493  0.00  0.00    +0.000 C 
ATOM     12  O   UNL     1       2.077   5.047  21.105  0.00  0.00    +0.000 OA
ATOM     13  H   UNL     1       1.108   2.914  18.960  0.00  0.00    +0.000 HD
ENDBRANCH   8   9
ENDBRANCH   7   8
ENDBRANCH   6   7
ENDBRANCH   3   6
ENDBRANCH   2   3
ENDBRANCH   1   2
BRANCH   1  14
ATOM     14  C   UNL     1       8.115   7.796  18.161  0.00  0.00    +0.000 C 
BRANCH  14  15
ATOM     15  C   UNL     1       8.242   9.304  17.996  0.00  0.00    +0.000 C 
BRANCH  15  16
ATOM     16  C   UNL     1       9.134   9.902  19.053  0.00  0.00    +0.000 C 
BRANCH  16  17
ATOM     17  C   UNL     1       9.873  11.096  18.460  0.00  0.00    +0.000 C 
BRANCH  17  18
ATOM     18  C   UNL     1      10.992  11.448  19.399  0.00  0.00    +0.000 C 
BRANCH  18  19
ATOM     19  C   UNL     1      10.942  12.882  19.910  0.00  0.00    +0.000 C 
BRANCH  19  20
ATOM     20  C   UNL     1      10.090  12.798  21.162  0.00  0.00    +0.000 C 
BRANCH  20  21
ATOM     21  C   UNL     1       9.325  14.044  21.564  0.00  0.00    +0.000 C 
BRANCH  21  22
ATOM     22  C   UNL     1       8.114  14.209  20.625  0.00  0.00    +0.000 C 
BRANCH  22  23
ATOM     23  C   UNL     1       8.252  15.429  19.699  0.00  0.00    +0.000 C 
BRANCH  23  25
ATOM     24  C   UNL     1       7.696  13.831  17.753  0.00  0.00    +0.000 C 
ATOM     25  C   UNL     1       8.365  15.119  18.208  0.00  0.00    +0.000 C 
ENDBRANCH  23  25
ENDBRANCH  22  23
ENDBRANCH  21  22
ENDBRANCH  20  21
ENDBRANCH  19  20
ENDBRANCH  18  19
ENDBRANCH  17  18
ENDBRANCH  16  17
ENDBRANCH  15  16
ENDBRANCH  14  15
ENDBRANCH   1  14
TORSDOF 17
ENDMDL
