MODEL 1
REMARK VINA RESULT:      -8.0      0.000      0.000
REMARK  Name = 
REMARK  10 active torsions:
REMARK  status: ('A' for Active; 'I' for Inactive)
REMARK    1  A    between atoms: C_2  and  O_3
REMARK    2  A    between atoms: C_2  and  C_4
REMARK    3  A    between atoms: C_4  and  N_5
REMARK    4  A    between atoms: C_12  and  N_13
REMARK    5  A    between atoms: N_13  and  CA_14
REMARK    6  A    between atoms: CA_14  and  C_15
REMARK    7  A    between atoms: CA_14  and  C_23
REMARK    8  A    between atoms: C_15  and  C_16
REMARK    9  A    between atoms: C_16  and  C_17
REMARK   10  A    between atoms: C_23  and  OXT_25
REMARK                            x       y       z     vdW  Elec       q    Type
REMARK                         _______ _______ _______ _____ _____    ______ ____
ROOT
ATOM      1  N   UNL     1       4.067   2.601  20.047  0.00  0.00    +0.000 N 
ATOM      2  C   UNL     1       3.095   2.746  21.134  0.00  0.00    +0.000 C 
ATOM      3  C   UNL     1       1.629   2.563  20.713  0.00  0.00    +0.000 C 
ATOM      4  C   UNL     1       1.017   3.564  19.728  0.00  0.00    +0.000 C 
ATOM      5  C   UNL     1       0.916   5.023  20.169  0.00  0.00    +0.000 C 
ATOM      6  C   UNL     1       2.188   5.832  20.417  0.00  0.00    +0.000 C 
ATOM      7  C   UNL     1       3.175   5.927  19.248  0.00  0.00    +0.000 C 
ATOM      8  C   UNL     1       4.404   5.012  19.351  0.00  0.00    +0.000 C 
ATOM      9  C   UNL     1       4.059   3.528  18.999  0.00  0.00    +0.000 C 
ATOM     10  O   UNL     1       3.894   3.174  17.828  0.00  0.00    +0.000 OA
ENDROOT
BRANCH   8  11
ATOM     11  N   UNL     1       5.455   5.379  18.377  0.00  0.00    +0.000 NA
ATOM     12  H   UNL     1       5.499   6.403  18.281  0.00  0.00    +0.000 HD
BRANCH  11  13
ATOM     13  CA  UNL     1       6.815   4.814  18.484  0.00  0.00    +0.000 C 
BRANCH  13  14
ATOM     14  C   UNL     1       7.714   5.844  19.239  0.00  0.00    +0.000 C 
ATOM     15  O   UNL     1       8.153   6.877  18.749  0.00  0.00    +0.000 OA
BRANCH  14  16
ATOM     16  OXT UNL     1       7.959   5.523  20.531  0.00  0.00    +0.000 OA
ATOM     17  HXT UNL     1       7.454   4.765  20.875  0.00  0.00    +0.000 HD
ENDBRANCH  14  16
ENDBRANCH  13  14
BRANCH  13  18
ATOM     18  C   UNL     1       7.414   4.505  17.090  0.00  0.00    +0.000 C 
BRANCH  18  19
ATOM     19  C   UNL     1       6.541   5.133  15.998  0.00  0.00    +0.000 C 
BRANCH  19  20
ATOM     20  C   UNL     1       6.713   4.797  14.544  0.00  0.00    +0.000 A 
ATOM     21  C   UNL     1       7.648   5.347  13.669  0.00  0.00    +0.000 A 
ATOM     22  C   UNL     1       7.680   4.923  12.333  0.00  0.00    +0.000 A 
ATOM     23  C   UNL     1       6.785   3.954  11.863  0.00  0.00    +0.000 A 
ATOM     24  C   UNL     1       5.841   3.417  12.724  0.00  0.00    +0.000 A 
ATOM     25  C   UNL     1       5.806   3.837  14.054  0.00  0.00    +0.000 A 
ENDBRANCH  19  20
ENDBRANCH  18  19
ENDBRANCH  13  18
ENDBRANCH  11  13
ENDBRANCH   8  11
BRANCH   1  26
ATOM     26  C   UNL     1       4.422   1.208  19.691  0.00  0.00    +0.000 C 
BRANCH  26  28
ATOM     27  O   UNL     1       5.732   1.122  21.743  0.00  0.00    +0.000 OA
ATOM     28  C   UNL     1       5.421   0.605  20.681  0.00  0.00    +0.000 C 
BRANCH  28  29
ATOM     29  O   UNL     1       5.915  -0.596  20.287  0.00  0.00    +0.000 OA
ATOM     30  H   UNL     1       6.385  -0.490  19.434  0.00  0.00    +0.000 HD
ENDBRANCH  28  29
ENDBRANCH  26  28
ENDBRANCH   1  26
TORSDOF 10
ENDMDL
MODEL 2
REMARK VINA RESULT:      -7.8      3.981      7.817
REMARK  Name = 
REMARK  10 active torsions:
REMARK  status: ('A' for Active; 'I' for Inactive)
REMARK    1  A    between atoms: C_2  and  O_3
REMARK    2  A    between atoms: C_2  and  C_4
REMARK    3  A    between atoms: C_4  and  N_5
REMARK    4  A    between atoms: C_12  and  N_13
REMARK    5  A    between atoms: N_13  and  CA_14
REMARK    6  A    between atoms: CA_14  and  C_15
REMARK    7  A    between atoms: CA_14  and  C_23
REMARK    8  A    between atoms: C_15  and  C_16
REMARK    9  A    between atoms: C_16  and  C_17
REMARK   10  A    between atoms: C_23  and  OXT_25
REMARK                            x       y       z     vdW  Elec       q    Type
REMARK                         _______ _______ _______ _____ _____    ______ ____
ROOT
ATOM      1  N   UNL     1       4.422   3.960  18.602  0.00  0.00    +0.000 N 
ATOM      2  C   UNL     1       4.125   2.635  19.155  0.00  0.00    +0.000 C 
ATOM      3  C   UNL     1       3.059   1.843  18.384  0.00  0.00    +0.000 C 
ATOM      4  C   UNL     1       1.629   2.391  18.334  0.00  0.00    +0.000 C 
ATOM      5  C   UNL     1       0.870   2.515  19.653  0.00  0.00    +0.000 C 
ATOM      6  C   UNL     1       1.357   3.493  20.721  0.00  0.00    +0.000 C 
ATOM      7  C   UNL     1       1.485   4.960  20.296  0.00  0.00    +0.000 C 
ATOM      8  C   UNL     1       2.916   5.435  20.003  0.00  0.00    +0.000 C 
ATOM      9  C   UNL     1       3.423   4.939  18.610  0.00  0.00    +0.000 C 
ATOM     10  O   UNL     1       3.035   5.470  17.566  0.00  0.00    +0.000 OA
ENDROOT
BRANCH   8  11
ATOM     11  N   UNL     1       3.007   6.910  19.917  0.00  0.00    +0.000 NA
ATOM     12  H   UNL     1       3.672   7.174  19.176  0.00  0.00    +0.000 HD
BRANCH  11  13
ATOM     13  CA  UNL     1       1.789   7.738  19.833  0.00  0.00    +0.000 C 
BRANCH  13  14
ATOM     14  C   UNL     1       1.858   8.579  18.520  0.00  0.00    +0.000 C 
ATOM     15  O   UNL     1       1.050   9.441  18.199  0.00  0.00    +0.000 OA
BRANCH  14  16
ATOM     16  OXT UNL     1       2.933   8.304  17.742  0.00  0.00    +0.000 OA
ATOM     17  HXT UNL     1       2.739   8.154  16.801  0.00  0.00    +0.000 HD
ENDBRANCH  14  16
ENDBRANCH  13  14
BRANCH  13  18
ATOM     18  C   UNL     1       1.653   8.675  21.059  0.00  0.00    +0.000 C 
BRANCH  18  19
ATOM     19  C   UNL     1       0.195   8.704  21.532  0.00  0.00    +0.000 C 
BRANCH  19  20
ATOM     20  C   UNL     1      -0.521   9.989  21.838  0.00  0.00    +0.000 A 
ATOM     21  C   UNL     1      -0.987  10.403  23.085  0.00  0.00    +0.000 A 
ATOM     22  C   UNL     1      -1.640  11.638  23.205  0.00  0.00    +0.000 A 
ATOM     23  C   UNL     1      -1.830  12.464  22.091  0.00  0.00    +0.000 A 
ATOM     24  C   UNL     1      -1.385  12.049  20.845  0.00  0.00    +0.000 A 
ATOM     25  C   UNL     1      -0.737  10.820  20.722  0.00  0.00    +0.000 A 
ENDBRANCH  19  20
ENDBRANCH  18  19
ENDBRANCH  13  18
ENDBRANCH  11  13
ENDBRANCH   8  11
BRANCH   1  26
ATOM     26  C   UNL     1       5.352   3.976  17.449  0.00  0.00    +0.000 C 
BRANCH  26  28
ATOM     27  O   UNL     1       7.566   4.885  16.997  0.00  0.00    +0.000 OA
ATOM     28  C   UNL     1       6.695   4.611  17.810  0.00  0.00    +0.000 C 
BRANCH  28  29
ATOM     29  O   UNL     1       6.828   4.884  19.133  0.00  0.00    +0.000 OA
ATOM     30  H   UNL     1       6.768   4.049  19.644  0.00  0.00    +0.000 HD
ENDBRANCH  28  29
ENDBRANCH  26  28
ENDBRANCH   1  26
TORSDOF 10
ENDMDL
MODEL 3
REMARK VINA RESULT:      -7.7      3.382      7.121
REMARK  Name = 
REMARK  10 active torsions:
REMARK  status: ('A' for Active; 'I' for Inactive)
REMARK    1  A    between atoms: C_2  and  O_3
REMARK    2  A    between atoms: C_2  and  C_4
REMARK    3  A    between atoms: C_4  and  N_5
REMARK    4  A    between atoms: C_12  and  N_13
REMARK    5  A    between atoms: N_13  and  CA_14
REMARK    6  A    between atoms: CA_14  and  C_15
REMARK    7  A    between atoms: CA_14  and  C_23
REMARK    8  A    between atoms: C_15  and  C_16
REMARK    9  A    between atoms: C_16  and  C_17
REMARK   10  A    between atoms: C_23  and  OXT_25
REMARK                            x       y       z     vdW  Elec       q    Type
REMARK                         _______ _______ _______ _____ _____    ______ ____
ROOT
ATOM      1  N   UNL     1       6.602   6.600  17.473  0.00  0.00    +0.000 N 
ATOM      2  C   UNL     1       7.051   5.255  17.845  0.00  0.00    +0.000 C 
ATOM      3  C   UNL     1       7.185   4.275  16.671  0.00  0.00    +0.000 C 
ATOM      4  C   UNL     1       5.923   3.883  15.894  0.00  0.00    +0.000 C 
ATOM      5  C   UNL     1       4.826   3.138  16.651  0.00  0.00    +0.000 C 
ATOM      6  C   UNL     1       4.078   3.836  17.787  0.00  0.00    +0.000 C 
ATOM      7  C   UNL     1       3.377   5.152  17.436  0.00  0.00    +0.000 C 
ATOM      8  C   UNL     1       4.110   6.426  17.883  0.00  0.00    +0.000 C 
ATOM      9  C   UNL     1       5.316   6.765  16.947  0.00  0.00    +0.000 C 
ATOM     10  O   UNL     1       5.136   7.262  15.832  0.00  0.00    +0.000 OA
ENDROOT
BRANCH   8  11
ATOM     11  N   UNL     1       3.244   7.624  17.805  0.00  0.00    +0.000 NA
ATOM     12  H   UNL     1       3.008   7.819  16.821  0.00  0.00    +0.000 HD
BRANCH  11  13
ATOM     13  CA  UNL     1       2.044   7.745  18.655  0.00  0.00    +0.000 C 
BRANCH  13  14
ATOM     14  C   UNL     1       1.535   9.219  18.575  0.00  0.00    +0.000 C 
ATOM     15  O   UNL     1       0.942   9.803  19.473  0.00  0.00    +0.000 OA
BRANCH  14  16
ATOM     16  OXT UNL     1       1.832   9.844  17.411  0.00  0.00    +0.000 OA
ATOM     17  HXT UNL     1       1.134   9.816  16.732  0.00  0.00    +0.000 HD
ENDBRANCH  14  16
ENDBRANCH  13  14
BRANCH  13  18
ATOM     18  C   UNL     1       2.349   7.366  20.126  0.00  0.00    +0.000 C 
BRANCH  18  19
ATOM     19  C   UNL     1       1.286   6.389  20.641  0.00  0.00    +0.000 C 
BRANCH  19  20
ATOM     20  C   UNL     1       1.434   4.900  20.501  0.00  0.00    +0.000 A 
ATOM     21  C   UNL     1       0.706   4.070  19.650  0.00  0.00    +0.000 A 
ATOM     22  C   UNL     1       0.966   2.692  19.638  0.00  0.00    +0.000 A 
ATOM     23  C   UNL     1       1.946   2.136  20.468  0.00  0.00    +0.000 A 
ATOM     24  C   UNL     1       2.660   2.955  21.330  0.00  0.00    +0.000 A 
ATOM     25  C   UNL     1       2.403   4.326  21.345  0.00  0.00    +0.000 A 
ENDBRANCH  19  20
ENDBRANCH  18  19
ENDBRANCH  13  18
ENDBRANCH  11  13
ENDBRANCH   8  11
BRANCH   1  26
ATOM     26  C   UNL     1       7.651   7.498  16.939  0.00  0.00    +0.000 C 
BRANCH  26  28
ATOM     27  O   UNL     1       7.913   9.725  17.890  0.00  0.00    +0.000 OA
ATOM     28  C   UNL     1       8.107   8.522  17.980  0.00  0.00    +0.000 C 
BRANCH  28  29
ATOM     29  O   UNL     1       8.726   7.967  19.052  0.00  0.00    +0.000 OA
ATOM     30  H   UNL     1       8.248   8.218  19.870  0.00  0.00    +0.000 HD
ENDBRANCH  28  29
ENDBRANCH  26  28
ENDBRANCH   1  26
TORSDOF 10
ENDMDL
MODEL 4
REMARK VINA RESULT:      -7.6      2.155      3.873
REMARK  Name = 
REMARK  10 active torsions:
REMARK  status: ('A' for Active; 'I' for Inactive)
REMARK    1  A    between atoms: C_2  and  O_3
REMARK    2  A    between atoms: C_2  and  C_4
REMARK    3  A    between atoms: C_4  and  N_5
REMARK    4  A    between atoms: C_12  and  N_13
REMARK    5  A    between atoms: N_13  and  CA_14
REMARK    6  A    between atoms: CA_14  and  C_15
REMARK    7  A    between atoms: CA_14  and  C_23
REMARK    8  A    between atoms: C_15  and  C_16
REMARK    9  A    between atoms: C_16  and  C_17
REMARK   10  A    between atoms: C_23  and  OXT_25
REMARK                            x       y       z     vdW  Elec       q    Type
REMARK                         _______ _______ _______ _____ _____    ______ ____
ROOT
ATOM      1  N   UNL     1       2.346   5.632  19.372  0.00  0.00    +0.000 N 
ATOM      2  C   UNL     1       1.249   4.735  18.996  0.00  0.00    +0.000 C 
ATOM      3  C   UNL     1       1.097   3.497  19.892  0.00  0.00    +0.000 C 
ATOM      4  C   UNL     1       2.231   2.467  19.921  0.00  0.00    +0.000 C 
ATOM      5  C   UNL     1       2.557   1.733  18.622  0.00  0.00    +0.000 C 
ATOM      6  C   UNL     1       3.105   2.510  17.427  0.00  0.00    +0.000 C 
ATOM      7  C   UNL     1       4.391   3.309  17.664  0.00  0.00    +0.000 C 
ATOM      8  C   UNL     1       4.200   4.822  17.850  0.00  0.00    +0.000 C 
ATOM      9  C   UNL     1       3.664   5.172  19.276  0.00  0.00    +0.000 C 
ATOM     10  O   UNL     1       4.409   5.147  20.260  0.00  0.00    +0.000 OA
ENDROOT
BRANCH   8  11
ATOM     11  N   UNL     1       5.477   5.562  17.752  0.00  0.00    +0.000 NA
ATOM     12  H   UNL     1       5.395   6.465  18.241  0.00  0.00    +0.000 HD
BRANCH  11  13
ATOM     13  CA  UNL     1       6.756   4.909  18.092  0.00  0.00    +0.000 C 
BRANCH  13  14
ATOM     14  C   UNL     1       7.575   5.881  18.999  0.00  0.00    +0.000 C 
ATOM     15  O   UNL     1       8.100   6.919  18.616  0.00  0.00    +0.000 OA
BRANCH  14  16
ATOM     16  OXT UNL     1       7.643   5.501  20.298  0.00  0.00    +0.000 OA
ATOM     17  HXT UNL     1       8.497   5.663  20.735  0.00  0.00    +0.000 HD
ENDBRANCH  14  16
ENDBRANCH  13  14
BRANCH  13  18
ATOM     18  C   UNL     1       7.569   4.554  16.822  0.00  0.00    +0.000 C 
BRANCH  18  19
ATOM     19  C   UNL     1       7.040   5.355  15.627  0.00  0.00    +0.000 C 
BRANCH  19  20
ATOM     20  C   UNL     1       6.691   4.703  14.318  0.00  0.00    +0.000 A 
ATOM     21  C   UNL     1       5.603   3.868  14.070  0.00  0.00    +0.000 A 
ATOM     22  C   UNL     1       5.417   3.336  12.786  0.00  0.00    +0.000 A 
ATOM     23  C   UNL     1       6.308   3.631  11.748  0.00  0.00    +0.000 A 
ATOM     24  C   UNL     1       7.402   4.447  11.994  0.00  0.00    +0.000 A 
ATOM     25  C   UNL     1       7.591   4.976  13.270  0.00  0.00    +0.000 A 
ENDBRANCH  19  20
ENDBRANCH  18  19
ENDBRANCH  13  18
ENDBRANCH  11  13
ENDBRANCH   8  11
BRANCH   1  26
ATOM     26  C   UNL     1       2.054   6.566  20.483  0.00  0.00    +0.000 C 
BRANCH  26  28
ATOM     27  O   UNL     1       2.066   8.370  18.847  0.00  0.00    +0.000 OA
ATOM     28  C   UNL     1       1.819   7.992  19.982  0.00  0.00    +0.000 C 
BRANCH  28  29
ATOM     29  O   UNL     1       1.268   8.810  20.914  0.00  0.00    +0.000 OA
ATOM     30  H   UNL     1       0.570   9.356  20.495  0.00  0.00    +0.000 HD
ENDBRANCH  28  29
ENDBRANCH  26  28
ENDBRANCH   1  26
TORSDOF 10
ENDMDL
MODEL 5
REMARK VINA RESULT:      -7.5      2.153      3.812
REMARK  Name = 
REMARK  10 active torsions:
REMARK  status: ('A' for Active; 'I' for Inactive)
REMARK    1  A    between atoms: C_2  and  O_3
REMARK    2  A    between atoms: C_2  and  C_4
REMARK    3  A    between atoms: C_4  and  N_5
REMARK    4  A    between atoms: C_12  and  N_13
REMARK    5  A    between atoms: N_13  and  CA_14
REMARK    6  A    between atoms: CA_14  and  C_15
REMARK    7  A    between atoms: CA_14  and  C_23
REMARK    8  A    between atoms: C_15  and  C_16
REMARK    9  A    between atoms: C_16  and  C_17
REMARK   10  A    between atoms: C_23  and  OXT_25
REMARK                            x       y       z     vdW  Elec       q    Type
REMARK                         _______ _______ _______ _____ _____    ______ ____
ROOT
ATOM      1  N   UNL     1       2.315   5.698  19.244  0.00  0.00    +0.000 N 
ATOM      2  C   UNL     1       1.219   4.817  18.831  0.00  0.00    +0.000 C 
ATOM      3  C   UNL     1       1.008   3.591  19.730  0.00  0.00    +0.000 C 
ATOM      4  C   UNL     1       2.121   2.540  19.813  0.00  0.00    +0.000 C 
ATOM      5  C   UNL     1       2.486   1.789  18.535  0.00  0.00    +0.000 C 
ATOM      6  C   UNL     1       3.097   2.547  17.357  0.00  0.00    +0.000 C 
ATOM      7  C   UNL     1       4.387   3.324  17.640  0.00  0.00    +0.000 C 
ATOM      8  C   UNL     1       4.215   4.842  17.806  0.00  0.00    +0.000 C 
ATOM      9  C   UNL     1       3.627   5.214  19.206  0.00  0.00    +0.000 C 
ATOM     10  O   UNL     1       4.331   5.185  20.219  0.00  0.00    +0.000 OA
ENDROOT
BRANCH   8  11
ATOM     11  N   UNL     1       5.508   5.559  17.755  0.00  0.00    +0.000 NA
ATOM     12  H   UNL     1       5.444   6.433  18.295  0.00  0.00    +0.000 HD
BRANCH  11  13
ATOM     13  CA  UNL     1       6.772   4.859  18.058  0.00  0.00    +0.000 C 
BRANCH  13  14
ATOM     14  C   UNL     1       7.571   5.719  19.088  0.00  0.00    +0.000 C 
ATOM     15  O   UNL     1       7.791   5.393  20.248  0.00  0.00    +0.000 OA
BRANCH  14  16
ATOM     16  OXT UNL     1       8.052   6.880  18.584  0.00  0.00    +0.000 OA
ATOM     17  HXT UNL     1       8.853   7.223  19.019  0.00  0.00    +0.000 HD
ENDBRANCH  14  16
ENDBRANCH  13  14
BRANCH  13  18
ATOM     18  C   UNL     1       7.619   4.634  16.781  0.00  0.00    +0.000 C 
BRANCH  18  19
ATOM     19  C   UNL     1       7.014   5.419  15.612  0.00  0.00    +0.000 C 
BRANCH  19  20
ATOM     20  C   UNL     1       6.794   4.799  14.260  0.00  0.00    +0.000 A 
ATOM     21  C   UNL     1       7.610   4.941  13.140  0.00  0.00    +0.000 A 
ATOM     22  C   UNL     1       7.265   4.293  11.945  0.00  0.00    +0.000 A 
ATOM     23  C   UNL     1       6.111   3.505  11.860  0.00  0.00    +0.000 A 
ATOM     24  C   UNL     1       5.285   3.376  12.967  0.00  0.00    +0.000 A 
ATOM     25  C   UNL     1       5.626   4.020  14.156  0.00  0.00    +0.000 A 
ENDBRANCH  19  20
ENDBRANCH  18  19
ENDBRANCH  13  18
ENDBRANCH  11  13
ENDBRANCH   8  11
BRANCH   1  26
ATOM     26  C   UNL     1       1.995   6.647  20.335  0.00  0.00    +0.000 C 
BRANCH  26  28
ATOM     27  O   UNL     1       1.209   8.949  20.454  0.00  0.00    +0.000 OA
ATOM     28  C   UNL     1       1.735   8.058  19.804  0.00  0.00    +0.000 C 
BRANCH  28  29
ATOM     29  O   UNL     1       2.180   8.251  18.537  0.00  0.00    +0.000 OA
ATOM     30  H   UNL     1       1.481   8.691  18.011  0.00  0.00    +0.000 HD
ENDBRANCH  28  29
ENDBRANCH  26  28
ENDBRANCH   1  26
TORSDOF 10
ENDMDL
MODEL 6
REMARK VINA RESULT:      -7.4      4.037      7.822
REMARK  Name = 
REMARK  10 active torsions:
REMARK  status: ('A' for Active; 'I' for Inactive)
REMARK    1  A    between atoms: C_2  and  O_3
REMARK    2  A    between atoms: C_2  and  C_4
REMARK    3  A    between atoms: C_4  and  N_5
REMARK    4  A    between atoms: C_12  and  N_13
REMARK    5  A    between atoms: N_13  and  CA_14
REMARK    6  A    between atoms: CA_14  and  C_15
REMARK    7  A    between atoms: CA_14  and  C_23
REMARK    8  A    between atoms: C_15  and  C_16
REMARK    9  A    between atoms: C_16  and  C_17
REMARK   10  A    between atoms: C_23  and  OXT_25
REMARK                            x       y       z     vdW  Elec       q    Type
REMARK                         _______ _______ _______ _____ _____    ______ ____
ROOT
ATOM      1  N   UNL     1       4.279   3.962  18.411  0.00  0.00    +0.000 N 
ATOM      2  C   UNL     1       4.040   2.679  19.079  0.00  0.00    +0.000 C 
ATOM      3  C   UNL     1       2.884   1.856  18.492  0.00  0.00    +0.000 C 
ATOM      4  C   UNL     1       1.462   2.421  18.577  0.00  0.00    +0.000 C 
ATOM      5  C   UNL     1       0.867   2.639  19.966  0.00  0.00    +0.000 C 
ATOM      6  C   UNL     1       1.485   3.675  20.905  0.00  0.00    +0.000 C 
ATOM      7  C   UNL     1       1.572   5.110  20.375  0.00  0.00    +0.000 C 
ATOM      8  C   UNL     1       2.962   5.545  19.884  0.00  0.00    +0.000 C 
ATOM      9  C   UNL     1       3.295   4.954  18.475  0.00  0.00    +0.000 C 
ATOM     10  O   UNL     1       2.789   5.424  17.453  0.00  0.00    +0.000 OA
ENDROOT
BRANCH   8  11
ATOM     11  N   UNL     1       3.052   7.009  19.693  0.00  0.00    +0.000 NA
ATOM     12  H   UNL     1       3.656   7.218  18.885  0.00  0.00    +0.000 HD
BRANCH  11  13
ATOM     13  CA  UNL     1       1.835   7.842  19.653  0.00  0.00    +0.000 C 
BRANCH  13  14
ATOM     14  C   UNL     1       1.857   8.678  18.335  0.00  0.00    +0.000 C 
ATOM     15  O   UNL     1       2.790   8.707  17.542  0.00  0.00    +0.000 OA
BRANCH  14  16
ATOM     16  OXT UNL     1       0.718   9.372  18.100  0.00  0.00    +0.000 OA
ATOM     17  HXT UNL     1       0.289   9.192  17.245  0.00  0.00    +0.000 HD
ENDBRANCH  14  16
ENDBRANCH  13  14
BRANCH  13  18
ATOM     18  C   UNL     1       1.750   8.784  20.880  0.00  0.00    +0.000 C 
BRANCH  18  19
ATOM     19  C   UNL     1       0.324   8.781  21.440  0.00  0.00    +0.000 C 
BRANCH  19  20
ATOM     20  C   UNL     1      -0.468  10.046  21.619  0.00  0.00    +0.000 A 
ATOM     21  C   UNL     1      -0.789  10.972  20.628  0.00  0.00    +0.000 A 
ATOM     22  C   UNL     1      -1.540  12.110  20.960  0.00  0.00    +0.000 A 
ATOM     23  C   UNL     1      -1.973  12.329  22.273  0.00  0.00    +0.000 A 
ATOM     24  C   UNL     1      -1.641  11.420  23.266  0.00  0.00    +0.000 A 
ATOM     25  C   UNL     1      -0.893  10.289  22.939  0.00  0.00    +0.000 A 
ENDBRANCH  19  20
ENDBRANCH  18  19
ENDBRANCH  13  18
ENDBRANCH  11  13
ENDBRANCH   8  11
BRANCH   1  26
ATOM     26  C   UNL     1       5.064   3.892  17.158  0.00  0.00    +0.000 C 
BRANCH  26  28
ATOM     27  O   UNL     1       6.648   5.656  16.601  0.00  0.00    +0.000 OA
ATOM     28  C   UNL     1       6.378   4.667  17.265  0.00  0.00    +0.000 C 
BRANCH  28  29
ATOM     29  O   UNL     1       7.223   4.174  18.206  0.00  0.00    +0.000 OA
ATOM     30  H   UNL     1       8.138   4.179  17.855  0.00  0.00    +0.000 HD
ENDBRANCH  28  29
ENDBRANCH  26  28
ENDBRANCH   1  26
TORSDOF 10
ENDMDL
MODEL 7
REMARK VINA RESULT:      -7.4      3.375      7.067
REMARK  Name = 
REMARK  10 active torsions:
REMARK  status: ('A' for Active; 'I' for Inactive)
REMARK    1  A    between atoms: C_2  and  O_3
REMARK    2  A    between atoms: C_2  and  C_4
REMARK    3  A    between atoms: C_4  and  N_5
REMARK    4  A    between atoms: C_12  and  N_13
REMARK    5  A    between atoms: N_13  and  CA_14
REMARK    6  A    between atoms: CA_14  and  C_15
REMARK    7  A    between atoms: CA_14  and  C_23
REMARK    8  A    between atoms: C_15  and  C_16
REMARK    9  A    between atoms: C_16  and  C_17
REMARK   10  A    between atoms: C_23  and  OXT_25
REMARK                            x       y       z     vdW  Elec       q    Type
REMARK                         _______ _______ _______ _____ _____    ______ ____
ROOT
ATOM      1  N   UNL     1       6.618   6.538  17.532  0.00  0.00    +0.000 N 
ATOM      2  C   UNL     1       7.041   5.174  17.865  0.00  0.00    +0.000 C 
ATOM      3  C   UNL     1       7.112   4.214  16.668  0.00  0.00    +0.000 C 
ATOM      4  C   UNL     1       5.817   3.873  15.922  0.00  0.00    +0.000 C 
ATOM      5  C   UNL     1       4.722   3.144  16.697  0.00  0.00    +0.000 C 
ATOM      6  C   UNL     1       4.029   3.838  17.869  0.00  0.00    +0.000 C 
ATOM      7  C   UNL     1       3.354   5.180  17.564  0.00  0.00    +0.000 C 
ATOM      8  C   UNL     1       4.136   6.424  18.013  0.00  0.00    +0.000 C 
ATOM      9  C   UNL     1       5.322   6.749  17.049  0.00  0.00    +0.000 C 
ATOM     10  O   UNL     1       5.123   7.273  15.950  0.00  0.00    +0.000 OA
ENDROOT
BRANCH   8  11
ATOM     11  N   UNL     1       3.302   7.646  17.985  0.00  0.00    +0.000 NA
ATOM     12  H   UNL     1       3.166   7.952  17.011  0.00  0.00    +0.000 HD
BRANCH  11  13
ATOM     13  CA  UNL     1       2.027   7.708  18.726  0.00  0.00    +0.000 C 
BRANCH  13  14
ATOM     14  C   UNL     1       1.414   9.131  18.526  0.00  0.00    +0.000 C 
ATOM     15  O   UNL     1       1.392   9.738  17.462  0.00  0.00    +0.000 OA
BRANCH  14  16
ATOM     16  OXT UNL     1       0.858   9.656  19.643  0.00  0.00    +0.000 OA
ATOM     17  HXT UNL     1       0.972   9.129  20.453  0.00  0.00    +0.000 HD
ENDBRANCH  14  16
ENDBRANCH  13  14
BRANCH  13  18
ATOM     18  C   UNL     1       2.232   7.425  20.235  0.00  0.00    +0.000 C 
BRANCH  18  19
ATOM     19  C   UNL     1       1.223   6.372  20.706  0.00  0.00    +0.000 C 
BRANCH  19  20
ATOM     20  C   UNL     1       1.523   4.900  20.664  0.00  0.00    +0.000 A 
ATOM     21  C   UNL     1       2.534   4.238  21.359  0.00  0.00    +0.000 A 
ATOM     22  C   UNL     1       2.684   2.852  21.210  0.00  0.00    +0.000 A 
ATOM     23  C   UNL     1       1.833   2.121  20.373  0.00  0.00    +0.000 A 
ATOM     24  C   UNL     1       0.837   2.777  19.665  0.00  0.00    +0.000 A 
ATOM     25  C   UNL     1       0.687   4.156  19.809  0.00  0.00    +0.000 A 
ENDBRANCH  19  20
ENDBRANCH  18  19
ENDBRANCH  13  18
ENDBRANCH  11  13
ENDBRANCH   8  11
BRANCH   1  26
ATOM     26  C   UNL     1       7.676   7.418  16.985  0.00  0.00    +0.000 C 
BRANCH  26  28
ATOM     27  O   UNL     1       7.928   9.645  17.938  0.00  0.00    +0.000 OA
ATOM     28  C   UNL     1       8.150   8.445  18.014  0.00  0.00    +0.000 C 
BRANCH  28  29
ATOM     29  O   UNL     1       8.821   7.897  19.058  0.00  0.00    +0.000 OA
ATOM     30  H   UNL     1       8.603   8.388  19.878  0.00  0.00    +0.000 HD
ENDBRANCH  28  29
ENDBRANCH  26  28
ENDBRANCH   1  26
TORSDOF 10
ENDMDL
MODEL 8
REMARK VINA RESULT:      -7.3      3.630      5.919
REMARK  Name = 
REMARK  10 active torsions:
REMARK  status: ('A' for Active; 'I' for Inactive)
REMARK    1  A    between atoms: C_2  and  O_3
REMARK    2  A    between atoms: C_2  and  C_4
REMARK    3  A    between atoms: C_4  and  N_5
REMARK    4  A    between atoms: C_12  and  N_13
REMARK    5  A    between atoms: N_13  and  CA_14
REMARK    6  A    between atoms: CA_14  and  C_15
REMARK    7  A    between atoms: CA_14  and  C_23
REMARK    8  A    between atoms: C_15  and  C_16
REMARK    9  A    between atoms: C_16  and  C_17
REMARK   10  A    between atoms: C_23  and  OXT_25
REMARK                            x       y       z     vdW  Elec       q    Type
REMARK                         _______ _______ _______ _____ _____    ______ ____
ROOT
ATOM      1  N   UNL     1       4.808   4.287  16.394  0.00  0.00    +0.000 N 
ATOM      2  C   UNL     1       4.051   3.209  17.038  0.00  0.00    +0.000 C 
ATOM      3  C   UNL     1       2.526   3.380  16.991  0.00  0.00    +0.000 C 
ATOM      4  C   UNL     1       1.897   4.567  17.727  0.00  0.00    +0.000 C 
ATOM      5  C   UNL     1       2.057   4.628  19.244  0.00  0.00    +0.000 C 
ATOM      6  C   UNL     1       3.446   4.806  19.855  0.00  0.00    +0.000 C 
ATOM      7  C   UNL     1       4.235   6.041  19.409  0.00  0.00    +0.000 C 
ATOM      8  C   UNL     1       5.336   5.777  18.371  0.00  0.00    +0.000 C 
ATOM      9  C   UNL     1       4.750   5.575  16.935  0.00  0.00    +0.000 C 
ATOM     10  O   UNL     1       4.355   6.535  16.269  0.00  0.00    +0.000 OA
ENDROOT
BRANCH   8  11
ATOM     11  N   UNL     1       6.255   6.928  18.227  0.00  0.00    +0.000 NA
ATOM     12  H   UNL     1       6.027   7.646  18.930  0.00  0.00    +0.000 HD
BRANCH  11  13
ATOM     13  CA  UNL     1       7.715   6.725  18.157  0.00  0.00    +0.000 C 
BRANCH  13  14
ATOM     14  C   UNL     1       8.042   5.317  18.748  0.00  0.00    +0.000 C 
ATOM     15  O   UNL     1       8.276   5.092  19.929  0.00  0.00    +0.000 OA
BRANCH  14  16
ATOM     16  OXT UNL     1       8.016   4.314  17.837  0.00  0.00    +0.000 OA
ATOM     17  HXT UNL     1       7.272   3.693  17.922  0.00  0.00    +0.000 HD
ENDBRANCH  14  16
ENDBRANCH  13  14
BRANCH  13  18
ATOM     18  C   UNL     1       8.481   7.821  18.939  0.00  0.00    +0.000 C 
BRANCH  18  19
ATOM     19  C   UNL     1       8.342   9.166  18.217  0.00  0.00    +0.000 C 
BRANCH  19  20
ATOM     20  C   UNL     1       9.199  10.351  18.564  0.00  0.00    +0.000 A 
ATOM     21  C   UNL     1       9.862  11.187  17.667  0.00  0.00    +0.000 A 
ATOM     22  C   UNL     1      10.627  12.257  18.153  0.00  0.00    +0.000 A 
ATOM     23  C   UNL     1      10.735  12.499  19.528  0.00  0.00    +0.000 A 
ATOM     24  C   UNL     1      10.092  11.660  20.425  0.00  0.00    +0.000 A 
ATOM     25  C   UNL     1       9.332  10.594  19.945  0.00  0.00    +0.000 A 
ENDBRANCH  19  20
ENDBRANCH  18  19
ENDBRANCH  13  18
ENDBRANCH  11  13
ENDBRANCH   8  11
BRANCH   1  26
ATOM     26  C   UNL     1       4.919   4.196  14.920  0.00  0.00    +0.000 C 
BRANCH  26  28
ATOM     27  O   UNL     1       7.311   4.641  15.029  0.00  0.00    +0.000 OA
ATOM     28  C   UNL     1       6.375   4.095  14.463  0.00  0.00    +0.000 C 
BRANCH  28  29
ATOM     29  O   UNL     1       6.548   3.303  13.376  0.00  0.00    +0.000 OA
ATOM     30  H   UNL     1       7.457   3.422  13.029  0.00  0.00    +0.000 HD
ENDBRANCH  28  29
ENDBRANCH  26  28
ENDBRANCH   1  26
TORSDOF 10
ENDMDL
MODEL 9
REMARK VINA RESULT:      -7.3      1.964      3.851
REMARK  Name = 
REMARK  10 active torsions:
REMARK  status: ('A' for Active; 'I' for Inactive)
REMARK    1  A    between atoms: C_2  and  O_3
REMARK    2  A    between atoms: C_2  and  C_4
REMARK    3  A    between atoms: C_4  and  N_5
REMARK    4  A    between atoms: C_12  and  N_13
REMARK    5  A    between atoms: N_13  and  CA_14
REMARK    6  A    between atoms: CA_14  and  C_15
REMARK    7  A    between atoms: CA_14  and  C_23
REMARK    8  A    between atoms: C_15  and  C_16
REMARK    9  A    between atoms: C_16  and  C_17
REMARK   10  A    between atoms: C_23  and  OXT_25
REMARK                            x       y       z     vdW  Elec       q    Type
REMARK                         _______ _______ _______ _____ _____    ______ ____
ROOT
ATOM      1  N   UNL     1       2.887   5.387  18.696  0.00  0.00    +0.000 N 
ATOM      2  C   UNL     1       1.742   4.698  18.094  0.00  0.00    +0.000 C 
ATOM      3  C   UNL     1       0.809   4.007  19.099  0.00  0.00    +0.000 C 
ATOM      4  C   UNL     1       1.359   2.844  19.932  0.00  0.00    +0.000 C 
ATOM      5  C   UNL     1       1.815   1.590  19.188  0.00  0.00    +0.000 C 
ATOM      6  C   UNL     1       3.012   1.661  18.241  0.00  0.00    +0.000 C 
ATOM      7  C   UNL     1       4.329   2.163  18.843  0.00  0.00    +0.000 C 
ATOM      8  C   UNL     1       4.689   3.619  18.511  0.00  0.00    +0.000 C 
ATOM      9  C   UNL     1       3.860   4.635  19.363  0.00  0.00    +0.000 C 
ATOM     10  O   UNL     1       4.130   4.839  20.549  0.00  0.00    +0.000 OA
ENDROOT
BRANCH   8  11
ATOM     11  N   UNL     1       6.096   3.934  18.843  0.00  0.00    +0.000 NA
ATOM     12  H   UNL     1       6.603   3.067  19.071  0.00  0.00    +0.000 HD
BRANCH  11  13
ATOM     13  CA  UNL     1       6.909   4.786  17.953  0.00  0.00    +0.000 C 
BRANCH  13  14
ATOM     14  C   UNL     1       7.556   5.916  18.814  0.00  0.00    +0.000 C 
ATOM     15  O   UNL     1       7.947   6.991  18.376  0.00  0.00    +0.000 OA
BRANCH  14  16
ATOM     16  OXT UNL     1       7.630   5.631  20.136  0.00  0.00    +0.000 OA
ATOM     17  HXT UNL     1       6.789   5.379  20.556  0.00  0.00    +0.000 HD
ENDBRANCH  14  16
ENDBRANCH  13  14
BRANCH  13  18
ATOM     18  C   UNL     1       6.054   5.404  16.819  0.00  0.00    +0.000 C 
BRANCH  18  19
ATOM     19  C   UNL     1       5.651   4.314  15.819  0.00  0.00    +0.000 C 
BRANCH  19  20
ATOM     20  C   UNL     1       6.177   4.288  14.411  0.00  0.00    +0.000 A 
ATOM     21  C   UNL     1       5.691   3.516  13.358  0.00  0.00    +0.000 A 
ATOM     22  C   UNL     1       6.295   3.606  12.096  0.00  0.00    +0.000 A 
ATOM     23  C   UNL     1       7.382   4.462  11.877  0.00  0.00    +0.000 A 
ATOM     24  C   UNL     1       7.881   5.218  12.926  0.00  0.00    +0.000 A 
ATOM     25  C   UNL     1       7.283   5.130  14.183  0.00  0.00    +0.000 A 
ENDBRANCH  19  20
ENDBRANCH  18  19
ENDBRANCH  13  18
ENDBRANCH  11  13
ENDBRANCH   8  11
BRANCH   1  26
ATOM     26  C   UNL     1       2.605   6.733  19.246  0.00  0.00    +0.000 C 
BRANCH  26  28
ATOM     27  O   UNL     1       1.674   8.573  17.950  0.00  0.00    +0.000 OA
ATOM     28  C   UNL     1       2.602   7.805  18.154  0.00  0.00    +0.000 C 
BRANCH  28  29
ATOM     29  O   UNL     1       3.755   7.855  17.441  0.00  0.00    +0.000 OA
ATOM     30  H   UNL     1       3.808   7.071  16.855  0.00  0.00    +0.000 HD
ENDBRANCH  28  29
ENDBRANCH  26  28
ENDBRANCH   1  26
TORSDOF 10
ENDMDL
