MODEL 1
REMARK VINA RESULT:      -8.9      0.000      0.000
REMARK  Name = 
REMARK  8 active torsions:
REMARK  status: ('A' for Active; 'I' for Inactive)
REMARK    1  A    between atoms: C_1  and  C_2
REMARK    2  A    between atoms: C_7  and  C_8
REMARK    3  A    between atoms: N_10  and  C_11
REMARK    4  A    between atoms: C_15  and  C_16
REMARK    5  A    between atoms: C_16  and  C_17
REMARK    6  A    between atoms: C_16  and  S_18
REMARK    7  A    between atoms: S_18  and  C_19
REMARK    8  A    between atoms: N_23  and  C_24
REMARK                            x       y       z     vdW  Elec       q    Type
REMARK                         _______ _______ _______ _____ _____    ______ ____
ROOT
ATOM      1  C   UNL     1       1.868   8.847  18.431  0.00  0.00    +0.000 C 
ATOM      2  O   UNL     1       2.048   9.106  17.234  0.00  0.00    +0.000 OA
ATOM      3  N   UNL     1       2.085   7.620  19.030  0.00  0.00    +0.000 N 
ATOM      4  H   UNL     1       1.620   7.429  19.907  0.00  0.00    +0.000 HD
ENDROOT
BRANCH   1  11
ATOM      5  C   UNL     1      -1.896  13.621  23.533  0.00  0.00    +0.000 C 
ATOM      6  C   UNL     1      -1.215  12.544  22.743  0.00  0.00    +0.000 A 
ATOM      7  C   UNL     1      -1.176  11.230  23.210  0.00  0.00    +0.000 A 
ATOM      8  C   UNL     1      -0.571  10.238  22.443  0.00  0.00    +0.000 A 
ATOM      9  C   UNL     1       0.025  10.560  21.213  0.00  0.00    +0.000 A 
ATOM     10  C   UNL     1       0.643   9.579  20.435  0.00  0.00    +0.000 A 
ATOM     11  C   UNL     1       1.264   9.926  19.234  0.00  0.00    +0.000 A 
ATOM     12  C   UNL     1       1.227  11.251  18.848  0.00  0.00    +0.000 A 
ATOM     13  N   UNL     1       0.614  12.226  19.572  0.00  0.00    +0.000 NA
ATOM     14  C   UNL     1       0.020  11.885  20.735  0.00  0.00    +0.000 A 
ATOM     15  C   UNL     1      -0.622  12.848  21.505  0.00  0.00    +0.000 A 
ENDBRANCH   1  11
BRANCH   3  16
ATOM     16  C   UNL     1       2.588   6.492  18.333  0.00  0.00    +0.000 A 
ATOM     17  C   UNL     1       2.031   5.218  18.468  0.00  0.00    +0.000 A 
ATOM     18  C   UNL     1       2.654   4.115  17.893  0.00  0.00    +0.000 A 
ATOM     19  C   UNL     1       3.845   4.269  17.195  0.00  0.00    +0.000 A 
ATOM     20  C   UNL     1       4.409   5.541  17.004  0.00  0.00    +0.000 A 
ATOM     21  C   UNL     1       3.734   6.656  17.545  0.00  0.00    +0.000 A 
BRANCH  20  22
ATOM     22  C   UNL     1       5.759   5.697  16.313  0.00  0.00    +0.000 C 
ATOM     23  C   UNL     1       6.825   6.197  17.316  0.00  0.00    +0.000 C 
BRANCH  22  24
ATOM     24  S   UNL     1       6.385   4.148  15.558  0.00  0.00    +0.000 S 
BRANCH  24  25
ATOM     25  C   UNL     1       7.172   4.704  14.124  0.00  0.00    +0.000 A 
ATOM     26  N   UNL     1       8.148   5.577  14.019  0.00  0.00    +0.000 NA
ATOM     27  N   UNL     1       8.359   5.804  12.672  0.00  0.00    +0.000 NA
ATOM     28  C   UNL     1       7.520   5.043  12.002  0.00  0.00    +0.000 A 
ATOM     29  N   UNL     1       6.801   4.287  12.877  0.00  0.00    +0.000 N 
ATOM     30  C   UNL     1       5.838   3.273  12.538  0.00  0.00    +0.000 C 
ENDBRANCH  24  25
ENDBRANCH  22  24
ENDBRANCH  20  22
ENDBRANCH   3  16
TORSDOF 5
ENDMDL
MODEL 2
REMARK VINA RESULT:      -8.6      2.136      3.201
REMARK  Name = 
REMARK  8 active torsions:
REMARK  status: ('A' for Active; 'I' for Inactive)
REMARK    1  A    between atoms: C_1  and  C_2
REMARK    2  A    between atoms: C_7  and  C_8
REMARK    3  A    between atoms: N_10  and  C_11
REMARK    4  A    between atoms: C_15  and  C_16
REMARK    5  A    between atoms: C_16  and  C_17
REMARK    6  A    between atoms: C_16  and  S_18
REMARK    7  A    between atoms: S_18  and  C_19
REMARK    8  A    between atoms: N_23  and  C_24
REMARK                            x       y       z     vdW  Elec       q    Type
REMARK                         _______ _______ _______ _____ _____    ______ ____
ROOT
ATOM      1  C   UNL     1       2.504   7.331  18.391  0.00  0.00    +0.000 C 
ATOM      2  O   UNL     1       3.152   7.631  17.379  0.00  0.00    +0.000 OA
ATOM      3  N   UNL     1       2.278   6.047  18.849  0.00  0.00    +0.000 N 
ATOM      4  H   UNL     1       1.499   5.894  19.475  0.00  0.00    +0.000 HD
ENDROOT
BRANCH   1  11
ATOM      5  C   UNL     1      -1.403  12.422  23.060  0.00  0.00    +0.000 C 
ATOM      6  C   UNL     1      -0.659  11.313  22.378  0.00  0.00    +0.000 A 
ATOM      7  C   UNL     1      -0.421  10.104  23.031  0.00  0.00    +0.000 A 
ATOM      8  C   UNL     1       0.239   9.074  22.367  0.00  0.00    +0.000 A 
ATOM      9  C   UNL     1       0.691   9.256  21.051  0.00  0.00    +0.000 A 
ATOM     10  C   UNL     1       1.361   8.237  20.372  0.00  0.00    +0.000 A 
ATOM     11  C   UNL     1       1.837   8.452  19.078  0.00  0.00    +0.000 A 
ATOM     12  C   UNL     1       1.605   9.685  18.502  0.00  0.00    +0.000 A 
ATOM     13  N   UNL     1       0.936  10.691  19.128  0.00  0.00    +0.000 NA
ATOM     14  C   UNL     1       0.484  10.478  20.381  0.00  0.00    +0.000 A 
ATOM     15  C   UNL     1      -0.209  11.476  21.056  0.00  0.00    +0.000 A 
ENDBRANCH   1  11
BRANCH   3  16
ATOM     16  C   UNL     1       2.806   4.891  18.218  0.00  0.00    +0.000 A 
ATOM     17  C   UNL     1       2.420   3.597  18.579  0.00  0.00    +0.000 A 
ATOM     18  C   UNL     1       3.078   2.494  18.048  0.00  0.00    +0.000 A 
ATOM     19  C   UNL     1       4.139   2.669  17.167  0.00  0.00    +0.000 A 
ATOM     20  C   UNL     1       4.525   3.954  16.752  0.00  0.00    +0.000 A 
ATOM     21  C   UNL     1       3.809   5.060  17.256  0.00  0.00    +0.000 A 
BRANCH  20  22
ATOM     22  C   UNL     1       5.743   4.147  15.855  0.00  0.00    +0.000 C 
ATOM     23  C   UNL     1       5.359   3.941  14.371  0.00  0.00    +0.000 C 
BRANCH  22  24
ATOM     24  S   UNL     1       6.518   5.801  16.008  0.00  0.00    +0.000 S 
BRANCH  24  25
ATOM     25  C   UNL     1       7.316   5.717  17.538  0.00  0.00    +0.000 A 
ATOM     26  N   UNL     1       7.549   4.655  18.277  0.00  0.00    +0.000 NA
ATOM     27  N   UNL     1       8.093   5.091  19.470  0.00  0.00    +0.000 NA
ATOM     28  C   UNL     1       8.196   6.400  19.408  0.00  0.00    +0.000 A 
ATOM     29  N   UNL     1       7.780   6.828  18.184  0.00  0.00    +0.000 N 
ATOM     30  C   UNL     1       7.812   8.181  17.696  0.00  0.00    +0.000 C 
ENDBRANCH  24  25
ENDBRANCH  22  24
ENDBRANCH  20  22
ENDBRANCH   3  16
TORSDOF 5
ENDMDL
MODEL 3
REMARK VINA RESULT:      -8.6      3.527     10.060
REMARK  Name = 
REMARK  8 active torsions:
REMARK  status: ('A' for Active; 'I' for Inactive)
REMARK    1  A    between atoms: C_1  and  C_2
REMARK    2  A    between atoms: C_7  and  C_8
REMARK    3  A    between atoms: N_10  and  C_11
REMARK    4  A    between atoms: C_15  and  C_16
REMARK    5  A    between atoms: C_16  and  C_17
REMARK    6  A    between atoms: C_16  and  S_18
REMARK    7  A    between atoms: S_18  and  C_19
REMARK    8  A    between atoms: N_23  and  C_24
REMARK                            x       y       z     vdW  Elec       q    Type
REMARK                         _______ _______ _______ _____ _____    ______ ____
ROOT
ATOM      1  C   UNL     1       2.041   6.800  20.078  0.00  0.00    +0.000 C 
ATOM      2  O   UNL     1       1.503   6.155  20.988  0.00  0.00    +0.000 OA
ATOM      3  N   UNL     1       1.912   8.160  19.872  0.00  0.00    +0.000 N 
ATOM      4  H   UNL     1       2.119   8.524  18.951  0.00  0.00    +0.000 HD
ENDROOT
BRANCH   1  11
ATOM      5  C   UNL     1       6.282   3.734  14.111  0.00  0.00    +0.000 C 
ATOM      6  C   UNL     1       5.583   4.530  15.173  0.00  0.00    +0.000 A 
ATOM      7  C   UNL     1       5.706   5.918  15.223  0.00  0.00    +0.000 A 
ATOM      8  C   UNL     1       5.020   6.642  16.194  0.00  0.00    +0.000 A 
ATOM      9  C   UNL     1       4.224   5.977  17.141  0.00  0.00    +0.000 A 
ATOM     10  C   UNL     1       3.535   6.685  18.126  0.00  0.00    +0.000 A 
ATOM     11  C   UNL     1       2.781   6.003  19.082  0.00  0.00    +0.000 A 
ATOM     12  C   UNL     1       2.733   4.625  19.003  0.00  0.00    +0.000 A 
ATOM     13  N   UNL     1       3.375   3.907  18.043  0.00  0.00    +0.000 NA
ATOM     14  C   UNL     1       4.106   4.573  17.124  0.00  0.00    +0.000 A 
ATOM     15  C   UNL     1       4.775   3.880  16.122  0.00  0.00    +0.000 A 
ENDBRANCH   1  11
BRANCH   3  16
ATOM     16  C   UNL     1       1.158   9.009  20.722  0.00  0.00    +0.000 A 
ATOM     17  C   UNL     1       0.965   8.733  22.078  0.00  0.00    +0.000 A 
ATOM     18  C   UNL     1       0.088   9.503  22.834  0.00  0.00    +0.000 A 
ATOM     19  C   UNL     1      -0.618  10.543  22.242  0.00  0.00    +0.000 A 
ATOM     20  C   UNL     1      -0.417  10.873  20.892  0.00  0.00    +0.000 A 
ATOM     21  C   UNL     1       0.519  10.118  20.154  0.00  0.00    +0.000 A 
BRANCH  20  22
ATOM     22  C   UNL     1      -1.256  11.957  20.225  0.00  0.00    +0.000 C 
ATOM     23  C   UNL     1      -0.647  13.354  20.491  0.00  0.00    +0.000 C 
BRANCH  22  24
ATOM     24  S   UNL     1      -1.416  11.753  18.409  0.00  0.00    +0.000 S 
BRANCH  24  25
ATOM     25  C   UNL     1      -3.127  11.707  18.172  0.00  0.00    +0.000 A 
ATOM     26  N   UNL     1      -4.076  12.007  19.031  0.00  0.00    +0.000 NA
ATOM     27  N   UNL     1      -5.285  11.693  18.440  0.00  0.00    +0.000 NA
ATOM     28  C   UNL     1      -5.033  11.235  17.233  0.00  0.00    +0.000 A 
ATOM     29  N   UNL     1      -3.693  11.290  17.001  0.00  0.00    +0.000 N 
ATOM     30  C   UNL     1      -3.025  10.955  15.771  0.00  0.00    +0.000 C 
ENDBRANCH  24  25
ENDBRANCH  22  24
ENDBRANCH  20  22
ENDBRANCH   3  16
TORSDOF 5
ENDMDL
MODEL 4
REMARK VINA RESULT:      -8.5      2.587      3.528
REMARK  Name = 
REMARK  8 active torsions:
REMARK  status: ('A' for Active; 'I' for Inactive)
REMARK    1  A    between atoms: C_1  and  C_2
REMARK    2  A    between atoms: C_7  and  C_8
REMARK    3  A    between atoms: N_10  and  C_11
REMARK    4  A    between atoms: C_15  and  C_16
REMARK    5  A    between atoms: C_16  and  C_17
REMARK    6  A    between atoms: C_16  and  S_18
REMARK    7  A    between atoms: S_18  and  C_19
REMARK    8  A    between atoms: N_23  and  C_24
REMARK                            x       y       z     vdW  Elec       q    Type
REMARK                         _______ _______ _______ _____ _____    ______ ____
ROOT
ATOM      1  C   UNL     1       1.887   7.333  20.165  0.00  0.00    +0.000 C 
ATOM      2  O   UNL     1       2.759   7.338  19.287  0.00  0.00    +0.000 OA
ATOM      3  N   UNL     1       1.444   6.219  20.853  0.00  0.00    +0.000 N 
ATOM      4  H   UNL     1       0.538   6.264  21.301  0.00  0.00    +0.000 HD
ENDROOT
BRANCH   1  11
ATOM      5  C   UNL     1      -2.325  13.636  22.516  0.00  0.00    +0.000 C 
ATOM      6  C   UNL     1      -1.565  12.361  22.304  0.00  0.00    +0.000 A 
ATOM      7  C   UNL     1      -1.519  11.381  23.295  0.00  0.00    +0.000 A 
ATOM      8  C   UNL     1      -0.839  10.189  23.063  0.00  0.00    +0.000 A 
ATOM      9  C   UNL     1      -0.176   9.979  21.843  0.00  0.00    +0.000 A 
ATOM     10  C   UNL     1       0.517   8.793  21.596  0.00  0.00    +0.000 A 
ATOM     11  C   UNL     1       1.202   8.619  20.393  0.00  0.00    +0.000 A 
ATOM     12  C   UNL     1       1.153   9.644  19.469  0.00  0.00    +0.000 A 
ATOM     13  N   UNL     1       0.468  10.802  19.670  0.00  0.00    +0.000 NA
ATOM     14  C   UNL     1      -0.188  10.965  20.838  0.00  0.00    +0.000 A 
ATOM     15  C   UNL     1      -0.905  12.131  21.084  0.00  0.00    +0.000 A 
ENDBRANCH   1  11
BRANCH   3  16
ATOM     16  C   UNL     1       1.976   4.919  20.654  0.00  0.00    +0.000 A 
ATOM     17  C   UNL     1       2.051   3.974  21.680  0.00  0.00    +0.000 A 
ATOM     18  C   UNL     1       2.725   2.774  21.483  0.00  0.00    +0.000 A 
ATOM     19  C   UNL     1       3.346   2.512  20.267  0.00  0.00    +0.000 A 
ATOM     20  C   UNL     1       3.255   3.422  19.202  0.00  0.00    +0.000 A 
ATOM     21  C   UNL     1       2.519   4.609  19.401  0.00  0.00    +0.000 A 
BRANCH  20  22
ATOM     22  C   UNL     1       4.009   3.172  17.900  0.00  0.00    +0.000 C 
ATOM     23  C   UNL     1       3.072   2.540  16.845  0.00  0.00    +0.000 C 
BRANCH  22  24
ATOM     24  S   UNL     1       4.738   4.687  17.167  0.00  0.00    +0.000 S 
BRANCH  24  25
ATOM     25  C   UNL     1       6.057   5.037  18.226  0.00  0.00    +0.000 A 
ATOM     26  N   UNL     1       6.286   4.553  19.427  0.00  0.00    +0.000 NA
ATOM     27  N   UNL     1       7.383   5.220  19.939  0.00  0.00    +0.000 NA
ATOM     28  C   UNL     1       7.798   6.069  19.026  0.00  0.00    +0.000 A 
ATOM     29  N   UNL     1       7.032   5.938  17.908  0.00  0.00    +0.000 N 
ATOM     30  C   UNL     1       7.216   6.632  16.660  0.00  0.00    +0.000 C 
ENDBRANCH  24  25
ENDBRANCH  22  24
ENDBRANCH  20  22
ENDBRANCH   3  16
TORSDOF 5
ENDMDL
MODEL 5
REMARK VINA RESULT:      -8.5      2.790      4.284
REMARK  Name = 
REMARK  8 active torsions:
REMARK  status: ('A' for Active; 'I' for Inactive)
REMARK    1  A    between atoms: C_1  and  C_2
REMARK    2  A    between atoms: C_7  and  C_8
REMARK    3  A    between atoms: N_10  and  C_11
REMARK    4  A    between atoms: C_15  and  C_16
REMARK    5  A    between atoms: C_16  and  C_17
REMARK    6  A    between atoms: C_16  and  S_18
REMARK    7  A    between atoms: S_18  and  C_19
REMARK    8  A    between atoms: N_23  and  C_24
REMARK                            x       y       z     vdW  Elec       q    Type
REMARK                         _______ _______ _______ _____ _____    ______ ____
ROOT
ATOM      1  C   UNL     1       0.478  10.041  21.262  0.00  0.00    +0.000 C 
ATOM      2  O   UNL     1       1.510  10.109  21.944  0.00  0.00    +0.000 OA
ATOM      3  N   UNL     1       0.362   9.405  20.040  0.00  0.00    +0.000 N 
ATOM      4  H   UNL     1      -0.402   9.672  19.435  0.00  0.00    +0.000 HD
ENDROOT
BRANCH   1  11
ATOM      5  C   UNL     1      -5.643  14.860  22.776  0.00  0.00    +0.000 C 
ATOM      6  C   UNL     1      -4.516  14.020  22.253  0.00  0.00    +0.000 A 
ATOM      7  C   UNL     1      -4.128  14.096  20.916  0.00  0.00    +0.000 A 
ATOM      8  C   UNL     1      -3.056  13.335  20.460  0.00  0.00    +0.000 A 
ATOM      9  C   UNL     1      -2.379  12.470  21.334  0.00  0.00    +0.000 A 
ATOM     10  C   UNL     1      -1.307  11.694  20.893  0.00  0.00    +0.000 A 
ATOM     11  C   UNL     1      -0.674  10.810  21.768  0.00  0.00    +0.000 A 
ATOM     12  C   UNL     1      -1.133  10.751  23.069  0.00  0.00    +0.000 A 
ATOM     13  N   UNL     1      -2.161  11.510  23.536  0.00  0.00    +0.000 NA
ATOM     14  C   UNL     1      -2.772  12.358  22.683  0.00  0.00    +0.000 A 
ATOM     15  C   UNL     1      -3.823  13.156  23.119  0.00  0.00    +0.000 A 
ENDBRANCH   1  11
BRANCH   3  16
ATOM     16  C   UNL     1       1.430   8.705  19.423  0.00  0.00    +0.000 A 
ATOM     17  C   UNL     1       1.970   9.091  18.194  0.00  0.00    +0.000 A 
ATOM     18  C   UNL     1       2.903   8.284  17.551  0.00  0.00    +0.000 A 
ATOM     19  C   UNL     1       3.293   7.077  18.119  0.00  0.00    +0.000 A 
ATOM     20  C   UNL     1       2.801   6.679  19.372  0.00  0.00    +0.000 A 
ATOM     21  C   UNL     1       1.899   7.537  20.037  0.00  0.00    +0.000 A 
BRANCH  20  22
ATOM     22  C   UNL     1       3.164   5.316  19.951  0.00  0.00    +0.000 C 
ATOM     23  C   UNL     1       1.918   4.648  20.581  0.00  0.00    +0.000 C 
BRANCH  22  24
ATOM     24  S   UNL     1       3.860   4.151  18.718  0.00  0.00    +0.000 S 
BRANCH  24  25
ATOM     25  C   UNL     1       5.539   4.557  18.705  0.00  0.00    +0.000 A 
ATOM     26  N   UNL     1       6.289   4.949  19.711  0.00  0.00    +0.000 NA
ATOM     27  N   UNL     1       7.528   5.284  19.199  0.00  0.00    +0.000 NA
ATOM     28  C   UNL     1       7.499   5.062  17.903  0.00  0.00    +0.000 A 
ATOM     29  N   UNL     1       6.288   4.541  17.562  0.00  0.00    +0.000 N 
ATOM     30  C   UNL     1       5.889   4.090  16.256  0.00  0.00    +0.000 C 
ENDBRANCH  24  25
ENDBRANCH  22  24
ENDBRANCH  20  22
ENDBRANCH   3  16
TORSDOF 5
ENDMDL
MODEL 6
REMARK VINA RESULT:      -8.5      0.801      1.274
REMARK  Name = 
REMARK  8 active torsions:
REMARK  status: ('A' for Active; 'I' for Inactive)
REMARK    1  A    between atoms: C_1  and  C_2
REMARK    2  A    between atoms: C_7  and  C_8
REMARK    3  A    between atoms: N_10  and  C_11
REMARK    4  A    between atoms: C_15  and  C_16
REMARK    5  A    between atoms: C_16  and  C_17
REMARK    6  A    between atoms: C_16  and  S_18
REMARK    7  A    between atoms: S_18  and  C_19
REMARK    8  A    between atoms: N_23  and  C_24
REMARK                            x       y       z     vdW  Elec       q    Type
REMARK                         _______ _______ _______ _____ _____    ______ ____
ROOT
ATOM      1  C   UNL     1       1.895   8.649  18.338  0.00  0.00    +0.000 C 
ATOM      2  O   UNL     1       2.230   9.027  17.207  0.00  0.00    +0.000 OA
ATOM      3  N   UNL     1       2.112   7.389  18.862  0.00  0.00    +0.000 N 
ATOM      4  H   UNL     1       1.538   7.091  19.639  0.00  0.00    +0.000 HD
ENDROOT
BRANCH   1  11
ATOM      5  C   UNL     1      -2.501  12.793  23.485  0.00  0.00    +0.000 C 
ATOM      6  C   UNL     1      -1.632  11.854  22.703  0.00  0.00    +0.000 A 
ATOM      7  C   UNL     1      -1.178  10.662  23.266  0.00  0.00    +0.000 A 
ATOM      8  C   UNL     1      -0.403   9.787  22.510  0.00  0.00    +0.000 A 
ATOM      9  C   UNL     1      -0.053  10.113  21.190  0.00  0.00    +0.000 A 
ATOM     10  C   UNL     1       0.730   9.252  20.420  0.00  0.00    +0.000 A 
ATOM     11  C   UNL     1       1.100   9.611  19.123  0.00  0.00    +0.000 A 
ATOM     12  C   UNL     1       0.653  10.824  18.638  0.00  0.00    +0.000 A 
ATOM     13  N   UNL     1      -0.129  11.676  19.355  0.00  0.00    +0.000 NA
ATOM     14  C   UNL     1      -0.479  11.324  20.609  0.00  0.00    +0.000 A 
ATOM     15  C   UNL     1      -1.281  12.161  21.376  0.00  0.00    +0.000 A 
ENDBRANCH   1  11
BRANCH   3  16
ATOM     16  C   UNL     1       2.795   6.362  18.161  0.00  0.00    +0.000 A 
ATOM     17  C   UNL     1       2.401   5.023  18.222  0.00  0.00    +0.000 A 
ATOM     18  C   UNL     1       3.192   4.031  17.652  0.00  0.00    +0.000 A 
ATOM     19  C   UNL     1       4.391   4.362  17.033  0.00  0.00    +0.000 A 
ATOM     20  C   UNL     1       4.796   5.702  16.919  0.00  0.00    +0.000 A 
ATOM     21  C   UNL     1       3.954   6.700  17.452  0.00  0.00    +0.000 A 
BRANCH  20  22
ATOM     22  C   UNL     1       6.152   6.055  16.317  0.00  0.00    +0.000 C 
ATOM     23  C   UNL     1       6.976   6.911  17.308  0.00  0.00    +0.000 C 
BRANCH  22  24
ATOM     24  S   UNL     1       7.163   4.593  15.866  0.00  0.00    +0.000 S 
BRANCH  24  25
ATOM     25  C   UNL     1       6.667   4.264  14.244  0.00  0.00    +0.000 A 
ATOM     26  N   UNL     1       5.670   3.512  13.835  0.00  0.00    +0.000 NA
ATOM     27  N   UNL     1       5.743   3.440  12.457  0.00  0.00    +0.000 NA
ATOM     28  C   UNL     1       6.766   4.170  12.071  0.00  0.00    +0.000 A 
ATOM     29  N   UNL     1       7.335   4.759  13.160  0.00  0.00    +0.000 N 
ATOM     30  C   UNL     1       8.428   5.694  13.151  0.00  0.00    +0.000 C 
ENDBRANCH  24  25
ENDBRANCH  22  24
ENDBRANCH  20  22
ENDBRANCH   3  16
TORSDOF 5
ENDMDL
MODEL 7
REMARK VINA RESULT:      -8.4      3.578      9.769
REMARK  Name = 
REMARK  8 active torsions:
REMARK  status: ('A' for Active; 'I' for Inactive)
REMARK    1  A    between atoms: C_1  and  C_2
REMARK    2  A    between atoms: C_7  and  C_8
REMARK    3  A    between atoms: N_10  and  C_11
REMARK    4  A    between atoms: C_15  and  C_16
REMARK    5  A    between atoms: C_16  and  C_17
REMARK    6  A    between atoms: C_16  and  S_18
REMARK    7  A    between atoms: S_18  and  C_19
REMARK    8  A    between atoms: N_23  and  C_24
REMARK                            x       y       z     vdW  Elec       q    Type
REMARK                         _______ _______ _______ _____ _____    ______ ____
ROOT
ATOM      1  C   UNL     1       1.869   6.828  20.232  0.00  0.00    +0.000 C 
ATOM      2  O   UNL     1       1.152   6.169  20.998  0.00  0.00    +0.000 OA
ATOM      3  N   UNL     1       1.904   8.207  20.151  0.00  0.00    +0.000 N 
ATOM      4  H   UNL     1       2.267   8.626  19.305  0.00  0.00    +0.000 HD
ENDROOT
BRANCH   1  11
ATOM      5  C   UNL     1       6.241   3.824  14.329  0.00  0.00    +0.000 C 
ATOM      6  C   UNL     1       5.499   4.612  15.366  0.00  0.00    +0.000 A 
ATOM      7  C   UNL     1       5.514   6.007  15.351  0.00  0.00    +0.000 A 
ATOM      8  C   UNL     1       4.788   6.719  16.302  0.00  0.00    +0.000 A 
ATOM      9  C   UNL     1       4.062   6.040  17.293  0.00  0.00    +0.000 A 
ATOM     10  C   UNL     1       3.335   6.738  18.258  0.00  0.00    +0.000 A 
ATOM     11  C   UNL     1       2.653   6.045  19.259  0.00  0.00    +0.000 A 
ATOM     12  C   UNL     1       2.712   4.665  19.243  0.00  0.00    +0.000 A 
ATOM     13  N   UNL     1       3.393   3.955  18.304  0.00  0.00    +0.000 NA
ATOM     14  C   UNL     1       4.055   4.632  17.343  0.00  0.00    +0.000 A 
ATOM     15  C   UNL     1       4.760   3.947  16.359  0.00  0.00    +0.000 A 
ENDBRANCH   1  11
BRANCH   3  16
ATOM     16  C   UNL     1       1.130   9.056  20.983  0.00  0.00    +0.000 A 
ATOM     17  C   UNL     1       1.026   8.861  22.363  0.00  0.00    +0.000 A 
ATOM     18  C   UNL     1       0.131   9.616  23.114  0.00  0.00    +0.000 A 
ATOM     19  C   UNL     1      -0.680  10.559  22.494  0.00  0.00    +0.000 A 
ATOM     20  C   UNL     1      -0.571  10.809  21.117  0.00  0.00    +0.000 A 
ATOM     21  C   UNL     1       0.382  10.074  20.380  0.00  0.00    +0.000 A 
BRANCH  20  22
ATOM     22  C   UNL     1      -1.522  11.781  20.426  0.00  0.00    +0.000 C 
ATOM     23  C   UNL     1      -2.420  12.490  21.466  0.00  0.00    +0.000 C 
BRANCH  22  24
ATOM     24  S   UNL     1      -0.671  13.076  19.446  0.00  0.00    +0.000 S 
BRANCH  24  25
ATOM     25  C   UNL     1       0.744  13.404  20.381  0.00  0.00    +0.000 A 
ATOM     26  N   UNL     1       0.818  13.844  21.617  0.00  0.00    +0.000 NA
ATOM     27  N   UNL     1       2.151  14.081  21.894  0.00  0.00    +0.000 NA
ATOM     28  C   UNL     1       2.846  13.755  20.826  0.00  0.00    +0.000 A 
ATOM     29  N   UNL     1       2.006  13.262  19.875  0.00  0.00    +0.000 N 
ATOM     30  C   UNL     1       2.385  12.723  18.596  0.00  0.00    +0.000 C 
ENDBRANCH  24  25
ENDBRANCH  22  24
ENDBRANCH  20  22
ENDBRANCH   3  16
TORSDOF 5
ENDMDL
MODEL 8
REMARK VINA RESULT:      -8.3      2.052      2.870
REMARK  Name = 
REMARK  8 active torsions:
REMARK  status: ('A' for Active; 'I' for Inactive)
REMARK    1  A    between atoms: C_1  and  C_2
REMARK    2  A    between atoms: C_7  and  C_8
REMARK    3  A    between atoms: N_10  and  C_11
REMARK    4  A    between atoms: C_15  and  C_16
REMARK    5  A    between atoms: C_16  and  C_17
REMARK    6  A    between atoms: C_16  and  S_18
REMARK    7  A    between atoms: S_18  and  C_19
REMARK    8  A    between atoms: N_23  and  C_24
REMARK                            x       y       z     vdW  Elec       q    Type
REMARK                         _______ _______ _______ _____ _____    ______ ____
ROOT
ATOM      1  C   UNL     1       2.187   7.768  19.016  0.00  0.00    +0.000 C 
ATOM      2  O   UNL     1       2.633   7.924  17.872  0.00  0.00    +0.000 OA
ATOM      3  N   UNL     1       2.269   6.606  19.760  0.00  0.00    +0.000 N 
ATOM      4  H   UNL     1       1.618   6.481  20.523  0.00  0.00    +0.000 HD
ENDROOT
BRANCH   1  11
ATOM      5  C   UNL     1      -2.304  12.978  22.975  0.00  0.00    +0.000 C 
ATOM      6  C   UNL     1      -1.452  11.867  22.441  0.00  0.00    +0.000 A 
ATOM      7  C   UNL     1      -1.173  10.742  23.217  0.00  0.00    +0.000 A 
ATOM      8  C   UNL     1      -0.411   9.704  22.689  0.00  0.00    +0.000 A 
ATOM      9  C   UNL     1       0.103   9.797  21.385  0.00  0.00    +0.000 A 
ATOM     10  C   UNL     1       0.876   8.770  20.842  0.00  0.00    +0.000 A 
ATOM     11  C   UNL     1       1.410   8.898  19.559  0.00  0.00    +0.000 A 
ATOM     12  C   UNL     1       1.132  10.054  18.857  0.00  0.00    +0.000 A 
ATOM     13  N   UNL     1       0.365  11.064  19.350  0.00  0.00    +0.000 NA
ATOM     14  C   UNL     1      -0.144  10.935  20.593  0.00  0.00    +0.000 A 
ATOM     15  C   UNL     1      -0.938  11.940  21.134  0.00  0.00    +0.000 A 
ENDBRANCH   1  11
BRANCH   3  16
ATOM     16  C   UNL     1       2.923   5.433  19.302  0.00  0.00    +0.000 A 
ATOM     17  C   UNL     1       3.006   4.271  20.072  0.00  0.00    +0.000 A 
ATOM     18  C   UNL     1       3.792   3.204  19.652  0.00  0.00    +0.000 A 
ATOM     19  C   UNL     1       4.518   3.293  18.470  0.00  0.00    +0.000 A 
ATOM     20  C   UNL     1       4.425   4.430  17.651  0.00  0.00    +0.000 A 
ATOM     21  C   UNL     1       3.578   5.480  18.064  0.00  0.00    +0.000 A 
BRANCH  20  22
ATOM     22  C   UNL     1       5.288   4.560  16.401  0.00  0.00    +0.000 C 
ATOM     23  C   UNL     1       5.005   5.902  15.686  0.00  0.00    +0.000 C 
BRANCH  22  24
ATOM     24  S   UNL     1       7.089   4.473  16.735  0.00  0.00    +0.000 S 
BRANCH  24  25
ATOM     25  C   UNL     1       7.466   6.077  17.255  0.00  0.00    +0.000 A 
ATOM     26  N   UNL     1       7.592   7.161  16.522  0.00  0.00    +0.000 NA
ATOM     27  N   UNL     1       8.029   8.174  17.354  0.00  0.00    +0.000 NA
ATOM     28  C   UNL     1       8.131   7.680  18.569  0.00  0.00    +0.000 A 
ATOM     29  N   UNL     1       7.723   6.381  18.562  0.00  0.00    +0.000 N 
ATOM     30  C   UNL     1       7.610   5.516  19.706  0.00  0.00    +0.000 C 
ENDBRANCH  24  25
ENDBRANCH  22  24
ENDBRANCH  20  22
ENDBRANCH   3  16
TORSDOF 5
ENDMDL
MODEL 9
REMARK VINA RESULT:      -8.3      2.680      4.031
REMARK  Name = 
REMARK  8 active torsions:
REMARK  status: ('A' for Active; 'I' for Inactive)
REMARK    1  A    between atoms: C_1  and  C_2
REMARK    2  A    between atoms: C_7  and  C_8
REMARK    3  A    between atoms: N_10  and  C_11
REMARK    4  A    between atoms: C_15  and  C_16
REMARK    5  A    between atoms: C_16  and  C_17
REMARK    6  A    between atoms: C_16  and  S_18
REMARK    7  A    between atoms: S_18  and  C_19
REMARK    8  A    between atoms: N_23  and  C_24
REMARK                            x       y       z     vdW  Elec       q    Type
REMARK                         _______ _______ _______ _____ _____    ______ ____
ROOT
ATOM      1  C   UNL     1       0.514  10.966  20.042  0.00  0.00    +0.000 C 
ATOM      2  O   UNL     1       1.533  11.649  19.875  0.00  0.00    +0.000 OA
ATOM      3  N   UNL     1       0.381   9.628  19.721  0.00  0.00    +0.000 N 
ATOM      4  H   UNL     1      -0.552   9.258  19.599  0.00  0.00    +0.000 HD
ENDROOT
BRANCH   1  11
ATOM      5  C   UNL     1      -5.797  14.078  23.712  0.00  0.00    +0.000 C 
ATOM      6  C   UNL     1      -4.549  13.395  23.241  0.00  0.00    +0.000 A 
ATOM      7  C   UNL     1      -3.823  12.564  24.094  0.00  0.00    +0.000 A 
ATOM      8  C   UNL     1      -2.687  11.909  23.626  0.00  0.00    +0.000 A 
ATOM      9  C   UNL     1      -2.253  12.103  22.305  0.00  0.00    +0.000 A 
ATOM     10  C   UNL     1      -1.112  11.462  21.821  0.00  0.00    +0.000 A 
ATOM     11  C   UNL     1      -0.675  11.698  20.517  0.00  0.00    +0.000 A 
ATOM     12  C   UNL     1      -1.414  12.565  19.736  0.00  0.00    +0.000 A 
ATOM     13  N   UNL     1      -2.542  13.188  20.170  0.00  0.00    +0.000 NA
ATOM     14  C   UNL     1      -2.956  12.959  21.434  0.00  0.00    +0.000 A 
ATOM     15  C   UNL     1      -4.106  13.571  21.919  0.00  0.00    +0.000 A 
ENDBRANCH   1  11
BRANCH   3  16
ATOM     16  C   UNL     1       1.436   8.848  19.183  0.00  0.00    +0.000 A 
ATOM     17  C   UNL     1       2.004   9.115  17.935  0.00  0.00    +0.000 A 
ATOM     18  C   UNL     1       2.922   8.231  17.377  0.00  0.00    +0.000 A 
ATOM     19  C   UNL     1       3.268   7.065  18.050  0.00  0.00    +0.000 A 
ATOM     20  C   UNL     1       2.747   6.787  19.324  0.00  0.00    +0.000 A 
ATOM     21  C   UNL     1       1.861   7.723  19.899  0.00  0.00    +0.000 A 
BRANCH  20  22
ATOM     22  C   UNL     1       3.060   5.467  20.020  0.00  0.00    +0.000 C 
ATOM     23  C   UNL     1       1.796   4.912  20.718  0.00  0.00    +0.000 C 
BRANCH  22  24
ATOM     24  S   UNL     1       3.693   4.169  18.891  0.00  0.00    +0.000 S 
BRANCH  24  25
ATOM     25  C   UNL     1       5.379   4.532  18.788  0.00  0.00    +0.000 A 
ATOM     26  N   UNL     1       6.194   4.894  19.754  0.00  0.00    +0.000 NA
ATOM     27  N   UNL     1       7.410   5.203  19.176  0.00  0.00    +0.000 NA
ATOM     28  C   UNL     1       7.303   4.996  17.881  0.00  0.00    +0.000 A 
ATOM     29  N   UNL     1       6.062   4.509  17.605  0.00  0.00    +0.000 N 
ATOM     30  C   UNL     1       5.579   4.082  16.318  0.00  0.00    +0.000 C 
ENDBRANCH  24  25
ENDBRANCH  22  24
ENDBRANCH  20  22
ENDBRANCH   3  16
TORSDOF 5
ENDMDL
