MODEL 1
REMARK VINA RESULT:      -8.3      0.000      0.000
REMARK  Name = 
REMARK  11 active torsions:
REMARK  status: ('A' for Active; 'I' for Inactive)
REMARK    1  A    between atoms: C_1  and  O_2
REMARK    2  A    between atoms: O_2  and  C_3
REMARK    3  A    between atoms: C_5  and  N_6
REMARK    4  A    between atoms: C_9  and  O_10
REMARK    5  A    between atoms: O_10  and  C_11
REMARK    6  A    between atoms: C_14  and  C_15
REMARK    7  A    between atoms: C_17  and  C_18
REMARK    8  A    between atoms: C_23  and  O_24
REMARK    9  A    between atoms: O_24  and  C_25
REMARK   10  A    between atoms: C_26  and  O_27
REMARK   11  A    between atoms: O_27  and  C_28
REMARK                            x       y       z     vdW  Elec       q    Type
REMARK                         _______ _______ _______ _____ _____    ______ ____
ROOT
ATOM      1  N   UNL     1       3.127   7.735  17.817  0.00  0.00    +0.000 N 
ATOM      2  C   UNL     1       2.124   8.364  18.599  0.00  0.00    +0.000 A 
ATOM      3  C   UNL     1       1.400   9.414  18.042  0.00  0.00    +0.000 A 
ATOM      4  C   UNL     1       0.549  10.165  18.853  0.00  0.00    +0.000 A 
ATOM      5  C   UNL     1       0.381   9.805  20.182  0.00  0.00    +0.000 A 
ATOM      6  C   UNL     1       1.101   8.726  20.650  0.00  0.00    +0.000 A 
ATOM      7  N   UNL     1       1.965   8.014  19.893  0.00  0.00    +0.000 NA
ATOM      8  H   UNL     1       2.971   7.951  16.836  0.00  0.00    +0.000 HD
ENDROOT
BRANCH   1  11
ATOM      9  C   UNL     1       5.078   4.624  18.441  0.00  0.00    +0.000 A 
ATOM     10  C   UNL     1       4.775   5.930  18.025  0.00  0.00    +0.000 A 
ATOM     11  C   UNL     1       3.460   6.357  17.877  0.00  0.00    +0.000 A 
ATOM     12  C   UNL     1       2.444   5.417  18.027  0.00  0.00    +0.000 A 
ATOM     13  C   UNL     1       2.720   4.076  18.348  0.00  0.00    +0.000 A 
ATOM     14  C   UNL     1       4.051   3.665  18.588  0.00  0.00    +0.000 A 
BRANCH   9  16
ATOM     15  C   UNL     1       7.324   4.672  17.692  0.00  0.00    +0.000 C 
ATOM     16  O   UNL     1       6.383   4.286  18.696  0.00  0.00    +0.000 OA
ENDBRANCH   9  16
BRANCH  13  17
ATOM     17  O   UNL     1       1.561   3.342  18.431  0.00  0.00    +0.000 OA
ATOM     18  C   UNL     1       0.900   3.209  19.679  0.00  0.00    +0.000 C 
ENDBRANCH  13  17
BRANCH  14  19
ATOM     19  O   UNL     1       4.231   2.356  18.946  0.00  0.00    +0.000 OA
ATOM     20  C   UNL     1       4.416   1.999  20.303  0.00  0.00    +0.000 C 
ENDBRANCH  14  19
ENDBRANCH   1  11
BRANCH   4  21
ATOM     21  O   UNL     1      -0.187  11.247  18.419  0.00  0.00    +0.000 OA
BRANCH  21  22
ATOM     22  C   UNL     1      -1.550  11.127  18.265  0.00  0.00    +0.000 A 
ATOM     23  C   UNL     1      -2.149  10.238  17.367  0.00  0.00    +0.000 A 
ATOM     24  C   UNL     1      -3.530  10.142  17.309  0.00  0.00    +0.000 A 
ATOM     25  C   UNL     1      -4.294  10.982  18.109  0.00  0.00    +0.000 A 
ATOM     26  C   UNL     1      -5.793  10.910  18.084  0.00  0.00    +0.000 C 
ATOM     27  N   UNL     1      -3.739  11.897  18.939  0.00  0.00    +0.000 NA
ATOM     28  C   UNL     1      -2.383  11.967  19.006  0.00  0.00    +0.000 A 
ATOM     29  C   UNL     1      -1.816  13.015  19.920  0.00  0.00    +0.000 C 
ENDBRANCH  21  22
ENDBRANCH   4  21
TORSDOF 6
ENDMDL
MODEL 2
REMARK VINA RESULT:      -7.8      2.305      9.002
REMARK  Name = 
REMARK  11 active torsions:
REMARK  status: ('A' for Active; 'I' for Inactive)
REMARK    1  A    between atoms: C_1  and  O_2
REMARK    2  A    between atoms: O_2  and  C_3
REMARK    3  A    between atoms: C_5  and  N_6
REMARK    4  A    between atoms: C_9  and  O_10
REMARK    5  A    between atoms: O_10  and  C_11
REMARK    6  A    between atoms: C_14  and  C_15
REMARK    7  A    between atoms: C_17  and  C_18
REMARK    8  A    between atoms: C_23  and  O_24
REMARK    9  A    between atoms: O_24  and  C_25
REMARK   10  A    between atoms: C_26  and  O_27
REMARK   11  A    between atoms: O_27  and  C_28
REMARK                            x       y       z     vdW  Elec       q    Type
REMARK                         _______ _______ _______ _____ _____    ______ ____
ROOT
ATOM      1  N   UNL     1       2.292   7.990  18.323  0.00  0.00    +0.000 N 
ATOM      2  C   UNL     1       2.713   6.693  18.713  0.00  0.00    +0.000 A 
ATOM      3  C   UNL     1       3.996   6.274  18.371  0.00  0.00    +0.000 A 
ATOM      4  C   UNL     1       4.359   4.943  18.576  0.00  0.00    +0.000 A 
ATOM      5  C   UNL     1       3.463   4.079  19.187  0.00  0.00    +0.000 A 
ATOM      6  C   UNL     1       2.225   4.579  19.535  0.00  0.00    +0.000 A 
ATOM      7  N   UNL     1       1.838   5.852  19.304  0.00  0.00    +0.000 NA
ATOM      8  H   UNL     1       3.108   8.555  18.101  0.00  0.00    +0.000 HD
ENDROOT
BRANCH   1  11
ATOM      9  C   UNL     1       0.863   9.882  21.196  0.00  0.00    +0.000 A 
ATOM     10  C   UNL     1       1.440   8.833  20.464  0.00  0.00    +0.000 A 
ATOM     11  C   UNL     1       1.421   8.822  19.074  0.00  0.00    +0.000 A 
ATOM     12  C   UNL     1       0.701   9.818  18.420  0.00  0.00    +0.000 A 
ATOM     13  C   UNL     1       0.028  10.830  19.129  0.00  0.00    +0.000 A 
ATOM     14  C   UNL     1       0.125  10.890  20.538  0.00  0.00    +0.000 A 
BRANCH   9  16
ATOM     15  C   UNL     1      -0.118   9.485  23.315  0.00  0.00    +0.000 C 
ATOM     16  O   UNL     1       1.018   9.914  22.559  0.00  0.00    +0.000 OA
ENDBRANCH   9  16
BRANCH  13  17
ATOM     17  O   UNL     1      -0.618  11.685  18.270  0.00  0.00    +0.000 OA
ATOM     18  C   UNL     1      -2.002  11.509  18.010  0.00  0.00    +0.000 C 
ENDBRANCH  13  17
BRANCH  14  19
ATOM     19  O   UNL     1      -0.515  11.935  21.149  0.00  0.00    +0.000 OA
ATOM     20  C   UNL     1       0.156  13.162  21.368  0.00  0.00    +0.000 C 
ENDBRANCH  14  19
ENDBRANCH   1  11
BRANCH   4  21
ATOM     21  O   UNL     1       5.586   4.410  18.243  0.00  0.00    +0.000 OA
BRANCH  21  22
ATOM     22  C   UNL     1       6.054   4.530  16.955  0.00  0.00    +0.000 A 
ATOM     23  C   UNL     1       5.620   3.724  15.897  0.00  0.00    +0.000 A 
ATOM     24  C   UNL     1       6.105   3.943  14.618  0.00  0.00    +0.000 A 
ATOM     25  C   UNL     1       7.065   4.928  14.425  0.00  0.00    +0.000 A 
ATOM     26  C   UNL     1       7.615   5.204  13.057  0.00  0.00    +0.000 C 
ATOM     27  N   UNL     1       7.551   5.678  15.443  0.00  0.00    +0.000 NA
ATOM     28  C   UNL     1       7.052   5.471  16.690  0.00  0.00    +0.000 A 
ATOM     29  C   UNL     1       7.641   6.308  17.789  0.00  0.00    +0.000 C 
ENDBRANCH  21  22
ENDBRANCH   4  21
TORSDOF 6
ENDMDL
MODEL 3
REMARK VINA RESULT:      -7.8      0.950      2.469
REMARK  Name = 
REMARK  11 active torsions:
REMARK  status: ('A' for Active; 'I' for Inactive)
REMARK    1  A    between atoms: C_1  and  O_2
REMARK    2  A    between atoms: O_2  and  C_3
REMARK    3  A    between atoms: C_5  and  N_6
REMARK    4  A    between atoms: C_9  and  O_10
REMARK    5  A    between atoms: O_10  and  C_11
REMARK    6  A    between atoms: C_14  and  C_15
REMARK    7  A    between atoms: C_17  and  C_18
REMARK    8  A    between atoms: C_23  and  O_24
REMARK    9  A    between atoms: O_24  and  C_25
REMARK   10  A    between atoms: C_26  and  O_27
REMARK   11  A    between atoms: O_27  and  C_28
REMARK                            x       y       z     vdW  Elec       q    Type
REMARK                         _______ _______ _______ _____ _____    ______ ____
ROOT
ATOM      1  N   UNL     1       2.844   7.467  17.918  0.00  0.00    +0.000 N 
ATOM      2  C   UNL     1       1.953   8.227  18.718  0.00  0.00    +0.000 A 
ATOM      3  C   UNL     1       1.269   9.290  18.134  0.00  0.00    +0.000 A 
ATOM      4  C   UNL     1       0.540  10.162  18.943  0.00  0.00    +0.000 A 
ATOM      5  C   UNL     1       0.447   9.911  20.304  0.00  0.00    +0.000 A 
ATOM      6  C   UNL     1       1.119   8.814  20.802  0.00  0.00    +0.000 A 
ATOM      7  N   UNL     1       1.868   7.984  20.043  0.00  0.00    +0.000 NA
ATOM      8  H   UNL     1       2.630   7.624  16.936  0.00  0.00    +0.000 HD
ENDROOT
BRANCH   1  11
ATOM      9  C   UNL     1       2.214   3.857  18.583  0.00  0.00    +0.000 A 
ATOM     10  C   UNL     1       2.190   5.251  18.741  0.00  0.00    +0.000 A 
ATOM     11  C   UNL     1       3.078   6.075  18.059  0.00  0.00    +0.000 A 
ATOM     12  C   UNL     1       4.083   5.474  17.307  0.00  0.00    +0.000 A 
ATOM     13  C   UNL     1       4.196   4.075  17.206  0.00  0.00    +0.000 A 
ATOM     14  C   UNL     1       3.237   3.242  17.827  0.00  0.00    +0.000 A 
BRANCH   9  16
ATOM     15  C   UNL     1       1.088   3.281  20.586  0.00  0.00    +0.000 C 
ATOM     16  O   UNL     1       1.238   3.095  19.176  0.00  0.00    +0.000 OA
ENDBRANCH   9  16
BRANCH  13  17
ATOM     17  O   UNL     1       5.268   3.723  16.423  0.00  0.00    +0.000 OA
ATOM     18  C   UNL     1       6.272   4.681  16.132  0.00  0.00    +0.000 C 
ENDBRANCH  13  17
BRANCH  14  19
ATOM     19  O   UNL     1       3.386   1.894  17.639  0.00  0.00    +0.000 OA
ATOM     20  C   UNL     1       3.937   1.081  18.658  0.00  0.00    +0.000 C 
ENDBRANCH  14  19
ENDBRANCH   1  11
BRANCH   4  21
ATOM     21  O   UNL     1      -0.145  11.265  18.480  0.00  0.00    +0.000 OA
BRANCH  21  22
ATOM     22  C   UNL     1      -1.504  11.187  18.276  0.00  0.00    +0.000 A 
ATOM     23  C   UNL     1      -2.093  10.371  17.305  0.00  0.00    +0.000 A 
ATOM     24  C   UNL     1      -3.473  10.312  17.197  0.00  0.00    +0.000 A 
ATOM     25  C   UNL     1      -4.244  11.119  18.024  0.00  0.00    +0.000 A 
ATOM     26  C   UNL     1      -5.742  11.086  17.946  0.00  0.00    +0.000 C 
ATOM     27  N   UNL     1      -3.697  11.967  18.927  0.00  0.00    +0.000 NA
ATOM     28  C   UNL     1      -2.343  12.000  19.041  0.00  0.00    +0.000 A 
ATOM     29  C   UNL     1      -1.784  12.976  20.037  0.00  0.00    +0.000 C 
ENDBRANCH  21  22
ENDBRANCH   4  21
TORSDOF 6
ENDMDL
MODEL 4
REMARK VINA RESULT:      -7.7      2.288      8.960
REMARK  Name = 
REMARK  11 active torsions:
REMARK  status: ('A' for Active; 'I' for Inactive)
REMARK    1  A    between atoms: C_1  and  O_2
REMARK    2  A    between atoms: O_2  and  C_3
REMARK    3  A    between atoms: C_5  and  N_6
REMARK    4  A    between atoms: C_9  and  O_10
REMARK    5  A    between atoms: O_10  and  C_11
REMARK    6  A    between atoms: C_14  and  C_15
REMARK    7  A    between atoms: C_17  and  C_18
REMARK    8  A    between atoms: C_23  and  O_24
REMARK    9  A    between atoms: O_24  and  C_25
REMARK   10  A    between atoms: C_26  and  O_27
REMARK   11  A    between atoms: O_27  and  C_28
REMARK                            x       y       z     vdW  Elec       q    Type
REMARK                         _______ _______ _______ _____ _____    ______ ____
ROOT
ATOM      1  N   UNL     1       2.104   8.223  17.960  0.00  0.00    +0.000 N 
ATOM      2  C   UNL     1       2.624   7.110  18.670  0.00  0.00    +0.000 A 
ATOM      3  C   UNL     1       3.875   6.615  18.315  0.00  0.00    +0.000 A 
ATOM      4  C   UNL     1       4.317   5.412  18.868  0.00  0.00    +0.000 A 
ATOM      5  C   UNL     1       3.534   4.771  19.818  0.00  0.00    +0.000 A 
ATOM      6  C   UNL     1       2.325   5.347  20.147  0.00  0.00    +0.000 A 
ATOM      7  N   UNL     1       1.859   6.486  19.590  0.00  0.00    +0.000 NA
ATOM      8  H   UNL     1       2.864   8.697  17.478  0.00  0.00    +0.000 HD
ENDROOT
BRANCH   1  11
ATOM      9  C   UNL     1      -0.779  10.525  18.470  0.00  0.00    +0.000 A 
ATOM     10  C   UNL     1       0.232   9.802  17.819  0.00  0.00    +0.000 A 
ATOM     11  C   UNL     1       1.291   9.240  18.523  0.00  0.00    +0.000 A 
ATOM     12  C   UNL     1       1.396   9.520  19.883  0.00  0.00    +0.000 A 
ATOM     13  C   UNL     1       0.451  10.323  20.548  0.00  0.00    +0.000 A 
ATOM     14  C   UNL     1      -0.673  10.817  19.848  0.00  0.00    +0.000 A 
BRANCH   9  16
ATOM     15  C   UNL     1      -2.286  10.083  16.697  0.00  0.00    +0.000 C 
ATOM     16  O   UNL     1      -1.869  10.952  17.753  0.00  0.00    +0.000 OA
ENDBRANCH   9  16
BRANCH  13  17
ATOM     17  O   UNL     1       0.772  10.464  21.876  0.00  0.00    +0.000 OA
ATOM     18  C   UNL     1       0.557   9.384  22.771  0.00  0.00    +0.000 C 
ENDBRANCH  13  17
BRANCH  14  19
ATOM     19  O   UNL     1      -1.573  11.548  20.578  0.00  0.00    +0.000 OA
ATOM     20  C   UNL     1      -1.566  12.962  20.524  0.00  0.00    +0.000 C 
ENDBRANCH  14  19
ENDBRANCH   1  11
BRANCH   4  21
ATOM     21  O   UNL     1       5.519   4.810  18.564  0.00  0.00    +0.000 OA
BRANCH  21  22
ATOM     22  C   UNL     1       5.949   4.767  17.258  0.00  0.00    +0.000 A 
ATOM     23  C   UNL     1       5.436   3.881  16.305  0.00  0.00    +0.000 A 
ATOM     24  C   UNL     1       5.888   3.937  14.996  0.00  0.00    +0.000 A 
ATOM     25  C   UNL     1       6.893   4.840  14.673  0.00  0.00    +0.000 A 
ATOM     26  C   UNL     1       7.410   4.939  13.268  0.00  0.00    +0.000 C 
ATOM     27  N   UNL     1       7.453   5.663  15.591  0.00  0.00    +0.000 NA
ATOM     28  C   UNL     1       6.986   5.617  16.867  0.00  0.00    +0.000 A 
ATOM     29  C   UNL     1       7.657   6.529  17.853  0.00  0.00    +0.000 C 
ENDBRANCH  21  22
ENDBRANCH   4  21
TORSDOF 6
ENDMDL
MODEL 5
REMARK VINA RESULT:      -7.7      2.375      8.970
REMARK  Name = 
REMARK  11 active torsions:
REMARK  status: ('A' for Active; 'I' for Inactive)
REMARK    1  A    between atoms: C_1  and  O_2
REMARK    2  A    between atoms: O_2  and  C_3
REMARK    3  A    between atoms: C_5  and  N_6
REMARK    4  A    between atoms: C_9  and  O_10
REMARK    5  A    between atoms: O_10  and  C_11
REMARK    6  A    between atoms: C_14  and  C_15
REMARK    7  A    between atoms: C_17  and  C_18
REMARK    8  A    between atoms: C_23  and  O_24
REMARK    9  A    between atoms: O_24  and  C_25
REMARK   10  A    between atoms: C_26  and  O_27
REMARK   11  A    between atoms: O_27  and  C_28
REMARK                            x       y       z     vdW  Elec       q    Type
REMARK                         _______ _______ _______ _____ _____    ______ ____
ROOT
ATOM      1  N   UNL     1       2.192   8.510  17.630  0.00  0.00    +0.000 N 
ATOM      2  C   UNL     1       2.665   7.429  18.417  0.00  0.00    +0.000 A 
ATOM      3  C   UNL     1       3.868   6.822  18.067  0.00  0.00    +0.000 A 
ATOM      4  C   UNL     1       4.251   5.643  18.708  0.00  0.00    +0.000 A 
ATOM      5  C   UNL     1       3.466   5.139  19.735  0.00  0.00    +0.000 A 
ATOM      6  C   UNL     1       2.309   5.821  20.051  0.00  0.00    +0.000 A 
ATOM      7  N   UNL     1       1.897   6.938  19.412  0.00  0.00    +0.000 NA
ATOM      8  H   UNL     1       2.962   8.890  17.084  0.00  0.00    +0.000 HD
ENDROOT
BRANCH   1  11
ATOM      9  C   UNL     1       1.376  12.014  18.593  0.00  0.00    +0.000 A 
ATOM     10  C   UNL     1       2.099  10.820  18.451  0.00  0.00    +0.000 A 
ATOM     11  C   UNL     1       1.468   9.624  18.128  0.00  0.00    +0.000 A 
ATOM     12  C   UNL     1       0.077   9.610  18.075  0.00  0.00    +0.000 A 
ATOM     13  C   UNL     1      -0.683  10.770  18.310  0.00  0.00    +0.000 A 
ATOM     14  C   UNL     1      -0.035  12.004  18.547  0.00  0.00    +0.000 A 
BRANCH   9  16
ATOM     15  C   UNL     1       2.451  13.458  20.133  0.00  0.00    +0.000 C 
ATOM     16  O   UNL     1       2.055  13.192  18.785  0.00  0.00    +0.000 OA
ENDBRANCH   9  16
BRANCH  13  17
ATOM     17  O   UNL     1      -2.028  10.506  18.213  0.00  0.00    +0.000 OA
ATOM     18  C   UNL     1      -2.546   9.917  17.031  0.00  0.00    +0.000 C 
ENDBRANCH  13  17
BRANCH  14  19
ATOM     19  O   UNL     1      -0.844  13.096  18.715  0.00  0.00    +0.000 OA
ATOM     20  C   UNL     1      -1.317  13.453  20.001  0.00  0.00    +0.000 C 
ENDBRANCH  14  19
ENDBRANCH   1  11
BRANCH   4  21
ATOM     21  O   UNL     1       5.400   4.938  18.420  0.00  0.00    +0.000 OA
BRANCH  21  22
ATOM     22  C   UNL     1       5.854   4.876  17.122  0.00  0.00    +0.000 A 
ATOM     23  C   UNL     1       5.325   4.010  16.160  0.00  0.00    +0.000 A 
ATOM     24  C   UNL     1       5.805   4.045  14.861  0.00  0.00    +0.000 A 
ATOM     25  C   UNL     1       6.852   4.906  14.557  0.00  0.00    +0.000 A 
ATOM     26  C   UNL     1       7.401   4.983  13.163  0.00  0.00    +0.000 C 
ATOM     27  N   UNL     1       7.426   5.708  15.486  0.00  0.00    +0.000 NA
ATOM     28  C   UNL     1       6.932   5.683  16.752  0.00  0.00    +0.000 A 
ATOM     29  C   UNL     1       7.619   6.569  17.750  0.00  0.00    +0.000 C 
ENDBRANCH  21  22
ENDBRANCH   4  21
TORSDOF 6
ENDMDL
MODEL 6
REMARK VINA RESULT:      -7.6      0.842      2.825
REMARK  Name = 
REMARK  11 active torsions:
REMARK  status: ('A' for Active; 'I' for Inactive)
REMARK    1  A    between atoms: C_1  and  O_2
REMARK    2  A    between atoms: O_2  and  C_3
REMARK    3  A    between atoms: C_5  and  N_6
REMARK    4  A    between atoms: C_9  and  O_10
REMARK    5  A    between atoms: O_10  and  C_11
REMARK    6  A    between atoms: C_14  and  C_15
REMARK    7  A    between atoms: C_17  and  C_18
REMARK    8  A    between atoms: C_23  and  O_24
REMARK    9  A    between atoms: O_24  and  C_25
REMARK   10  A    between atoms: C_26  and  O_27
REMARK   11  A    between atoms: O_27  and  C_28
REMARK                            x       y       z     vdW  Elec       q    Type
REMARK                         _______ _______ _______ _____ _____    ______ ____
ROOT
ATOM      1  N   UNL     1       2.848   7.700  18.127  0.00  0.00    +0.000 N 
ATOM      2  C   UNL     1       1.883   8.452  18.845  0.00  0.00    +0.000 A 
ATOM      3  C   UNL     1       1.238   9.503  18.200  0.00  0.00    +0.000 A 
ATOM      4  C   UNL     1       0.432  10.370  18.941  0.00  0.00    +0.000 A 
ATOM      5  C   UNL     1       0.229  10.123  20.291  0.00  0.00    +0.000 A 
ATOM      6  C   UNL     1       0.871   9.037  20.849  0.00  0.00    +0.000 A 
ATOM      7  N   UNL     1       1.691   8.214  20.159  0.00  0.00    +0.000 NA
ATOM      8  H   UNL     1       2.715   7.850  17.130  0.00  0.00    +0.000 HD
ENDROOT
BRANCH   1  11
ATOM      9  C   UNL     1       2.368   4.012  17.925  0.00  0.00    +0.000 A 
ATOM     10  C   UNL     1       2.077   5.371  18.117  0.00  0.00    +0.000 A 
ATOM     11  C   UNL     1       3.086   6.311  18.294  0.00  0.00    +0.000 A 
ATOM     12  C   UNL     1       4.396   5.854  18.405  0.00  0.00    +0.000 A 
ATOM     13  C   UNL     1       4.712   4.486  18.314  0.00  0.00    +0.000 A 
ATOM     14  C   UNL     1       3.695   3.542  18.043  0.00  0.00    +0.000 A 
BRANCH   9  16
ATOM     15  C   UNL     1       0.689   2.561  18.755  0.00  0.00    +0.000 C 
ATOM     16  O   UNL     1       1.349   3.142  17.627  0.00  0.00    +0.000 OA
ENDBRANCH   9  16
BRANCH  13  17
ATOM     17  O   UNL     1       6.062   4.281  18.465  0.00  0.00    +0.000 OA
ATOM     18  C   UNL     1       6.953   4.674  17.433  0.00  0.00    +0.000 C 
ENDBRANCH  13  17
BRANCH  14  19
ATOM     19  O   UNL     1       4.091   2.237  17.918  0.00  0.00    +0.000 OA
ATOM     20  C   UNL     1       4.051   1.362  19.031  0.00  0.00    +0.000 C 
ENDBRANCH  14  19
ENDBRANCH   1  11
BRANCH   4  21
ATOM     21  O   UNL     1      -0.225  11.462  18.417  0.00  0.00    +0.000 OA
BRANCH  21  22
ATOM     22  C   UNL     1      -1.546  11.680  18.736  0.00  0.00    +0.000 A 
ATOM     23  C   UNL     1      -1.960  12.445  19.831  0.00  0.00    +0.000 A 
ATOM     24  C   UNL     1      -3.310  12.658  20.054  0.00  0.00    +0.000 A 
ATOM     25  C   UNL     1      -4.232  12.050  19.210  0.00  0.00    +0.000 A 
ATOM     26  C   UNL     1      -5.705  12.256  19.410  0.00  0.00    +0.000 C 
ATOM     27  N   UNL     1      -3.859  11.251  18.182  0.00  0.00    +0.000 NA
ATOM     28  C   UNL     1      -2.531  11.068  17.958  0.00  0.00    +0.000 A 
ATOM     29  C   UNL     1      -2.169  10.153  16.824  0.00  0.00    +0.000 C 
ENDBRANCH  21  22
ENDBRANCH   4  21
TORSDOF 6
ENDMDL
MODEL 7
REMARK VINA RESULT:      -7.6      2.873      9.069
REMARK  Name = 
REMARK  11 active torsions:
REMARK  status: ('A' for Active; 'I' for Inactive)
REMARK    1  A    between atoms: C_1  and  O_2
REMARK    2  A    between atoms: O_2  and  C_3
REMARK    3  A    between atoms: C_5  and  N_6
REMARK    4  A    between atoms: C_9  and  O_10
REMARK    5  A    between atoms: O_10  and  C_11
REMARK    6  A    between atoms: C_14  and  C_15
REMARK    7  A    between atoms: C_17  and  C_18
REMARK    8  A    between atoms: C_23  and  O_24
REMARK    9  A    between atoms: O_24  and  C_25
REMARK   10  A    between atoms: C_26  and  O_27
REMARK   11  A    between atoms: O_27  and  C_28
REMARK                            x       y       z     vdW  Elec       q    Type
REMARK                         _______ _______ _______ _____ _____    ______ ____
ROOT
ATOM      1  N   UNL     1       2.144   8.065  18.565  0.00  0.00    +0.000 N 
ATOM      2  C   UNL     1       2.563   6.879  19.221  0.00  0.00    +0.000 A 
ATOM      3  C   UNL     1       3.723   6.246  18.783  0.00  0.00    +0.000 A 
ATOM      4  C   UNL     1       4.045   4.984  19.285  0.00  0.00    +0.000 A 
ATOM      5  C   UNL     1       3.246   4.417  20.266  0.00  0.00    +0.000 A 
ATOM      6  C   UNL     1       2.136   5.125  20.678  0.00  0.00    +0.000 A 
ATOM      7  N   UNL     1       1.781   6.327  20.172  0.00  0.00    +0.000 NA
ATOM      8  H   UNL     1       2.927   8.457  18.048  0.00  0.00    +0.000 HD
ENDROOT
BRANCH   1  11
ATOM      9  C   UNL     1       0.825  10.282  21.252  0.00  0.00    +0.000 A 
ATOM     10  C   UNL     1       1.128   9.113  20.537  0.00  0.00    +0.000 A 
ATOM     11  C   UNL     1       1.493   9.157  19.196  0.00  0.00    +0.000 A 
ATOM     12  C   UNL     1       1.428  10.382  18.539  0.00  0.00    +0.000 A 
ATOM     13  C   UNL     1       1.033  11.558  19.203  0.00  0.00    +0.000 A 
ATOM     14  C   UNL     1       0.750  11.526  20.588  0.00  0.00    +0.000 A 
BRANCH   9  16
ATOM     15  C   UNL     1      -0.554   9.442  22.985  0.00  0.00    +0.000 C 
ATOM     16  O   UNL     1       0.595  10.203  22.603  0.00  0.00    +0.000 OA
ENDBRANCH   9  16
BRANCH  13  17
ATOM     17  O   UNL     1       1.036  12.631  18.346  0.00  0.00    +0.000 OA
ATOM     18  C   UNL     1       2.210  13.414  18.201  0.00  0.00    +0.000 C 
ENDBRANCH  13  17
BRANCH  14  19
ATOM     19  O   UNL     1       0.424  12.721  21.172  0.00  0.00    +0.000 OA
ATOM     20  C   UNL     1      -0.929  13.121  21.287  0.00  0.00    +0.000 C 
ENDBRANCH  14  19
ENDBRANCH   1  11
BRANCH   4  21
ATOM     21  O   UNL     1       5.146   4.250  18.898  0.00  0.00    +0.000 OA
BRANCH  21  22
ATOM     22  C   UNL     1       5.635   4.378  17.618  0.00  0.00    +0.000 A 
ATOM     23  C   UNL     1       4.936   3.963  16.480  0.00  0.00    +0.000 A 
ATOM     24  C   UNL     1       5.477   4.173  15.222  0.00  0.00    +0.000 A 
ATOM     25  C   UNL     1       6.740   4.742  15.123  0.00  0.00    +0.000 A 
ATOM     26  C   UNL     1       7.365   4.993  13.782  0.00  0.00    +0.000 C 
ATOM     27  N   UNL     1       7.466   5.092  16.212  0.00  0.00    +0.000 NA
ATOM     28  C   UNL     1       6.916   4.904  17.441  0.00  0.00    +0.000 A 
ATOM     29  C   UNL     1       7.770   5.283  18.616  0.00  0.00    +0.000 C 
ENDBRANCH  21  22
ENDBRANCH   4  21
TORSDOF 6
ENDMDL
MODEL 8
REMARK VINA RESULT:      -7.5      1.633      2.695
REMARK  Name = 
REMARK  11 active torsions:
REMARK  status: ('A' for Active; 'I' for Inactive)
REMARK    1  A    between atoms: C_1  and  O_2
REMARK    2  A    between atoms: O_2  and  C_3
REMARK    3  A    between atoms: C_5  and  N_6
REMARK    4  A    between atoms: C_9  and  O_10
REMARK    5  A    between atoms: O_10  and  C_11
REMARK    6  A    between atoms: C_14  and  C_15
REMARK    7  A    between atoms: C_17  and  C_18
REMARK    8  A    between atoms: C_23  and  O_24
REMARK    9  A    between atoms: O_24  and  C_25
REMARK   10  A    between atoms: C_26  and  O_27
REMARK   11  A    between atoms: O_27  and  C_28
REMARK                            x       y       z     vdW  Elec       q    Type
REMARK                         _______ _______ _______ _____ _____    ______ ____
ROOT
ATOM      1  N   UNL     1       3.000   7.736  17.806  0.00  0.00    +0.000 N 
ATOM      2  C   UNL     1       2.013   8.346  18.621  0.00  0.00    +0.000 A 
ATOM      3  C   UNL     1       1.206   9.337  18.066  0.00  0.00    +0.000 A 
ATOM      4  C   UNL     1       0.365  10.078  18.897  0.00  0.00    +0.000 A 
ATOM      5  C   UNL     1       0.291   9.765  20.247  0.00  0.00    +0.000 A 
ATOM      6  C   UNL     1       1.092   8.743  20.712  0.00  0.00    +0.000 A 
ATOM      7  N   UNL     1       1.946   8.044  19.934  0.00  0.00    +0.000 NA
ATOM      8  H   UNL     1       2.777   7.902  16.827  0.00  0.00    +0.000 HD
ENDROOT
BRANCH   1  11
ATOM      9  C   UNL     1       5.056   4.740  18.627  0.00  0.00    +0.000 A 
ATOM     10  C   UNL     1       4.721   6.029  18.183  0.00  0.00    +0.000 A 
ATOM     11  C   UNL     1       3.406   6.379  17.898  0.00  0.00    +0.000 A 
ATOM     12  C   UNL     1       2.438   5.380  17.942  0.00  0.00    +0.000 A 
ATOM     13  C   UNL     1       2.757   4.055  18.289  0.00  0.00    +0.000 A 
ATOM     14  C   UNL     1       4.078   3.722  18.666  0.00  0.00    +0.000 A 
BRANCH   9  16
ATOM     15  C   UNL     1       7.193   5.623  19.143  0.00  0.00    +0.000 C 
ATOM     16  O   UNL     1       6.346   4.478  19.017  0.00  0.00    +0.000 OA
ENDBRANCH   9  16
BRANCH  13  17
ATOM     17  O   UNL     1       1.642   3.254  18.251  0.00  0.00    +0.000 OA
ATOM     18  C   UNL     1       0.876   3.056  19.429  0.00  0.00    +0.000 C 
ENDBRANCH  13  17
BRANCH  14  19
ATOM     19  O   UNL     1       4.297   2.423  19.040  0.00  0.00    +0.000 OA
ATOM     20  C   UNL     1       4.373   2.070  20.409  0.00  0.00    +0.000 C 
ENDBRANCH  14  19
ENDBRANCH   1  11
BRANCH   4  21
ATOM     21  O   UNL     1      -0.449  11.104  18.466  0.00  0.00    +0.000 OA
BRANCH  21  22
ATOM     22  C   UNL     1      -0.132  12.405  18.782  0.00  0.00    +0.000 A 
ATOM     23  C   UNL     1       1.108  12.987  18.500  0.00  0.00    +0.000 A 
ATOM     24  C   UNL     1       1.330  14.320  18.806  0.00  0.00    +0.000 A 
ATOM     25  C   UNL     1       0.328  15.036  19.447  0.00  0.00    +0.000 A 
ATOM     26  C   UNL     1       0.522  16.483  19.794  0.00  0.00    +0.000 C 
ATOM     27  N   UNL     1      -0.857  14.478  19.791  0.00  0.00    +0.000 NA
ATOM     28  C   UNL     1      -1.075  13.176  19.465  0.00  0.00    +0.000 A 
ATOM     29  C   UNL     1      -2.392  12.596  19.891  0.00  0.00    +0.000 C 
ENDBRANCH  21  22
ENDBRANCH   4  21
TORSDOF 6
ENDMDL
MODEL 9
REMARK VINA RESULT:      -7.5      2.372      9.052
REMARK  Name = 
REMARK  11 active torsions:
REMARK  status: ('A' for Active; 'I' for Inactive)
REMARK    1  A    between atoms: C_1  and  O_2
REMARK    2  A    between atoms: O_2  and  C_3
REMARK    3  A    between atoms: C_5  and  N_6
REMARK    4  A    between atoms: C_9  and  O_10
REMARK    5  A    between atoms: O_10  and  C_11
REMARK    6  A    between atoms: C_14  and  C_15
REMARK    7  A    between atoms: C_17  and  C_18
REMARK    8  A    between atoms: C_23  and  O_24
REMARK    9  A    between atoms: O_24  and  C_25
REMARK   10  A    between atoms: C_26  and  O_27
REMARK   11  A    between atoms: O_27  and  C_28
REMARK                            x       y       z     vdW  Elec       q    Type
REMARK                         _______ _______ _______ _____ _____    ______ ____
ROOT
ATOM      1  N   UNL     1       1.981   8.572  17.734  0.00  0.00    +0.000 N 
ATOM      2  C   UNL     1       2.483   7.508  18.527  0.00  0.00    +0.000 A 
ATOM      3  C   UNL     1       3.726   6.967  18.211  0.00  0.00    +0.000 A 
ATOM      4  C   UNL     1       4.149   5.803  18.855  0.00  0.00    +0.000 A 
ATOM      5  C   UNL     1       3.358   5.249  19.851  0.00  0.00    +0.000 A 
ATOM      6  C   UNL     1       2.158   5.868  20.135  0.00  0.00    +0.000 A 
ATOM      7  N   UNL     1       1.710   6.969  19.493  0.00  0.00    +0.000 NA
ATOM      8  H   UNL     1       2.747   8.995  17.217  0.00  0.00    +0.000 HD
ENDROOT
BRANCH   1  11
ATOM      9  C   UNL     1      -1.027  10.575  18.636  0.00  0.00    +0.000 A 
ATOM     10  C   UNL     1      -0.163   9.755  17.895  0.00  0.00    +0.000 A 
ATOM     11  C   UNL     1       1.185   9.642  18.219  0.00  0.00    +0.000 A 
ATOM     12  C   UNL     1       1.689  10.465  19.222  0.00  0.00    +0.000 A 
ATOM     13  C   UNL     1       0.868  11.370  19.919  0.00  0.00    +0.000 A 
ATOM     14  C   UNL     1      -0.519  11.416  19.650  0.00  0.00    +0.000 A 
BRANCH   9  16
ATOM     15  C   UNL     1      -2.745   9.844  17.178  0.00  0.00    +0.000 C 
ATOM     16  O   UNL     1      -2.372  10.556  18.361  0.00  0.00    +0.000 OA
ENDBRANCH   9  16
BRANCH  13  17
ATOM     17  O   UNL     1       1.592  12.076  20.849  0.00  0.00    +0.000 OA
ATOM     18  C   UNL     1       2.183  13.314  20.488  0.00  0.00    +0.000 C 
ENDBRANCH  13  17
BRANCH  14  19
ATOM     19  O   UNL     1      -1.259  12.286  20.407  0.00  0.00    +0.000 OA
ATOM     20  C   UNL     1      -1.693  11.923  21.704  0.00  0.00    +0.000 C 
ENDBRANCH  14  19
ENDBRANCH   1  11
BRANCH   4  21
ATOM     21  O   UNL     1       5.340   5.159  18.597  0.00  0.00    +0.000 OA
BRANCH  21  22
ATOM     22  C   UNL     1       5.772   5.018  17.298  0.00  0.00    +0.000 A 
ATOM     23  C   UNL     1       5.206   4.116  16.391  0.00  0.00    +0.000 A 
ATOM     24  C   UNL     1       5.666   4.071  15.085  0.00  0.00    +0.000 A 
ATOM     25  C   UNL     1       6.728   4.888  14.720  0.00  0.00    +0.000 A 
ATOM     26  C   UNL     1       7.257   4.877  13.316  0.00  0.00    +0.000 C 
ATOM     27  N   UNL     1       7.337   5.722  15.597  0.00  0.00    +0.000 NA
ATOM     28  C   UNL     1       6.863   5.776  16.870  0.00  0.00    +0.000 A 
ATOM     29  C   UNL     1       7.588   6.696  17.810  0.00  0.00    +0.000 C 
ENDBRANCH  21  22
ENDBRANCH   4  21
TORSDOF 6
ENDMDL
