MODEL 1
REMARK VINA RESULT:      -8.8      0.000      0.000
REMARK  Name = 
REMARK  3 active torsions:
REMARK  status: ('A' for Active; 'I' for Inactive)
REMARK    1  A    between atoms: O_1  and  C_2
REMARK    2  A    between atoms: C_2  and  C_3
REMARK    3  A    between atoms: C_16  and  C_17
REMARK                            x       y       z     vdW  Elec       q    Type
REMARK                         _______ _______ _______ _____ _____    ______ ____
ROOT
ATOM      1  C   UNL     1       3.280   4.844  18.684  0.00  0.00    +0.000 C 
ATOM      2  C   UNL     1       4.166   4.802  17.435  0.00  0.00    +0.000 A 
ATOM      3  C   UNL     1       4.821   3.719  16.860  0.00  0.00    +0.000 A 
ATOM      4  C   UNL     1       5.568   3.940  15.702  0.00  0.00    +0.000 A 
ATOM      5  C   UNL     1       5.667   5.224  15.139  0.00  0.00    +0.000 A 
ATOM      6  C   UNL     1       5.017   6.310  15.730  0.00  0.00    +0.000 A 
ATOM      7  C   UNL     1       4.272   6.094  16.873  0.00  0.00    +0.000 A 
ATOM      8  C   UNL     1       3.498   7.019  17.673  0.00  0.00    +0.000 A 
ATOM      9  C   UNL     1       3.321   8.380  17.547  0.00  0.00    +0.000 A 
ATOM     10  C   UNL     1       2.510   9.043  18.480  0.00  0.00    +0.000 A 
ATOM     11  C   UNL     1       1.816   8.364  19.511  0.00  0.00    +0.000 A 
ATOM     12  C   UNL     1       2.043   6.975  19.626  0.00  0.00    +0.000 A 
ATOM     13  C   UNL     1       2.879   6.320  18.722  0.00  0.00    +0.000 A 
ENDROOT
BRANCH  11  14
ATOM     14  C   UNL     1       0.909   9.077  20.461  0.00  0.00    +0.000 A 
ATOM     15  C   UNL     1       1.048   8.844  21.851  0.00  0.00    +0.000 A 
ATOM     16  C   UNL     1       0.239   9.474  22.804  0.00  0.00    +0.000 A 
ATOM     17  C   UNL     1      -0.722  10.391  22.403  0.00  0.00    +0.000 A 
ATOM     18  C   UNL     1      -0.893  10.648  21.047  0.00  0.00    +0.000 A 
ATOM     19  C   UNL     1      -0.113   9.983  20.084  0.00  0.00    +0.000 A 
ATOM     20 CL   UNL     1      -0.562  10.303  18.438  0.00  0.00    +0.000 Cl
ENDBRANCH  11  14
BRANCH   1  21
ATOM     21  C   UNL     1       2.067   3.860  18.647  0.00  0.00    +0.000 C 
ATOM     22  F   UNL     1       1.211   4.215  17.648  0.00  0.00    +0.000 F 
ATOM     23  F   UNL     1       2.414   2.573  18.417  0.00  0.00    +0.000 F 
ATOM     24  F   UNL     1       1.335   3.873  19.786  0.00  0.00    +0.000 F 
ENDBRANCH   1  21
BRANCH   1  25
ATOM     25  O   UNL     1       4.144   4.633  19.820  0.00  0.00    +0.000 OA
ATOM     26  H   UNL     1       4.817   5.335  19.796  0.00  0.00    +0.000 HD
ENDBRANCH   1  25
TORSDOF 3
ENDMDL
MODEL 2
REMARK VINA RESULT:      -8.7      0.657      1.030
REMARK  Name = 
REMARK  3 active torsions:
REMARK  status: ('A' for Active; 'I' for Inactive)
REMARK    1  A    between atoms: O_1  and  C_2
REMARK    2  A    between atoms: C_2  and  C_3
REMARK    3  A    between atoms: C_16  and  C_17
REMARK                            x       y       z     vdW  Elec       q    Type
REMARK                         _______ _______ _______ _____ _____    ______ ____
ROOT
ATOM      1  C   UNL     1       3.044   5.097  19.283  0.00  0.00    +0.000 C 
ATOM      2  C   UNL     1       3.883   4.983  18.006  0.00  0.00    +0.000 A 
ATOM      3  C   UNL     1       4.557   3.879  17.495  0.00  0.00    +0.000 A 
ATOM      4  C   UNL     1       5.250   4.028  16.292  0.00  0.00    +0.000 A 
ATOM      5  C   UNL     1       5.278   5.264  15.623  0.00  0.00    +0.000 A 
ATOM      6  C   UNL     1       4.610   6.373  16.149  0.00  0.00    +0.000 A 
ATOM      7  C   UNL     1       3.919   6.226  17.337  0.00  0.00    +0.000 A 
ATOM      8  C   UNL     1       3.141   7.186  18.089  0.00  0.00    +0.000 A 
ATOM      9  C   UNL     1       2.907   8.525  17.860  0.00  0.00    +0.000 A 
ATOM     10  C   UNL     1       2.108   9.235  18.768  0.00  0.00    +0.000 A 
ATOM     11  C   UNL     1       1.480   8.620  19.879  0.00  0.00    +0.000 A 
ATOM     12  C   UNL     1       1.764   7.254  20.098  0.00  0.00    +0.000 A 
ATOM     13  C   UNL     1       2.590   6.556  19.216  0.00  0.00    +0.000 A 
ENDROOT
BRANCH  11  14
ATOM     14  C   UNL     1       0.584   9.378  20.804  0.00  0.00    +0.000 A 
ATOM     15  C   UNL     1       0.622   9.088  22.190  0.00  0.00    +0.000 A 
ATOM     16  C   UNL     1      -0.185   9.754  23.120  0.00  0.00    +0.000 A 
ATOM     17  C   UNL     1      -1.039  10.764  22.702  0.00  0.00    +0.000 A 
ATOM     18  C   UNL     1      -1.110  11.079  21.349  0.00  0.00    +0.000 A 
ATOM     19  C   UNL     1      -0.335  10.382  20.406  0.00  0.00    +0.000 A 
ATOM     20 CL   UNL     1      -0.659  10.793  18.752  0.00  0.00    +0.000 Cl
ENDBRANCH  11  14
BRANCH   1  21
ATOM     21  C   UNL     1       1.870   4.072  19.376  0.00  0.00    +0.000 C 
ATOM     22  F   UNL     1       2.364   2.812  19.535  0.00  0.00    +0.000 F 
ATOM     23  F   UNL     1       1.033   4.291  20.416  0.00  0.00    +0.000 F 
ATOM     24  F   UNL     1       1.107   4.033  18.258  0.00  0.00    +0.000 F 
ENDBRANCH   1  21
BRANCH   1  25
ATOM     25  O   UNL     1       3.959   5.011  20.395  0.00  0.00    +0.000 OA
ATOM     26  H   UNL     1       4.662   4.391  20.135  0.00  0.00    +0.000 HD
ENDBRANCH   1  25
TORSDOF 3
ENDMDL
MODEL 3
REMARK VINA RESULT:      -8.6      3.269      7.583
REMARK  Name = 
REMARK  3 active torsions:
REMARK  status: ('A' for Active; 'I' for Inactive)
REMARK    1  A    between atoms: O_1  and  C_2
REMARK    2  A    between atoms: C_2  and  C_3
REMARK    3  A    between atoms: C_16  and  C_17
REMARK                            x       y       z     vdW  Elec       q    Type
REMARK                         _______ _______ _______ _____ _____    ______ ____
ROOT
ATOM      1  C   UNL     1      -0.189  10.649  18.914  0.00  0.00    +0.000 C 
ATOM      2  C   UNL     1      -0.765  11.070  20.269  0.00  0.00    +0.000 A 
ATOM      3  C   UNL     1      -1.648  12.104  20.564  0.00  0.00    +0.000 A 
ATOM      4  C   UNL     1      -2.037  12.280  21.893  0.00  0.00    +0.000 A 
ATOM      5  C   UNL     1      -1.540  11.444  22.908  0.00  0.00    +0.000 A 
ATOM      6  C   UNL     1      -0.644  10.416  22.607  0.00  0.00    +0.000 A 
ATOM      7  C   UNL     1      -0.261  10.236  21.291  0.00  0.00    +0.000 A 
ATOM      8  C   UNL     1       0.629   9.259  20.702  0.00  0.00    +0.000 A 
ATOM      9  C   UNL     1       1.380   8.263  21.291  0.00  0.00    +0.000 A 
ATOM     10  C   UNL     1       2.176   7.448  20.472  0.00  0.00    +0.000 A 
ATOM     11  C   UNL     1       2.195   7.565  19.061  0.00  0.00    +0.000 A 
ATOM     12  C   UNL     1       1.436   8.613  18.496  0.00  0.00    +0.000 A 
ATOM     13  C   UNL     1       0.673   9.449  19.312  0.00  0.00    +0.000 A 
ENDROOT
BRANCH  11  14
ATOM     14  C   UNL     1       3.004   6.650  18.200  0.00  0.00    +0.000 A 
ATOM     15  C   UNL     1       4.048   7.192  17.411  0.00  0.00    +0.000 A 
ATOM     16  C   UNL     1       4.851   6.401  16.580  0.00  0.00    +0.000 A 
ATOM     17  C   UNL     1       4.661   5.028  16.532  0.00  0.00    +0.000 A 
ATOM     18  C   UNL     1       3.645   4.455  17.289  0.00  0.00    +0.000 A 
ATOM     19  C   UNL     1       2.808   5.251  18.090  0.00  0.00    +0.000 A 
ATOM     20 CL   UNL     1       1.497   4.397  18.843  0.00  0.00    +0.000 Cl
ENDBRANCH  11  14
BRANCH   1  21
ATOM     21  C   UNL     1      -1.265  10.323  17.830  0.00  0.00    +0.000 C 
ATOM     22  F   UNL     1      -2.346   9.732  18.411  0.00  0.00    +0.000 F 
ATOM     23  F   UNL     1      -1.727  11.411  17.173  0.00  0.00    +0.000 F 
ATOM     24  F   UNL     1      -0.826   9.451  16.889  0.00  0.00    +0.000 F 
ENDBRANCH   1  21
BRANCH   1  25
ATOM     25  O   UNL     1       0.728  11.685  18.506  0.00  0.00    +0.000 OA
ATOM     26  H   UNL     1       0.819  12.293  19.260  0.00  0.00    +0.000 HD
ENDBRANCH   1  25
TORSDOF 3
ENDMDL
MODEL 4
REMARK VINA RESULT:      -8.3      1.250      1.626
REMARK  Name = 
REMARK  3 active torsions:
REMARK  status: ('A' for Active; 'I' for Inactive)
REMARK    1  A    between atoms: O_1  and  C_2
REMARK    2  A    between atoms: C_2  and  C_3
REMARK    3  A    between atoms: C_16  and  C_17
REMARK                            x       y       z     vdW  Elec       q    Type
REMARK                         _______ _______ _______ _____ _____    ______ ____
ROOT
ATOM      1  C   UNL     1       3.013   5.388  19.194  0.00  0.00    +0.000 C 
ATOM      2  C   UNL     1       3.951   5.133  18.010  0.00  0.00    +0.000 A 
ATOM      3  C   UNL     1       4.642   3.975  17.673  0.00  0.00    +0.000 A 
ATOM      4  C   UNL     1       5.435   3.991  16.524  0.00  0.00    +0.000 A 
ATOM      5  C   UNL     1       5.544   5.150  15.737  0.00  0.00    +0.000 A 
ATOM      6  C   UNL     1       4.857   6.315  16.089  0.00  0.00    +0.000 A 
ATOM      7  C   UNL     1       4.067   6.300  17.223  0.00  0.00    +0.000 A 
ATOM      8  C   UNL     1       3.249   7.342  17.806  0.00  0.00    +0.000 A 
ATOM      9  C   UNL     1       3.063   8.653  17.422  0.00  0.00    +0.000 A 
ATOM     10  C   UNL     1       2.206   9.461  18.183  0.00  0.00    +0.000 A 
ATOM     11  C   UNL     1       1.476   8.972  19.294  0.00  0.00    +0.000 A 
ATOM     12  C   UNL     1       1.713   7.633  19.674  0.00  0.00    +0.000 A 
ATOM     13  C   UNL     1       2.595   6.838  18.941  0.00  0.00    +0.000 A 
ENDROOT
BRANCH  11  14
ATOM     14  C   UNL     1       0.522   9.832  20.059  0.00  0.00    +0.000 A 
ATOM     15  C   UNL     1      -0.393  10.645  19.347  0.00  0.00    +0.000 A 
ATOM     16  C   UNL     1      -1.318  11.477  19.989  0.00  0.00    +0.000 A 
ATOM     17  C   UNL     1      -1.386  11.501  21.375  0.00  0.00    +0.000 A 
ATOM     18  C   UNL     1      -0.503  10.720  22.113  0.00  0.00    +0.000 A 
ATOM     19  C   UNL     1       0.458   9.918  21.472  0.00  0.00    +0.000 A 
ATOM     20 CL   UNL     1       1.577   9.132  22.540  0.00  0.00    +0.000 Cl
ENDBRANCH  11  14
BRANCH   1  21
ATOM     21  C   UNL     1       1.814   4.392  19.292  0.00  0.00    +0.000 C 
ATOM     22  F   UNL     1       1.116   4.388  18.122  0.00  0.00    +0.000 F 
ATOM     23  F   UNL     1       2.184   3.111  19.523  0.00  0.00    +0.000 F 
ATOM     24  F   UNL     1       0.923   4.725  20.256  0.00  0.00    +0.000 F 
ENDBRANCH   1  21
BRANCH   1  25
ATOM     25  O   UNL     1       3.830   5.407  20.382  0.00  0.00    +0.000 OA
ATOM     26  H   UNL     1       3.778   4.519  20.775  0.00  0.00    +0.000 HD
ENDBRANCH   1  25
TORSDOF 3
ENDMDL
MODEL 5
REMARK VINA RESULT:      -8.2      4.152      6.272
REMARK  Name = 
REMARK  3 active torsions:
REMARK  status: ('A' for Active; 'I' for Inactive)
REMARK    1  A    between atoms: O_1  and  C_2
REMARK    2  A    between atoms: C_2  and  C_3
REMARK    3  A    between atoms: C_16  and  C_17
REMARK                            x       y       z     vdW  Elec       q    Type
REMARK                         _______ _______ _______ _____ _____    ______ ____
ROOT
ATOM      1  C   UNL     1       0.669  10.755  18.957  0.00  0.00    +0.000 C 
ATOM      2  C   UNL     1       1.409   9.416  18.888  0.00  0.00    +0.000 A 
ATOM      3  C   UNL     1       2.141   8.872  17.838  0.00  0.00    +0.000 A 
ATOM      4  C   UNL     1       2.738   7.624  18.027  0.00  0.00    +0.000 A 
ATOM      5  C   UNL     1       2.593   6.930  19.241  0.00  0.00    +0.000 A 
ATOM      6  C   UNL     1       1.845   7.477  20.287  0.00  0.00    +0.000 A 
ATOM      7  C   UNL     1       1.258   8.714  20.104  0.00  0.00    +0.000 A 
ATOM      8  C   UNL     1       0.454   9.510  21.007  0.00  0.00    +0.000 A 
ATOM      9  C   UNL     1       0.010   9.239  22.284  0.00  0.00    +0.000 A 
ATOM     10  C   UNL     1      -0.775  10.199  22.941  0.00  0.00    +0.000 A 
ATOM     11  C   UNL     1      -1.080  11.460  22.372  0.00  0.00    +0.000 A 
ATOM     12  C   UNL     1      -0.632  11.690  21.053  0.00  0.00    +0.000 A 
ATOM     13  C   UNL     1       0.116  10.721  20.383  0.00  0.00    +0.000 A 
ENDROOT
BRANCH  11  14
ATOM     14  C   UNL     1      -1.867  12.493  23.110  0.00  0.00    +0.000 A 
ATOM     15  C   UNL     1      -3.131  12.143  23.645  0.00  0.00    +0.000 A 
ATOM     16  C   UNL     1      -3.928  13.054  24.348  0.00  0.00    +0.000 A 
ATOM     17  C   UNL     1      -3.475  14.345  24.574  0.00  0.00    +0.000 A 
ATOM     18  C   UNL     1      -2.240  14.732  24.064  0.00  0.00    +0.000 A 
ATOM     19  C   UNL     1      -1.457  13.834  23.318  0.00  0.00    +0.000 A 
ATOM     20 CL   UNL     1      -0.023  14.523  22.625  0.00  0.00    +0.000 Cl
ENDBRANCH  11  14
BRANCH   1  21
ATOM     21  C   UNL     1       1.560  12.001  18.653  0.00  0.00    +0.000 C 
ATOM     22  F   UNL     1       2.160  12.433  19.798  0.00  0.00    +0.000 F 
ATOM     23  F   UNL     1       2.553  11.761  17.766  0.00  0.00    +0.000 F 
ATOM     24  F   UNL     1       0.856  13.057  18.181  0.00  0.00    +0.000 F 
ENDBRANCH   1  21
BRANCH   1  25
ATOM     25  O   UNL     1      -0.473  10.650  18.081  0.00  0.00    +0.000 OA
ATOM     26  H   UNL     1      -0.840   9.758  18.203  0.00  0.00    +0.000 HD
ENDBRANCH   1  25
TORSDOF 3
ENDMDL
MODEL 6
REMARK VINA RESULT:      -7.8      0.955      1.276
REMARK  Name = 
REMARK  3 active torsions:
REMARK  status: ('A' for Active; 'I' for Inactive)
REMARK    1  A    between atoms: O_1  and  C_2
REMARK    2  A    between atoms: C_2  and  C_3
REMARK    3  A    between atoms: C_16  and  C_17
REMARK                            x       y       z     vdW  Elec       q    Type
REMARK                         _______ _______ _______ _____ _____    ______ ____
ROOT
ATOM      1  C   UNL     1       4.236   5.054  19.001  0.00  0.00    +0.000 C 
ATOM      2  C   UNL     1       4.909   4.932  17.630  0.00  0.00    +0.000 A 
ATOM      3  C   UNL     1       5.750   3.933  17.152  0.00  0.00    +0.000 A 
ATOM      4  C   UNL     1       6.231   4.045  15.846  0.00  0.00    +0.000 A 
ATOM      5  C   UNL     1       5.887   5.144  15.041  0.00  0.00    +0.000 A 
ATOM      6  C   UNL     1       5.052   6.151  15.532  0.00  0.00    +0.000 A 
ATOM      7  C   UNL     1       4.570   6.040  16.822  0.00  0.00    +0.000 A 
ATOM      8  C   UNL     1       3.692   6.914  17.571  0.00  0.00    +0.000 A 
ATOM      9  C   UNL     1       3.127   8.123  17.225  0.00  0.00    +0.000 A 
ATOM     10  C   UNL     1       2.307   8.774  18.159  0.00  0.00    +0.000 A 
ATOM     11  C   UNL     1       1.985   8.213  19.419  0.00  0.00    +0.000 A 
ATOM     12  C   UNL     1       2.603   6.987  19.749  0.00  0.00    +0.000 A 
ATOM     13  C   UNL     1       3.450   6.357  18.836  0.00  0.00    +0.000 A 
ENDROOT
BRANCH  11  14
ATOM     14  C   UNL     1       1.062   8.892  20.378  0.00  0.00    +0.000 A 
ATOM     15  C   UNL     1       0.524   8.150  21.458  0.00  0.00    +0.000 A 
ATOM     16  C   UNL     1      -0.346   8.714  22.399  0.00  0.00    +0.000 A 
ATOM     17  C   UNL     1      -0.685  10.057  22.315  0.00  0.00    +0.000 A 
ATOM     18  C   UNL     1      -0.181  10.822  21.268  0.00  0.00    +0.000 A 
ATOM     19  C   UNL     1       0.657  10.248  20.296  0.00  0.00    +0.000 A 
ATOM     20 CL   UNL     1       1.067  11.300  18.978  0.00  0.00    +0.000 Cl
ENDBRANCH  11  14
BRANCH   1  21
ATOM     21  C   UNL     1       3.353   3.829  19.396  0.00  0.00    +0.000 C 
ATOM     22  F   UNL     1       4.144   2.748  19.647  0.00  0.00    +0.000 F 
ATOM     23  F   UNL     1       2.608   4.027  20.508  0.00  0.00    +0.000 F 
ATOM     24  F   UNL     1       2.501   3.446  18.415  0.00  0.00    +0.000 F 
ENDBRANCH   1  21
BRANCH   1  25
ATOM     25  O   UNL     1       5.278   5.332  19.958  0.00  0.00    +0.000 OA
ATOM     26  H   UNL     1       4.963   6.066  20.513  0.00  0.00    +0.000 HD
ENDBRANCH   1  25
TORSDOF 3
ENDMDL
MODEL 7
REMARK VINA RESULT:      -7.7      3.114      7.308
REMARK  Name = 
REMARK  3 active torsions:
REMARK  status: ('A' for Active; 'I' for Inactive)
REMARK    1  A    between atoms: O_1  and  C_2
REMARK    2  A    between atoms: C_2  and  C_3
REMARK    3  A    between atoms: C_16  and  C_17
REMARK                            x       y       z     vdW  Elec       q    Type
REMARK                         _______ _______ _______ _____ _____    ______ ____
ROOT
ATOM      1  C   UNL     1       2.688   3.677  18.147  0.00  0.00    +0.000 C 
ATOM      2  C   UNL     1       2.310   4.761  19.161  0.00  0.00    +0.000 A 
ATOM      3  C   UNL     1       1.522   4.658  20.302  0.00  0.00    +0.000 A 
ATOM      4  C   UNL     1       1.333   5.803  21.079  0.00  0.00    +0.000 A 
ATOM      5  C   UNL     1       1.912   7.029  20.711  0.00  0.00    +0.000 A 
ATOM      6  C   UNL     1       2.693   7.128  19.556  0.00  0.00    +0.000 A 
ATOM      7  C   UNL     1       2.886   5.996  18.788  0.00  0.00    +0.000 A 
ATOM      8  C   UNL     1       3.645   5.810  17.570  0.00  0.00    +0.000 A 
ATOM      9  C   UNL     1       4.350   6.717  16.809  0.00  0.00    +0.000 A 
ATOM     10  C   UNL     1       4.999   6.264  15.651  0.00  0.00    +0.000 A 
ATOM     11  C   UNL     1       5.011   4.901  15.263  0.00  0.00    +0.000 A 
ATOM     12  C   UNL     1       4.255   4.006  16.051  0.00  0.00    +0.000 A 
ATOM     13  C   UNL     1       3.577   4.463  17.182  0.00  0.00    +0.000 A 
ENDROOT
BRANCH  11  14
ATOM     14  C   UNL     1       5.757   4.426  14.058  0.00  0.00    +0.000 A 
ATOM     15  C   UNL     1       5.112   3.550  13.152  0.00  0.00    +0.000 A 
ATOM     16  C   UNL     1       5.742   3.062  12.001  0.00  0.00    +0.000 A 
ATOM     17  C   UNL     1       7.035   3.460  11.694  0.00  0.00    +0.000 A 
ATOM     18  C   UNL     1       7.706   4.317  12.559  0.00  0.00    +0.000 A 
ATOM     19  C   UNL     1       7.093   4.774  13.739  0.00  0.00    +0.000 A 
ATOM     20 CL   UNL     1       8.123   5.707  14.779  0.00  0.00    +0.000 Cl
ENDBRANCH  11  14
BRANCH   1  21
ATOM     21  C   UNL     1       3.382   2.425  18.771  0.00  0.00    +0.000 C 
ATOM     22  F   UNL     1       2.560   1.846  19.690  0.00  0.00    +0.000 F 
ATOM     23  F   UNL     1       3.690   1.464  17.870  0.00  0.00    +0.000 F 
ATOM     24  F   UNL     1       4.526   2.725  19.433  0.00  0.00    +0.000 F 
ENDBRANCH   1  21
BRANCH   1  25
ATOM     25  O   UNL     1       1.489   3.351  17.414  0.00  0.00    +0.000 OA
ATOM     26  H   UNL     1       1.743   2.705  16.732  0.00  0.00    +0.000 HD
ENDBRANCH   1  25
TORSDOF 3
ENDMDL
MODEL 8
REMARK VINA RESULT:      -7.6      4.386      6.612
REMARK  Name = 
REMARK  3 active torsions:
REMARK  status: ('A' for Active; 'I' for Inactive)
REMARK    1  A    between atoms: O_1  and  C_2
REMARK    2  A    between atoms: C_2  and  C_3
REMARK    3  A    between atoms: C_16  and  C_17
REMARK                            x       y       z     vdW  Elec       q    Type
REMARK                         _______ _______ _______ _____ _____    ______ ____
ROOT
ATOM      1  C   UNL     1       0.580  11.061  19.025  0.00  0.00    +0.000 C 
ATOM      2  C   UNL     1       1.238   9.679  19.079  0.00  0.00    +0.000 A 
ATOM      3  C   UNL     1       1.972   9.018  18.100  0.00  0.00    +0.000 A 
ATOM      4  C   UNL     1       2.484   7.754  18.401  0.00  0.00    +0.000 A 
ATOM      5  C   UNL     1       2.251   7.159  19.652  0.00  0.00    +0.000 A 
ATOM      6  C   UNL     1       1.502   7.823  20.627  0.00  0.00    +0.000 A 
ATOM      7  C   UNL     1       0.999   9.077  20.335  0.00  0.00    +0.000 A 
ATOM      8  C   UNL     1       0.213   9.981  21.146  0.00  0.00    +0.000 A 
ATOM      9  C   UNL     1      -0.292   9.830  22.419  0.00  0.00    +0.000 A 
ATOM     10  C   UNL     1      -1.040  10.879  22.976  0.00  0.00    +0.000 A 
ATOM     11  C   UNL     1      -1.245  12.111  22.309  0.00  0.00    +0.000 A 
ATOM     12  C   UNL     1      -0.736  12.220  20.996  0.00  0.00    +0.000 A 
ATOM     13  C   UNL     1      -0.025  11.163  20.426  0.00  0.00    +0.000 A 
ENDROOT
BRANCH  11  14
ATOM     14  C   UNL     1      -1.993  13.240  22.940  0.00  0.00    +0.000 A 
ATOM     15  C   UNL     1      -1.323  14.079  23.863  0.00  0.00    +0.000 A 
ATOM     16  C   UNL     1      -1.954  15.157  24.496  0.00  0.00    +0.000 A 
ATOM     17  C   UNL     1      -3.276  15.459  24.201  0.00  0.00    +0.000 A 
ATOM     18  C   UNL     1      -3.972  14.659  23.301  0.00  0.00    +0.000 A 
ATOM     19  C   UNL     1      -3.356  13.549  22.699  0.00  0.00    +0.000 A 
ATOM     20 CL   UNL     1      -4.410  12.571  21.727  0.00  0.00    +0.000 Cl
ENDBRANCH  11  14
BRANCH   1  21
ATOM     21  C   UNL     1       1.558  12.227  18.672  0.00  0.00    +0.000 C 
ATOM     22  F   UNL     1       2.232  12.621  19.788  0.00  0.00    +0.000 F 
ATOM     23  F   UNL     1       2.494  11.897  17.753  0.00  0.00    +0.000 F 
ATOM     24  F   UNL     1       0.924  13.332  18.211  0.00  0.00    +0.000 F 
ENDBRANCH   1  21
BRANCH   1  25
ATOM     25  O   UNL     1      -0.533  10.961  18.113  0.00  0.00    +0.000 OA
ATOM     26  H   UNL     1      -0.658  10.015  17.923  0.00  0.00    +0.000 HD
ENDBRANCH   1  25
TORSDOF 3
ENDMDL
MODEL 9
REMARK VINA RESULT:      -7.5      3.226      7.433
REMARK  Name = 
REMARK  3 active torsions:
REMARK  status: ('A' for Active; 'I' for Inactive)
REMARK    1  A    between atoms: O_1  and  C_2
REMARK    2  A    between atoms: C_2  and  C_3
REMARK    3  A    between atoms: C_16  and  C_17
REMARK                            x       y       z     vdW  Elec       q    Type
REMARK                         _______ _______ _______ _____ _____    ______ ____
ROOT
ATOM      1  C   UNL     1      -0.014  10.478  18.759  0.00  0.00    +0.000 C 
ATOM      2  C   UNL     1      -0.464  11.084  20.092  0.00  0.00    +0.000 A 
ATOM      3  C   UNL     1      -1.210  12.234  20.325  0.00  0.00    +0.000 A 
ATOM      4  C   UNL     1      -1.503  12.573  21.648  0.00  0.00    +0.000 A 
ATOM      5  C   UNL     1      -1.044  11.783  22.715  0.00  0.00    +0.000 A 
ATOM      6  C   UNL     1      -0.283  10.635  22.474  0.00  0.00    +0.000 A 
ATOM      7  C   UNL     1       0.003  10.294  21.166  0.00  0.00    +0.000 A 
ATOM      8  C   UNL     1       0.747   9.173  20.634  0.00  0.00    +0.000 A 
ATOM      9  C   UNL     1       1.416   8.156  21.281  0.00  0.00    +0.000 A 
ATOM     10  C   UNL     1       2.072   7.184  20.510  0.00  0.00    +0.000 A 
ATOM     11  C   UNL     1       2.024   7.169  19.094  0.00  0.00    +0.000 A 
ATOM     12  C   UNL     1       1.353   8.241  18.466  0.00  0.00    +0.000 A 
ATOM     13  C   UNL     1       0.733   9.229  19.232  0.00  0.00    +0.000 A 
ENDROOT
BRANCH  11  14
ATOM     14  C   UNL     1       2.679   6.093  18.290  0.00  0.00    +0.000 A 
ATOM     15  C   UNL     1       2.057   4.824  18.203  0.00  0.00    +0.000 A 
ATOM     16  C   UNL     1       2.606   3.766  17.469  0.00  0.00    +0.000 A 
ATOM     17  C   UNL     1       3.786   3.949  16.763  0.00  0.00    +0.000 A 
ATOM     18  C   UNL     1       4.432   5.179  16.823  0.00  0.00    +0.000 A 
ATOM     19  C   UNL     1       3.907   6.230  17.596  0.00  0.00    +0.000 A 
ATOM     20 CL   UNL     1       4.916   7.639  17.686  0.00  0.00    +0.000 Cl
ENDBRANCH  11  14
BRANCH   1  21
ATOM     21  C   UNL     1      -1.178  10.179  17.762  0.00  0.00    +0.000 C 
ATOM     22  F   UNL     1      -1.581  11.332  17.158  0.00  0.00    +0.000 F 
ATOM     23  F   UNL     1      -0.844   9.322  16.770  0.00  0.00    +0.000 F 
ATOM     24  F   UNL     1      -2.280   9.671  18.366  0.00  0.00    +0.000 F 
ENDBRANCH   1  21
BRANCH   1  25
ATOM     25  O   UNL     1       0.986  11.361  18.211  0.00  0.00    +0.000 OA
ATOM     26  H   UNL     1       0.658  11.653  17.343  0.00  0.00    +0.000 HD
ENDBRANCH   1  25
TORSDOF 3
ENDMDL
