MODEL 1
REMARK VINA RESULT:      -6.2      0.000      0.000
REMARK  Name = 
REMARK  1 active torsions:
REMARK  status: ('A' for Active; 'I' for Inactive)
REMARK    1  A    between atoms: C_6  and  C_7
REMARK                            x       y       z     vdW  Elec       q    Type
REMARK                         _______ _______ _______ _____ _____    ______ ____
ROOT
ATOM      1 CL   UNL     1       8.562   5.723  12.566  0.00  0.00    +0.000 Cl
ATOM      2  C   UNL     1       7.474   5.162  13.744  0.00  0.00    +0.000 A 
ATOM      3  N   UNL     1       7.515   5.613  14.966  0.00  0.00    +0.000 NA
ATOM      4  N   UNL     1       6.525   4.957  15.610  0.00  0.00    +0.000 N 
ATOM      5  C   UNL     1       6.082   5.007  16.894  0.00  0.00    +0.000 A 
ATOM      6  C   UNL     1       5.030   4.099  16.928  0.00  0.00    +0.000 A 
ATOM      7  N   UNL     1       4.829   3.513  15.684  0.00  0.00    +0.000 NA
ATOM      8  C   UNL     1       5.756   4.059  14.949  0.00  0.00    +0.000 A 
ATOM      9  S   UNL     1       6.257   3.945  13.320  0.00  0.00    +0.000 S 
ENDROOT
BRANCH   6  10
ATOM     10  C   UNL     1       4.198   3.801  18.081  0.00  0.00    +0.000 A 
ATOM     11  C   UNL     1       3.659   2.514  18.221  0.00  0.00    +0.000 A 
ATOM     12  C   UNL     1       2.836   2.200  19.307  0.00  0.00    +0.000 A 
ATOM     13  C   UNL     1       2.559   3.171  20.265  0.00  0.00    +0.000 A 
ATOM     14 BR   UNL     1       1.439   2.753  21.729  0.00  0.00    +0.000 Br
ATOM     15  C   UNL     1       3.101   4.451  20.151  0.00  0.00    +0.000 A 
ATOM     16  C   UNL     1       3.918   4.765  19.059  0.00  0.00    +0.000 A 
ENDBRANCH   6  10
TORSDOF 1
ENDMDL
MODEL 2
REMARK VINA RESULT:      -6.1      0.133      1.214
REMARK  Name = 
REMARK  1 active torsions:
REMARK  status: ('A' for Active; 'I' for Inactive)
REMARK    1  A    between atoms: C_6  and  C_7
REMARK                            x       y       z     vdW  Elec       q    Type
REMARK                         _______ _______ _______ _____ _____    ______ ____
ROOT
ATOM      1 CL   UNL     1       8.620   5.705  12.734  0.00  0.00    +0.000 Cl
ATOM      2  C   UNL     1       7.501   5.131  13.878  0.00  0.00    +0.000 A 
ATOM      3  N   UNL     1       7.548   5.523  15.120  0.00  0.00    +0.000 NA
ATOM      4  N   UNL     1       6.530   4.875  15.726  0.00  0.00    +0.000 N 
ATOM      5  C   UNL     1       6.078   4.882  17.008  0.00  0.00    +0.000 A 
ATOM      6  C   UNL     1       4.994   4.013  16.992  0.00  0.00    +0.000 A 
ATOM      7  N   UNL     1       4.782   3.493  15.721  0.00  0.00    +0.000 NA
ATOM      8  C   UNL     1       5.734   4.037  15.019  0.00  0.00    +0.000 A 
ATOM      9  S   UNL     1       6.245   3.980  13.389  0.00  0.00    +0.000 S 
ENDROOT
BRANCH   6  10
ATOM     10  C   UNL     1       4.142   3.693  18.125  0.00  0.00    +0.000 A 
ATOM     11  C   UNL     1       3.805   4.704  19.035  0.00  0.00    +0.000 A 
ATOM     12  C   UNL     1       3.004   4.426  20.147  0.00  0.00    +0.000 A 
ATOM     13  C   UNL     1       2.528   3.134  20.346  0.00  0.00    +0.000 A 
ATOM     14 BR   UNL     1       1.454   2.752  21.854  0.00  0.00    +0.000 Br
ATOM     15  C   UNL     1       2.838   2.119  19.442  0.00  0.00    +0.000 A 
ATOM     16  C   UNL     1       3.645   2.398  18.334  0.00  0.00    +0.000 A 
ENDBRANCH   6  10
TORSDOF 1
ENDMDL
MODEL 3
REMARK VINA RESULT:      -6.1      6.449      7.506
REMARK  Name = 
REMARK  1 active torsions:
REMARK  status: ('A' for Active; 'I' for Inactive)
REMARK    1  A    between atoms: C_6  and  C_7
REMARK                            x       y       z     vdW  Elec       q    Type
REMARK                         _______ _______ _______ _____ _____    ______ ____
ROOT
ATOM      1 CL   UNL     1      -0.837  11.296  21.398  0.00  0.00    +0.000 Cl
ATOM      2  C   UNL     1       0.158  10.114  20.691  0.00  0.00    +0.000 A 
ATOM      3  N   UNL     1       0.534  10.208  19.447  0.00  0.00    +0.000 NA
ATOM      4  N   UNL     1       1.299   9.117  19.233  0.00  0.00    +0.000 N 
ATOM      5  C   UNL     1       1.969   8.672  18.137  0.00  0.00    +0.000 A 
ATOM      6  C   UNL     1       2.573   7.494  18.560  0.00  0.00    +0.000 A 
ATOM      7  N   UNL     1       2.285   7.230  19.895  0.00  0.00    +0.000 NA
ATOM      8  C   UNL     1       1.516   8.226  20.231  0.00  0.00    +0.000 A 
ATOM      9  S   UNL     1       0.702   8.725  21.648  0.00  0.00    +0.000 S 
ENDROOT
BRANCH   6  10
ATOM     10  C   UNL     1       3.434   6.642  17.759  0.00  0.00    +0.000 A 
ATOM     11  C   UNL     1       3.252   5.252  17.801  0.00  0.00    +0.000 A 
ATOM     12  C   UNL     1       4.077   4.402  17.059  0.00  0.00    +0.000 A 
ATOM     13  C   UNL     1       5.082   4.940  16.260  0.00  0.00    +0.000 A 
ATOM     14 BR   UNL     1       6.205   3.793  15.263  0.00  0.00    +0.000 Br
ATOM     15  C   UNL     1       5.265   6.321  16.192  0.00  0.00    +0.000 A 
ATOM     16  C   UNL     1       4.443   7.170  16.941  0.00  0.00    +0.000 A 
ENDBRANCH   6  10
TORSDOF 1
ENDMDL
MODEL 4
REMARK VINA RESULT:      -6.0      6.735      7.937
REMARK  Name = 
REMARK  1 active torsions:
REMARK  status: ('A' for Active; 'I' for Inactive)
REMARK    1  A    between atoms: C_6  and  C_7
REMARK                            x       y       z     vdW  Elec       q    Type
REMARK                         _______ _______ _______ _____ _____    ______ ____
ROOT
ATOM      1 CL   UNL     1      -1.027  10.786  22.841  0.00  0.00    +0.000 Cl
ATOM      2  C   UNL     1      -0.099   9.983  21.665  0.00  0.00    +0.000 A 
ATOM      3  N   UNL     1       0.503   8.860  21.935  0.00  0.00    +0.000 NA
ATOM      4  N   UNL     1       1.132   8.520  20.790  0.00  0.00    +0.000 N 
ATOM      5  C   UNL     1       1.911   7.457  20.456  0.00  0.00    +0.000 A 
ATOM      6  C   UNL     1       2.246   7.682  19.127  0.00  0.00    +0.000 A 
ATOM      7  N   UNL     1       1.674   8.857  18.654  0.00  0.00    +0.000 NA
ATOM      8  C   UNL     1       1.034   9.311  19.694  0.00  0.00    +0.000 A 
ATOM      9  S   UNL     1       0.063  10.673  20.040  0.00  0.00    +0.000 S 
ENDROOT
BRANCH   6  10
ATOM     10  C   UNL     1       3.053   6.809  18.291  0.00  0.00    +0.000 A 
ATOM     11  C   UNL     1       4.038   7.371  17.466  0.00  0.00    +0.000 A 
ATOM     12  C   UNL     1       4.817   6.562  16.634  0.00  0.00    +0.000 A 
ATOM     13  C   UNL     1       4.622   5.184  16.633  0.00  0.00    +0.000 A 
ATOM     14 BR   UNL     1       5.666   4.088  15.501  0.00  0.00    +0.000 Br
ATOM     15  C   UNL     1       3.659   4.607  17.460  0.00  0.00    +0.000 A 
ATOM     16  C   UNL     1       2.875   5.419  18.287  0.00  0.00    +0.000 A 
ENDBRANCH   6  10
TORSDOF 1
ENDMDL
MODEL 5
REMARK VINA RESULT:      -6.0      4.509      5.294
REMARK  Name = 
REMARK  1 active torsions:
REMARK  status: ('A' for Active; 'I' for Inactive)
REMARK    1  A    between atoms: C_6  and  C_7
REMARK                            x       y       z     vdW  Elec       q    Type
REMARK                         _______ _______ _______ _____ _____    ______ ____
ROOT
ATOM      1 CL   UNL     1       6.104   3.675  15.316  0.00  0.00    +0.000 Cl
ATOM      2  C   UNL     1       5.049   4.553  16.317  0.00  0.00    +0.000 A 
ATOM      3  N   UNL     1       5.104   5.854  16.376  0.00  0.00    +0.000 NA
ATOM      4  N   UNL     1       4.139   6.201  17.254  0.00  0.00    +0.000 N 
ATOM      5  C   UNL     1       3.719   7.408  17.718  0.00  0.00    +0.000 A 
ATOM      6  C   UNL     1       2.686   7.096  18.594  0.00  0.00    +0.000 A 
ATOM      7  N   UNL     1       2.473   5.724  18.656  0.00  0.00    +0.000 NA
ATOM      8  C   UNL     1       3.375   5.251  17.845  0.00  0.00    +0.000 A 
ATOM      9  S   UNL     1       3.849   3.700  17.305  0.00  0.00    +0.000 S 
ENDROOT
BRANCH   6  10
ATOM     10  C   UNL     1       1.881   8.051  19.337  0.00  0.00    +0.000 A 
ATOM     11  C   UNL     1       1.466   9.232  18.708  0.00  0.00    +0.000 A 
ATOM     12  C   UNL     1       0.709  10.182  19.400  0.00  0.00    +0.000 A 
ATOM     13  C   UNL     1       0.353   9.947  20.725  0.00  0.00    +0.000 A 
ATOM     14 BR   UNL     1      -0.661  11.233  21.667  0.00  0.00    +0.000 Br
ATOM     15  C   UNL     1       0.742   8.769  21.362  0.00  0.00    +0.000 A 
ATOM     16  C   UNL     1       1.506   7.823  20.669  0.00  0.00    +0.000 A 
ENDBRANCH   6  10
TORSDOF 1
ENDMDL
MODEL 6
REMARK VINA RESULT:      -5.9      5.098      6.804
REMARK  Name = 
REMARK  1 active torsions:
REMARK  status: ('A' for Active; 'I' for Inactive)
REMARK    1  A    between atoms: C_6  and  C_7
REMARK                            x       y       z     vdW  Elec       q    Type
REMARK                         _______ _______ _______ _____ _____    ______ ____
ROOT
ATOM      1 CL   UNL     1       1.215   2.391  22.130  0.00  0.00    +0.000 Cl
ATOM      2  C   UNL     1       2.013   2.859  20.705  0.00  0.00    +0.000 A 
ATOM      3  N   UNL     1       3.315   2.881  20.639  0.00  0.00    +0.000 NA
ATOM      4  N   UNL     1       3.590   3.294  19.383  0.00  0.00    +0.000 N 
ATOM      5  C   UNL     1       4.763   3.505  18.728  0.00  0.00    +0.000 A 
ATOM      6  C   UNL     1       4.376   3.916  17.458  0.00  0.00    +0.000 A 
ATOM      7  N   UNL     1       2.992   3.944  17.337  0.00  0.00    +0.000 NA
ATOM      8  C   UNL     1       2.586   3.574  18.518  0.00  0.00    +0.000 A 
ATOM      9  S   UNL     1       1.075   3.328  19.276  0.00  0.00    +0.000 S 
ENDROOT
BRANCH   6  10
ATOM     10  C   UNL     1       5.269   4.242  16.359  0.00  0.00    +0.000 A 
ATOM     11  C   UNL     1       6.442   4.963  16.622  0.00  0.00    +0.000 A 
ATOM     12  C   UNL     1       7.312   5.312  15.584  0.00  0.00    +0.000 A 
ATOM     13  C   UNL     1       7.016   4.930  14.279  0.00  0.00    +0.000 A 
ATOM     14 BR   UNL     1       8.184   5.409  12.873  0.00  0.00    +0.000 Br
ATOM     15  C   UNL     1       5.862   4.197  14.002  0.00  0.00    +0.000 A 
ATOM     16  C   UNL     1       4.989   3.855  15.041  0.00  0.00    +0.000 A 
ENDBRANCH   6  10
TORSDOF 1
ENDMDL
MODEL 7
REMARK VINA RESULT:      -5.9      5.073      6.696
REMARK  Name = 
REMARK  1 active torsions:
REMARK  status: ('A' for Active; 'I' for Inactive)
REMARK    1  A    between atoms: C_6  and  C_7
REMARK                            x       y       z     vdW  Elec       q    Type
REMARK                         _______ _______ _______ _____ _____    ______ ____
ROOT
ATOM      1 CL   UNL     1       1.090   2.449  22.007  0.00  0.00    +0.000 Cl
ATOM      2  C   UNL     1       1.919   2.868  20.584  0.00  0.00    +0.000 A 
ATOM      3  N   UNL     1       3.164   3.252  20.618  0.00  0.00    +0.000 NA
ATOM      4  N   UNL     1       3.486   3.497  19.331  0.00  0.00    +0.000 N 
ATOM      5  C   UNL     1       4.637   3.918  18.742  0.00  0.00    +0.000 A 
ATOM      6  C   UNL     1       4.330   3.968  17.388  0.00  0.00    +0.000 A 
ATOM      7  N   UNL     1       3.017   3.575  17.153  0.00  0.00    +0.000 NA
ATOM      8  C   UNL     1       2.570   3.319  18.349  0.00  0.00    +0.000 A 
ATOM      9  S   UNL     1       1.091   2.786  19.018  0.00  0.00    +0.000 S 
ENDROOT
BRANCH   6  10
ATOM     10  C   UNL     1       5.243   4.338  16.319  0.00  0.00    +0.000 A 
ATOM     11  C   UNL     1       5.229   3.606  15.124  0.00  0.00    +0.000 A 
ATOM     12  C   UNL     1       6.109   3.921  14.084  0.00  0.00    +0.000 A 
ATOM     13  C   UNL     1       7.000   4.980  14.233  0.00  0.00    +0.000 A 
ATOM     14 BR   UNL     1       8.197   5.403  12.833  0.00  0.00    +0.000 Br
ATOM     15  C   UNL     1       7.015   5.730  15.408  0.00  0.00    +0.000 A 
ATOM     16  C   UNL     1       6.139   5.408  16.450  0.00  0.00    +0.000 A 
ENDBRANCH   6  10
TORSDOF 1
ENDMDL
MODEL 8
REMARK VINA RESULT:      -5.8      4.608      5.356
REMARK  Name = 
REMARK  1 active torsions:
REMARK  status: ('A' for Active; 'I' for Inactive)
REMARK    1  A    between atoms: C_6  and  C_7
REMARK                            x       y       z     vdW  Elec       q    Type
REMARK                         _______ _______ _______ _____ _____    ______ ____
ROOT
ATOM      1 CL   UNL     1       6.128   3.640  15.494  0.00  0.00    +0.000 Cl
ATOM      2  C   UNL     1       5.055   4.564  16.435  0.00  0.00    +0.000 A 
ATOM      3  N   UNL     1       5.120   5.865  16.445  0.00  0.00    +0.000 NA
ATOM      4  N   UNL     1       4.137   6.253  17.286  0.00  0.00    +0.000 N 
ATOM      5  C   UNL     1       3.715   7.480  17.693  0.00  0.00    +0.000 A 
ATOM      6  C   UNL     1       2.659   7.210  18.554  0.00  0.00    +0.000 A 
ATOM      7  N   UNL     1       2.433   5.842  18.663  0.00  0.00    +0.000 NA
ATOM      8  C   UNL     1       3.351   5.332  17.893  0.00  0.00    +0.000 A 
ATOM      9  S   UNL     1       3.824   3.758  17.424  0.00  0.00    +0.000 S 
ENDROOT
BRANCH   6  10
ATOM     10  C   UNL     1       1.844   8.198  19.240  0.00  0.00    +0.000 A 
ATOM     11  C   UNL     1       1.487   7.980  20.578  0.00  0.00    +0.000 A 
ATOM     12  C   UNL     1       0.686   8.900  21.261  0.00  0.00    +0.000 A 
ATOM     13  C   UNL     1       0.248  10.050  20.610  0.00  0.00    +0.000 A 
ATOM     14 BR   UNL     1      -0.843  11.291  21.528  0.00  0.00    +0.000 Br
ATOM     15  C   UNL     1       0.608  10.291  19.285  0.00  0.00    +0.000 A 
ATOM     16  C   UNL     1       1.404   9.365  18.601  0.00  0.00    +0.000 A 
ENDBRANCH   6  10
TORSDOF 1
ENDMDL
MODEL 9
REMARK VINA RESULT:      -5.8      5.695      6.756
REMARK  Name = 
REMARK  1 active torsions:
REMARK  status: ('A' for Active; 'I' for Inactive)
REMARK    1  A    between atoms: C_6  and  C_7
REMARK                            x       y       z     vdW  Elec       q    Type
REMARK                         _______ _______ _______ _____ _____    ______ ____
ROOT
ATOM      1 CL   UNL     1       4.740   3.738  16.914  0.00  0.00    +0.000 Cl
ATOM      2  C   UNL     1       3.859   4.792  17.914  0.00  0.00    +0.000 A 
ATOM      3  N   UNL     1       3.620   6.021  17.551  0.00  0.00    +0.000 NA
ATOM      4  N   UNL     1       2.911   6.551  18.570  0.00  0.00    +0.000 N 
ATOM      5  C   UNL     1       2.378   7.786  18.766  0.00  0.00    +0.000 A 
ATOM      6  C   UNL     1       1.761   7.699  20.008  0.00  0.00    +0.000 A 
ATOM      7  N   UNL     1       1.906   6.430  20.556  0.00  0.00    +0.000 NA
ATOM      8  C   UNL     1       2.608   5.801  19.657  0.00  0.00    +0.000 A 
ATOM      9  S   UNL     1       3.248   4.227  19.479  0.00  0.00    +0.000 S 
ENDROOT
BRANCH   6  10
ATOM     10  C   UNL     1       1.015   8.759  20.666  0.00  0.00    +0.000 A 
ATOM     11  C   UNL     1       0.887   8.740  22.062  0.00  0.00    +0.000 A 
ATOM     12  C   UNL     1       0.158   9.732  22.725  0.00  0.00    +0.000 A 
ATOM     13  C   UNL     1      -0.436  10.755  21.992  0.00  0.00    +0.000 A 
ATOM     14 BR   UNL     1      -1.431  12.093  22.884  0.00  0.00    +0.000 Br
ATOM     15  C   UNL     1      -0.304  10.800  20.605  0.00  0.00    +0.000 A 
ATOM     16  C   UNL     1       0.420   9.802  19.943  0.00  0.00    +0.000 A 
ENDBRANCH   6  10
TORSDOF 1
ENDMDL
