MODEL 1
REMARK VINA RESULT:      -5.4      0.000      0.000
REMARK  Name = 
REMARK  10 active torsions:
REMARK  status: ('A' for Active; 'I' for Inactive)
REMARK    1  A    between atoms: NZ_1  and  CE_2
REMARK    2  A    between atoms: CE_2  and  CD_3
REMARK    3  A    between atoms: CD_3  and  CG_4
REMARK    4  A    between atoms: CG_4  and  CB_5
REMARK    5  A    between atoms: CB_5  and  CA_6
REMARK    6  A    between atoms: CA_6  and  N_7
REMARK    7  A    between atoms: CA_6  and  C_8
REMARK    8  A    between atoms: N_10  and  CA_11
REMARK    9  A    between atoms: CA_11  and  C_12
REMARK   10  A    between atoms: C_12  and  OXT_14
REMARK                            x       y       z     vdW  Elec       q    Type
REMARK                         _______ _______ _______ _____ _____    ______ ____
ROOT
ATOM      1  CA  LYS A   1       3.514   2.213  17.884  0.00  0.00    +0.000 C 
ENDROOT
BRANCH   1   2
ATOM      2  C   LYS A   1       4.468   3.285  18.459  0.00  0.00    +0.000 C 
ATOM      3  O   LYS A   1       4.991   3.177  19.564  0.00  0.00    +0.000 OA
ATOM      4  N   GLY A   2       4.698   4.373  17.648  0.00  0.00    +0.000 N 
ATOM      5  H   GLY A   2       4.279   4.440  16.729  0.00  0.00    +0.000 HD
BRANCH   4   6
ATOM      6  CA  GLY A   2       5.606   5.435  18.054  0.00  0.00    +0.000 C 
BRANCH   6   7
ATOM      7  C   GLY A   2       7.000   5.181  17.500  0.00  0.00    +0.000 C 
ATOM      8  O   GLY A   2       7.458   5.762  16.526  0.00  0.00    +0.000 OA
BRANCH   7   9
ATOM      9  OXT GLY A   2       7.699   4.239  18.173  0.00  0.00    +0.000 OA
ATOM     10  HXT GLY A   2       7.167   3.662  18.752  0.00  0.00    +0.000 HD
ENDBRANCH   7   9
ENDBRANCH   6   7
ENDBRANCH   4   6
ENDBRANCH   1   2
BRANCH   1  11
ATOM     11  N   LYS A   1       3.818   0.903  18.485  0.00  0.00    +0.000 NA
ATOM     12  H1  LYS A   1       4.554   0.443  17.954  0.00  0.00    +0.000 HD
ATOM     13  H2  LYS A   1       2.993   0.306  18.407  0.00  0.00    +0.000 HD
ENDBRANCH   1  11
BRANCH   1  14
ATOM     14  CB  LYS A   1       2.039   2.549  18.128  0.00  0.00    +0.000 C 
BRANCH  14  15
ATOM     15  CG  LYS A   1       1.612   2.217  19.558  0.00  0.00    +0.000 C 
BRANCH  15  16
ATOM     16  CD  LYS A   1       1.177   3.474  20.307  0.00  0.00    +0.000 C 
BRANCH  16  17
ATOM     17  CE  LYS A   1       2.057   3.692  21.534  0.00  0.00    +0.000 C 
BRANCH  17  18
ATOM     18  NZ  LYS A   1       2.849   2.500  21.797  0.00  0.00    +0.000 NA
ATOM     19  HZ1 LYS A   1       3.645   2.746  22.384  0.00  0.00    +0.000 HD
ATOM     20  HZ2 LYS A   1       3.235   2.145  20.923  0.00  0.00    +0.000 HD
ENDBRANCH  17  18
ENDBRANCH  16  17
ENDBRANCH  15  16
ENDBRANCH  14  15
ENDBRANCH   1  14
TORSDOF 10
ENDMDL
MODEL 2
REMARK VINA RESULT:      -5.3      1.427      1.457
REMARK  Name = 
REMARK  10 active torsions:
REMARK  status: ('A' for Active; 'I' for Inactive)
REMARK    1  A    between atoms: NZ_1  and  CE_2
REMARK    2  A    between atoms: CE_2  and  CD_3
REMARK    3  A    between atoms: CD_3  and  CG_4
REMARK    4  A    between atoms: CG_4  and  CB_5
REMARK    5  A    between atoms: CB_5  and  CA_6
REMARK    6  A    between atoms: CA_6  and  N_7
REMARK    7  A    between atoms: CA_6  and  C_8
REMARK    8  A    between atoms: N_10  and  CA_11
REMARK    9  A    between atoms: CA_11  and  C_12
REMARK   10  A    between atoms: C_12  and  OXT_14
REMARK                            x       y       z     vdW  Elec       q    Type
REMARK                         _______ _______ _______ _____ _____    ______ ____
ROOT
ATOM      1  CA  LYS A   1       3.811   2.123  18.981  0.00  0.00    +0.000 C 
ENDROOT
BRANCH   1   2
ATOM      2  C   LYS A   1       4.295   3.372  18.209  0.00  0.00    +0.000 C 
ATOM      3  O   LYS A   1       3.588   3.959  17.395  0.00  0.00    +0.000 OA
ATOM      4  N   GLY A   2       5.576   3.788  18.494  0.00  0.00    +0.000 N 
ATOM      5  H   GLY A   2       6.142   3.309  19.184  0.00  0.00    +0.000 HD
BRANCH   4   6
ATOM      6  CA  GLY A   2       6.139   4.972  17.865  0.00  0.00    +0.000 C 
BRANCH   6   7
ATOM      7  C   GLY A   2       7.364   4.604  17.040  0.00  0.00    +0.000 C 
ATOM      8  O   GLY A   2       7.455   4.802  15.837  0.00  0.00    +0.000 OA
BRANCH   7   9
ATOM      9  OXT GLY A   2       8.354   4.021  17.753  0.00  0.00    +0.000 OA
ATOM     10  HXT GLY A   2       8.059   3.389  18.435  0.00  0.00    +0.000 HD
ENDBRANCH   7   9
ENDBRANCH   6   7
ENDBRANCH   4   6
ENDBRANCH   1   2
BRANCH   1  11
ATOM     11  N   LYS A   1       4.320   2.165  20.363  0.00  0.00    +0.000 NA
ATOM     12  H1  LYS A   1       3.578   1.909  21.011  0.00  0.00    +0.000 HD
ATOM     13  H2  LYS A   1       4.579   3.127  20.590  0.00  0.00    +0.000 HD
ENDBRANCH   1  11
BRANCH   1  14
ATOM     14  CB  LYS A   1       2.284   2.007  19.011  0.00  0.00    +0.000 C 
BRANCH  14  15
ATOM     15  CG  LYS A   1       1.700   2.549  20.316  0.00  0.00    +0.000 C 
BRANCH  15  16
ATOM     16  CD  LYS A   1       0.784   3.741  20.055  0.00  0.00    +0.000 C 
BRANCH  16  17
ATOM     17  CE  LYS A   1       1.452   5.034  20.511  0.00  0.00    +0.000 C 
BRANCH  17  18
ATOM     18  NZ  LYS A   1       2.598   4.731  21.356  0.00  0.00    +0.000 NA
ATOM     19  HZ1 LYS A   1       2.460   5.150  22.275  0.00  0.00    +0.000 HD
ATOM     20  HZ2 LYS A   1       3.435   5.163  20.966  0.00  0.00    +0.000 HD
ENDBRANCH  17  18
ENDBRANCH  16  17
ENDBRANCH  15  16
ENDBRANCH  14  15
ENDBRANCH   1  14
TORSDOF 10
ENDMDL
MODEL 3
REMARK VINA RESULT:      -5.3      1.029      1.114
REMARK  Name = 
REMARK  10 active torsions:
REMARK  status: ('A' for Active; 'I' for Inactive)
REMARK    1  A    between atoms: NZ_1  and  CE_2
REMARK    2  A    between atoms: CE_2  and  CD_3
REMARK    3  A    between atoms: CD_3  and  CG_4
REMARK    4  A    between atoms: CG_4  and  CB_5
REMARK    5  A    between atoms: CB_5  and  CA_6
REMARK    6  A    between atoms: CA_6  and  N_7
REMARK    7  A    between atoms: CA_6  and  C_8
REMARK    8  A    between atoms: N_10  and  CA_11
REMARK    9  A    between atoms: CA_11  and  C_12
REMARK   10  A    between atoms: C_12  and  OXT_14
REMARK                            x       y       z     vdW  Elec       q    Type
REMARK                         _______ _______ _______ _____ _____    ______ ____
ROOT
ATOM      1  CA  LYS A   1       3.361   2.651  17.784  0.00  0.00    +0.000 C 
ENDROOT
BRANCH   1   2
ATOM      2  C   LYS A   1       4.621   3.374  18.314  0.00  0.00    +0.000 C 
ATOM      3  O   LYS A   1       4.910   3.405  19.507  0.00  0.00    +0.000 OA
ATOM      4  N   GLY A   2       5.404   3.982  17.359  0.00  0.00    +0.000 N 
ATOM      5  H   GLY A   2       5.168   3.929  16.376  0.00  0.00    +0.000 HD
BRANCH   4   6
ATOM      6  CA  GLY A   2       6.638   4.662  17.721  0.00  0.00    +0.000 C 
BRANCH   6   7
ATOM      7  C   GLY A   2       7.258   5.323  16.499  0.00  0.00    +0.000 C 
ATOM      8  O   GLY A   2       7.514   4.726  15.463  0.00  0.00    +0.000 OA
BRANCH   7   9
ATOM      9  OXT GLY A   2       7.517   6.641  16.656  0.00  0.00    +0.000 OA
ATOM     10  HXT GLY A   2       8.333   6.958  16.223  0.00  0.00    +0.000 HD
ENDBRANCH   7   9
ENDBRANCH   6   7
ENDBRANCH   4   6
ENDBRANCH   1   2
BRANCH   1  11
ATOM     11  N   LYS A   1       3.212   1.351  18.461  0.00  0.00    +0.000 NA
ATOM     12  H1  LYS A   1       3.189   1.488  19.469  0.00  0.00    +0.000 HD
ATOM     13  H2  LYS A   1       4.039   0.783  18.268  0.00  0.00    +0.000 HD
ENDBRANCH   1  11
BRANCH   1  14
ATOM     14  CB  LYS A   1       2.084   3.473  17.986  0.00  0.00    +0.000 C 
BRANCH  14  15
ATOM     15  CG  LYS A   1       1.217   2.904  19.109  0.00  0.00    +0.000 C 
BRANCH  15  16
ATOM     16  CD  LYS A   1       1.157   3.862  20.296  0.00  0.00    +0.000 C 
BRANCH  16  17
ATOM     17  CE  LYS A   1       1.591   3.153  21.574  0.00  0.00    +0.000 C 
BRANCH  17  18
ATOM     18  NZ  LYS A   1       2.865   2.481  21.363  0.00  0.00    +0.000 NA
ATOM     19  HZ1 LYS A   1       2.875   1.604  21.883  0.00  0.00    +0.000 HD
ATOM     20  HZ2 LYS A   1       3.621   3.050  21.744  0.00  0.00    +0.000 HD
ENDBRANCH  17  18
ENDBRANCH  16  17
ENDBRANCH  15  16
ENDBRANCH  14  15
ENDBRANCH   1  14
TORSDOF 10
ENDMDL
MODEL 4
REMARK VINA RESULT:      -5.2      1.737      1.965
REMARK  Name = 
REMARK  10 active torsions:
REMARK  status: ('A' for Active; 'I' for Inactive)
REMARK    1  A    between atoms: NZ_1  and  CE_2
REMARK    2  A    between atoms: CE_2  and  CD_3
REMARK    3  A    between atoms: CD_3  and  CG_4
REMARK    4  A    between atoms: CG_4  and  CB_5
REMARK    5  A    between atoms: CB_5  and  CA_6
REMARK    6  A    between atoms: CA_6  and  N_7
REMARK    7  A    between atoms: CA_6  and  C_8
REMARK    8  A    between atoms: N_10  and  CA_11
REMARK    9  A    between atoms: CA_11  and  C_12
REMARK   10  A    between atoms: C_12  and  OXT_14
REMARK                            x       y       z     vdW  Elec       q    Type
REMARK                         _______ _______ _______ _____ _____    ______ ____
ROOT
ATOM      1  CA  LYS A   1       3.842   2.254  18.501  0.00  0.00    +0.000 C 
ENDROOT
BRANCH   1   2
ATOM      2  C   LYS A   1       4.172   3.413  17.532  0.00  0.00    +0.000 C 
ATOM      3  O   LYS A   1       3.437   4.387  17.395  0.00  0.00    +0.000 OA
ATOM      4  N   GLY A   2       5.349   3.284  16.830  0.00  0.00    +0.000 N 
ATOM      5  H   GLY A   2       5.958   2.487  16.969  0.00  0.00    +0.000 HD
BRANCH   4   6
ATOM      6  CA  GLY A   2       5.795   4.322  15.915  0.00  0.00    +0.000 C 
BRANCH   6   7
ATOM      7  C   GLY A   2       7.161   4.847  16.331  0.00  0.00    +0.000 C 
ATOM      8  O   GLY A   2       7.946   4.216  17.024  0.00  0.00    +0.000 OA
BRANCH   7   9
ATOM      9  OXT GLY A   2       7.438   6.090  15.877  0.00  0.00    +0.000 OA
ATOM     10  HXT GLY A   2       8.134   6.567  16.367  0.00  0.00    +0.000 HD
ENDBRANCH   7   9
ENDBRANCH   6   7
ENDBRANCH   4   6
ENDBRANCH   1   2
BRANCH   1  11
ATOM     11  N   LYS A   1       4.793   2.261  19.627  0.00  0.00    +0.000 NA
ATOM     12  H1  LYS A   1       5.599   2.836  19.392  0.00  0.00    +0.000 HD
ATOM     13  H2  LYS A   1       5.148   1.313  19.764  0.00  0.00    +0.000 HD
ENDBRANCH   1  11
BRANCH   1  14
ATOM     14  CB  LYS A   1       2.413   2.336  19.049  0.00  0.00    +0.000 C 
BRANCH  14  15
ATOM     15  CG  LYS A   1       2.367   3.036  20.407  0.00  0.00    +0.000 C 
BRANCH  15  16
ATOM     16  CD  LYS A   1       1.200   4.016  20.481  0.00  0.00    +0.000 C 
BRANCH  16  17
ATOM     17  CE  LYS A   1       1.714   5.449  20.578  0.00  0.00    +0.000 C 
BRANCH  17  18
ATOM     18  NZ  LYS A   1       3.144   5.484  20.307  0.00  0.00    +0.000 NA
ATOM     19  HZ1 LYS A   1       3.298   5.459  19.300  0.00  0.00    +0.000 HD
ATOM     20  HZ2 LYS A   1       3.585   4.647  20.687  0.00  0.00    +0.000 HD
ENDBRANCH  17  18
ENDBRANCH  16  17
ENDBRANCH  15  16
ENDBRANCH  14  15
ENDBRANCH   1  14
TORSDOF 10
ENDMDL
MODEL 5
REMARK VINA RESULT:      -5.2      1.866      2.194
REMARK  Name = 
REMARK  10 active torsions:
REMARK  status: ('A' for Active; 'I' for Inactive)
REMARK    1  A    between atoms: NZ_1  and  CE_2
REMARK    2  A    between atoms: CE_2  and  CD_3
REMARK    3  A    between atoms: CD_3  and  CG_4
REMARK    4  A    between atoms: CG_4  and  CB_5
REMARK    5  A    between atoms: CB_5  and  CA_6
REMARK    6  A    between atoms: CA_6  and  N_7
REMARK    7  A    between atoms: CA_6  and  C_8
REMARK    8  A    between atoms: N_10  and  CA_11
REMARK    9  A    between atoms: CA_11  and  C_12
REMARK   10  A    between atoms: C_12  and  OXT_14
REMARK                            x       y       z     vdW  Elec       q    Type
REMARK                         _______ _______ _______ _____ _____    ______ ____
ROOT
ATOM      1  CA  LYS A   1       3.472   4.531  18.721  0.00  0.00    +0.000 C 
ENDROOT
BRANCH   1   2
ATOM      2  C   LYS A   1       4.344   4.836  17.481  0.00  0.00    +0.000 C 
ATOM      3  O   LYS A   1       4.330   5.927  16.918  0.00  0.00    +0.000 OA
ATOM      4  N   GLY A   2       5.144   3.804  17.047  0.00  0.00    +0.000 N 
ATOM      5  H   GLY A   2       5.164   2.916  17.534  0.00  0.00    +0.000 HD
BRANCH   4   6
ATOM      6  CA  GLY A   2       6.041   3.972  15.915  0.00  0.00    +0.000 C 
BRANCH   6   7
ATOM      7  C   GLY A   2       7.275   4.761  16.327  0.00  0.00    +0.000 C 
ATOM      8  O   GLY A   2       7.538   5.877  15.904  0.00  0.00    +0.000 OA
BRANCH   7   9
ATOM      9  OXT GLY A   2       8.076   4.115  17.204  0.00  0.00    +0.000 OA
ATOM     10  HXT GLY A   2       7.890   4.291  18.146  0.00  0.00    +0.000 HD
ENDBRANCH   7   9
ENDBRANCH   6   7
ENDBRANCH   4   6
ENDBRANCH   1   2
BRANCH   1  11
ATOM     11  N   LYS A   1       3.768   5.503  19.788  0.00  0.00    +0.000 NA
ATOM     12  H1  LYS A   1       4.198   5.026  20.578  0.00  0.00    +0.000 HD
ATOM     13  H2  LYS A   1       2.888   5.891  20.133  0.00  0.00    +0.000 HD
ENDBRANCH   1  11
BRANCH   1  14
ATOM     14  CB  LYS A   1       1.973   4.568  18.408  0.00  0.00    +0.000 C 
BRANCH  14  15
ATOM     15  CG  LYS A   1       1.279   3.266  18.808  0.00  0.00    +0.000 C 
BRANCH  15  16
ATOM     16  CD  LYS A   1       0.673   3.372  20.204  0.00  0.00    +0.000 C 
BRANCH  16  17
ATOM     17  CE  LYS A   1       1.504   2.577  21.206  0.00  0.00    +0.000 C 
BRANCH  17  18
ATOM     18  NZ  LYS A   1       2.316   3.480  22.008  0.00  0.00    +0.000 NA
ATOM     19  HZ1 LYS A   1       3.164   3.717  21.495  0.00  0.00    +0.000 HD
ATOM     20  HZ2 LYS A   1       2.618   3.006  22.859  0.00  0.00    +0.000 HD
ENDBRANCH  17  18
ENDBRANCH  16  17
ENDBRANCH  15  16
ENDBRANCH  14  15
ENDBRANCH   1  14
TORSDOF 10
ENDMDL
MODEL 6
REMARK VINA RESULT:      -5.2      2.009      2.466
REMARK  Name = 
REMARK  10 active torsions:
REMARK  status: ('A' for Active; 'I' for Inactive)
REMARK    1  A    between atoms: NZ_1  and  CE_2
REMARK    2  A    between atoms: CE_2  and  CD_3
REMARK    3  A    between atoms: CD_3  and  CG_4
REMARK    4  A    between atoms: CG_4  and  CB_5
REMARK    5  A    between atoms: CB_5  and  CA_6
REMARK    6  A    between atoms: CA_6  and  N_7
REMARK    7  A    between atoms: CA_6  and  C_8
REMARK    8  A    between atoms: N_10  and  CA_11
REMARK    9  A    between atoms: CA_11  and  C_12
REMARK   10  A    between atoms: C_12  and  OXT_14
REMARK                            x       y       z     vdW  Elec       q    Type
REMARK                         _______ _______ _______ _____ _____    ______ ____
ROOT
ATOM      1  CA  LYS A   1       3.604   4.735  19.110  0.00  0.00    +0.000 C 
ENDROOT
BRANCH   1   2
ATOM      2  C   LYS A   1       5.126   4.916  18.913  0.00  0.00    +0.000 C 
ATOM      3  O   LYS A   1       5.952   4.178  19.442  0.00  0.00    +0.000 OA
ATOM      4  N   GLY A   2       5.501   5.962  18.100  0.00  0.00    +0.000 N 
ATOM      5  H   GLY A   2       4.810   6.550  17.650  0.00  0.00    +0.000 HD
BRANCH   4   6
ATOM      6  CA  GLY A   2       6.901   6.218  17.801  0.00  0.00    +0.000 C 
BRANCH   6   7
ATOM      7  C   GLY A   2       7.390   5.282  16.706  0.00  0.00    +0.000 C 
ATOM      8  O   GLY A   2       7.251   5.505  15.512  0.00  0.00    +0.000 OA
BRANCH   7   9
ATOM      9  OXT GLY A   2       7.991   4.161  17.166  0.00  0.00    +0.000 OA
ATOM     10  HXT GLY A   2       7.877   3.369  16.606  0.00  0.00    +0.000 HD
ENDBRANCH   7   9
ENDBRANCH   6   7
ENDBRANCH   4   6
ENDBRANCH   1   2
BRANCH   1  11
ATOM     11  N   LYS A   1       3.167   5.470  20.310  0.00  0.00    +0.000 NA
ATOM     12  H1  LYS A   1       2.275   5.926  20.129  0.00  0.00    +0.000 HD
ATOM     13  H2  LYS A   1       3.837   6.217  20.501  0.00  0.00    +0.000 HD
ENDBRANCH   1  11
BRANCH   1  14
ATOM     14  CB  LYS A   1       2.794   5.218  17.903  0.00  0.00    +0.000 C 
BRANCH  14  15
ATOM     15  CG  LYS A   1       1.611   4.295  17.609  0.00  0.00    +0.000 C 
BRANCH  15  16
ATOM     16  CD  LYS A   1       1.843   2.903  18.188  0.00  0.00    +0.000 C 
BRANCH  16  17
ATOM     17  CE  LYS A   1       0.649   2.471  19.033  0.00  0.00    +0.000 C 
BRANCH  17  18
ATOM     18  NZ  LYS A   1       0.622   3.225  20.278  0.00  0.00    +0.000 NA
ATOM     19  HZ1 LYS A   1       0.256   4.159  20.099  0.00  0.00    +0.000 HD
ATOM     20  HZ2 LYS A   1       1.573   3.349  20.624  0.00  0.00    +0.000 HD
ENDBRANCH  17  18
ENDBRANCH  16  17
ENDBRANCH  15  16
ENDBRANCH  14  15
ENDBRANCH   1  14
TORSDOF 10
ENDMDL
MODEL 7
REMARK VINA RESULT:      -5.2      1.386      1.633
REMARK  Name = 
REMARK  10 active torsions:
REMARK  status: ('A' for Active; 'I' for Inactive)
REMARK    1  A    between atoms: NZ_1  and  CE_2
REMARK    2  A    between atoms: CE_2  and  CD_3
REMARK    3  A    between atoms: CD_3  and  CG_4
REMARK    4  A    between atoms: CG_4  and  CB_5
REMARK    5  A    between atoms: CB_5  and  CA_6
REMARK    6  A    between atoms: CA_6  and  N_7
REMARK    7  A    between atoms: CA_6  and  C_8
REMARK    8  A    between atoms: N_10  and  CA_11
REMARK    9  A    between atoms: CA_11  and  C_12
REMARK   10  A    between atoms: C_12  and  OXT_14
REMARK                            x       y       z     vdW  Elec       q    Type
REMARK                         _______ _______ _______ _____ _____    ______ ____
ROOT
ATOM      1  CA  LYS A   1       3.251   2.720  17.822  0.00  0.00    +0.000 C 
ENDROOT
BRANCH   1   2
ATOM      2  C   LYS A   1       4.142   3.968  18.024  0.00  0.00    +0.000 C 
ATOM      3  O   LYS A   1       3.736   5.108  17.817  0.00  0.00    +0.000 OA
ATOM      4  N   GLY A   2       5.425   3.719  18.455  0.00  0.00    +0.000 N 
ATOM      5  H   GLY A   2       5.741   2.775  18.645  0.00  0.00    +0.000 HD
BRANCH   4   6
ATOM      6  CA  GLY A   2       6.353   4.807  18.722  0.00  0.00    +0.000 C 
BRANCH   6   7
ATOM      7  C   GLY A   2       7.487   4.798  17.707  0.00  0.00    +0.000 C 
ATOM      8  O   GLY A   2       8.454   4.053  17.779  0.00  0.00    +0.000 OA
BRANCH   7   9
ATOM      9  OXT GLY A   2       7.344   5.701  16.712  0.00  0.00    +0.000 OA
ATOM     10  HXT GLY A   2       6.489   6.171  16.696  0.00  0.00    +0.000 HD
ENDBRANCH   7   9
ENDBRANCH   6   7
ENDBRANCH   4   6
ENDBRANCH   1   2
BRANCH   1  11
ATOM     11  N   LYS A   1       3.885   1.549  18.453  0.00  0.00    +0.000 NA
ATOM     12  H1  LYS A   1       3.309   1.222  19.227  0.00  0.00    +0.000 HD
ATOM     13  H2  LYS A   1       4.776   1.837  18.861  0.00  0.00    +0.000 HD
ENDBRANCH   1  11
BRANCH   1  14
ATOM     14  CB  LYS A   1       1.844   2.903  18.399  0.00  0.00    +0.000 C 
BRANCH  14  15
ATOM     15  CG  LYS A   1       1.686   2.190  19.742  0.00  0.00    +0.000 C 
BRANCH  15  16
ATOM     16  CD  LYS A   1       1.705   3.186  20.899  0.00  0.00    +0.000 C 
BRANCH  16  17
ATOM     17  CE  LYS A   1       1.313   4.576  20.410  0.00  0.00    +0.000 C 
BRANCH  17  18
ATOM     18  NZ  LYS A   1       2.354   5.535  20.750  0.00  0.00    +0.000 NA
ATOM     19  HZ1 LYS A   1       1.929   6.358  21.175  0.00  0.00    +0.000 HD
ATOM     20  HZ2 LYS A   1       2.815   5.856  19.899  0.00  0.00    +0.000 HD
ENDBRANCH  17  18
ENDBRANCH  16  17
ENDBRANCH  15  16
ENDBRANCH  14  15
ENDBRANCH   1  14
TORSDOF 10
ENDMDL
MODEL 8
REMARK VINA RESULT:      -5.1      1.544      1.638
REMARK  Name = 
REMARK  10 active torsions:
REMARK  status: ('A' for Active; 'I' for Inactive)
REMARK    1  A    between atoms: NZ_1  and  CE_2
REMARK    2  A    between atoms: CE_2  and  CD_3
REMARK    3  A    between atoms: CD_3  and  CG_4
REMARK    4  A    between atoms: CG_4  and  CB_5
REMARK    5  A    between atoms: CB_5  and  CA_6
REMARK    6  A    between atoms: CA_6  and  N_7
REMARK    7  A    between atoms: CA_6  and  C_8
REMARK    8  A    between atoms: N_10  and  CA_11
REMARK    9  A    between atoms: CA_11  and  C_12
REMARK   10  A    between atoms: C_12  and  OXT_14
REMARK                            x       y       z     vdW  Elec       q    Type
REMARK                         _______ _______ _______ _____ _____    ______ ____
ROOT
ATOM      1  CA  LYS A   1       3.322   2.920  17.545  0.00  0.00    +0.000 C 
ENDROOT
BRANCH   1   2
ATOM      2  C   LYS A   1       4.392   4.005  17.811  0.00  0.00    +0.000 C 
ATOM      3  O   LYS A   1       4.149   5.028  18.444  0.00  0.00    +0.000 OA
ATOM      4  N   GLY A   2       5.640   3.749  17.291  0.00  0.00    +0.000 N 
ATOM      5  H   GLY A   2       5.834   2.891  16.790  0.00  0.00    +0.000 HD
BRANCH   4   6
ATOM      6  CA  GLY A   2       6.746   4.670  17.503  0.00  0.00    +0.000 C 
BRANCH   6   7
ATOM      7  C   GLY A   2       6.832   5.668  16.358  0.00  0.00    +0.000 C 
ATOM      8  O   GLY A   2       7.522   5.498  15.362  0.00  0.00    +0.000 OA
BRANCH   7   9
ATOM      9  OXT GLY A   2       6.083   6.779  16.536  0.00  0.00    +0.000 OA
ATOM     10  HXT GLY A   2       5.494   7.007  15.792  0.00  0.00    +0.000 HD
ENDBRANCH   7   9
ENDBRANCH   6   7
ENDBRANCH   4   6
ENDBRANCH   1   2
BRANCH   1  11
ATOM     11  N   LYS A   1       3.754   1.641  18.135  0.00  0.00    +0.000 NA
ATOM     12  H1  LYS A   1       3.392   1.559  19.082  0.00  0.00    +0.000 HD
ATOM     13  H2  LYS A   1       4.773   1.643  18.217  0.00  0.00    +0.000 HD
ENDBRANCH   1  11
BRANCH   1  14
ATOM     14  CB  LYS A   1       1.950   3.297  18.112  0.00  0.00    +0.000 C 
BRANCH  14  15
ATOM     15  CG  LYS A   1       1.493   2.314  19.189  0.00  0.00    +0.000 C 
BRANCH  15  16
ATOM     16  CD  LYS A   1       1.455   2.981  20.561  0.00  0.00    +0.000 C 
BRANCH  16  17
ATOM     17  CE  LYS A   1       1.280   4.489  20.415  0.00  0.00    +0.000 C 
BRANCH  17  18
ATOM     18  NZ  LYS A   1       2.383   5.184  21.064  0.00  0.00    +0.000 NA
ATOM     19  HZ1 LYS A   1       2.835   4.555  21.726  0.00  0.00    +0.000 HD
ATOM     20  HZ2 LYS A   1       2.022   5.965  21.610  0.00  0.00    +0.000 HD
ENDBRANCH  17  18
ENDBRANCH  16  17
ENDBRANCH  15  16
ENDBRANCH  14  15
ENDBRANCH   1  14
TORSDOF 10
ENDMDL
MODEL 9
REMARK VINA RESULT:      -5.1      1.594      1.650
REMARK  Name = 
REMARK  10 active torsions:
REMARK  status: ('A' for Active; 'I' for Inactive)
REMARK    1  A    between atoms: NZ_1  and  CE_2
REMARK    2  A    between atoms: CE_2  and  CD_3
REMARK    3  A    between atoms: CD_3  and  CG_4
REMARK    4  A    between atoms: CG_4  and  CB_5
REMARK    5  A    between atoms: CB_5  and  CA_6
REMARK    6  A    between atoms: CA_6  and  N_7
REMARK    7  A    between atoms: CA_6  and  C_8
REMARK    8  A    between atoms: N_10  and  CA_11
REMARK    9  A    between atoms: CA_11  and  C_12
REMARK   10  A    between atoms: C_12  and  OXT_14
REMARK                            x       y       z     vdW  Elec       q    Type
REMARK                         _______ _______ _______ _____ _____    ______ ____
ROOT
ATOM      1  CA  LYS A   1       3.171   2.206  18.308  0.00  0.00    +0.000 C 
ENDROOT
BRANCH   1   2
ATOM      2  C   LYS A   1       3.742   3.446  17.583  0.00  0.00    +0.000 C 
ATOM      3  O   LYS A   1       3.164   4.529  17.573  0.00  0.00    +0.000 OA
ATOM      4  N   GLY A   2       4.948   3.260  16.946  0.00  0.00    +0.000 N 
ATOM      5  H   GLY A   2       5.427   2.368  16.981  0.00  0.00    +0.000 HD
BRANCH   4   6
ATOM      6  CA  GLY A   2       5.613   4.356  16.259  0.00  0.00    +0.000 C 
BRANCH   6   7
ATOM      7  C   GLY A   2       6.835   4.811  17.043  0.00  0.00    +0.000 C 
ATOM      8  O   GLY A   2       7.588   5.697  16.669  0.00  0.00    +0.000 OA
BRANCH   7   9
ATOM      9  OXT GLY A   2       7.031   4.138  18.200  0.00  0.00    +0.000 OA
ATOM     10  HXT GLY A   2       7.789   3.523  18.200  0.00  0.00    +0.000 HD
ENDBRANCH   7   9
ENDBRANCH   6   7
ENDBRANCH   4   6
ENDBRANCH   1   2
BRANCH   1  11
ATOM     11  N   LYS A   1       4.184   1.137  18.340  0.00  0.00    +0.000 NA
ATOM     12  H1  LYS A   1       4.338   0.837  19.300  0.00  0.00    +0.000 HD
ATOM     13  H2  LYS A   1       5.074   1.518  18.013  0.00  0.00    +0.000 HD
ENDBRANCH   1  11
BRANCH   1  14
ATOM     14  CB  LYS A   1       2.724   2.518  19.740  0.00  0.00    +0.000 C 
BRANCH  14  15
ATOM     15  CG  LYS A   1       1.222   2.796  19.817  0.00  0.00    +0.000 C 
BRANCH  15  16
ATOM     16  CD  LYS A   1       0.949   4.186  20.385  0.00  0.00    +0.000 C 
BRANCH  16  17
ATOM     17  CE  LYS A   1       2.219   4.770  20.994  0.00  0.00    +0.000 C 
BRANCH  17  18
ATOM     18  NZ  LYS A   1       2.608   5.975  20.275  0.00  0.00    +0.000 NA
ATOM     19  HZ1 LYS A   1       2.647   5.774  19.277  0.00  0.00    +0.000 HD
ATOM     20  HZ2 LYS A   1       3.550   6.249  20.550  0.00  0.00    +0.000 HD
ENDBRANCH  17  18
ENDBRANCH  16  17
ENDBRANCH  15  16
ENDBRANCH  14  15
ENDBRANCH   1  14
TORSDOF 10
ENDMDL
