MODEL 1
REMARK VINA RESULT:      -8.1      0.000      0.000
REMARK  Name = 
REMARK  12 active torsions:
REMARK  status: ('A' for Active; 'I' for Inactive)
REMARK    1  A    between atoms: C_2  and  C_3
REMARK    2  A    between atoms: C_3  and  O_4
REMARK    3  A    between atoms: O_4  and  C_5
REMARK    4  A    between atoms: C_5  and  C_7
REMARK    5  A    between atoms: C_7  and  C_8
REMARK    6  A    between atoms: C_9  and  C_10
REMARK    7  A    between atoms: C_10  and  O_12
REMARK    8  A    between atoms: O_12  and  C_13
REMARK    9  A    between atoms: C_13  and  C_14
REMARK   10  A    between atoms: C_16  and  N_17
REMARK   11  A    between atoms: C_22  and  C_23
REMARK   12  A    between atoms: C_29  and  C_30
REMARK                            x       y       z     vdW  Elec       q    Type
REMARK                         _______ _______ _______ _____ _____    ______ ____
ROOT
ATOM      1  C   UNL     1       4.320   5.428  18.313  0.00  0.00    +0.000 C 
ATOM      2  C   UNL     1       4.700   3.986  18.069  0.00  0.00    +0.000 C 
ATOM      3  C   UNL     1       3.966   2.969  18.568  0.00  0.00    +0.000 C 
ATOM      4  O   UNL     1       2.824   3.189  19.344  0.00  0.00    +0.000 OA
ATOM      5  C   UNL     1       2.480   4.465  19.719  0.00  0.00    +0.000 A 
ATOM      6  C   UNL     1       1.369   4.633  20.540  0.00  0.00    +0.000 A 
ATOM      7  C   UNL     1       0.950   5.922  20.907  0.00  0.00    +0.000 A 
ATOM      8  C   UNL     1       1.628   7.078  20.471  0.00  0.00    +0.000 A 
ATOM      9  C   UNL     1       2.767   6.872  19.686  0.00  0.00    +0.000 A 
ATOM     10  C   UNL     1       3.180   5.584  19.288  0.00  0.00    +0.000 A 
ENDROOT
BRANCH   8  11
ATOM     11  C   UNL     1       1.159   8.444  20.810  0.00  0.00    +0.000 A 
ATOM     12  C   UNL     1       0.779   8.815  22.105  0.00  0.00    +0.000 A 
ATOM     13  C   UNL     1       0.294  10.095  22.328  0.00  0.00    +0.000 A 
ATOM     14  N   UNL     1       0.104  11.009  21.353  0.00  0.00    +0.000 NA
ATOM     15  C   UNL     1       0.469  10.663  20.110  0.00  0.00    +0.000 A 
ATOM     16  N   UNL     1       0.182  11.481  19.017  0.00  0.00    +0.000 N 
ATOM     17  C   UNL     1      -0.360  12.723  18.959  0.00  0.00    +0.000 C 
ATOM     18  C   UNL     1      -0.523  13.582  20.182  0.00  0.00    +0.000 C 
ATOM     19  O   UNL     1      -0.701  13.149  17.851  0.00  0.00    +0.000 OA
ATOM     20  C   UNL     1       1.059   9.435  19.825  0.00  0.00    +0.000 A 
ATOM     21  H   UNL     1       0.271  11.066  18.100  0.00  0.00    +0.000 HD
ENDBRANCH   8  11
BRANCH   3  22
ATOM     22  N   UNL     1       4.248   1.647  18.401  0.00  0.00    +0.000 N 
ATOM     23  H   UNL     1       4.381   1.051  19.213  0.00  0.00    +0.000 HD
ATOM     24  H   UNL     1       4.434   1.295  17.472  0.00  0.00    +0.000 HD
ENDBRANCH   3  22
BRANCH   2  25
ATOM     25  C   UNL     1       5.958   3.855  17.281  0.00  0.00    +0.000 C 
ATOM     26  O   UNL     1       7.044   4.147  17.768  0.00  0.00    +0.000 OA
BRANCH  25  27
ATOM     27  O   UNL     1       5.766   3.457  16.003  0.00  0.00    +0.000 OA
BRANCH  27  28
ATOM     28  C   UNL     1       6.649   4.046  15.039  0.00  0.00    +0.000 C 
BRANCH  28  29
ATOM     29  C   UNL     1       6.140   3.765  13.694  0.00  0.00    +0.000 C 
ATOM     30  C   UNL     1       5.723   3.554  12.583  0.00  0.00    +0.000 C 
ENDBRANCH  28  29
ENDBRANCH  27  28
ENDBRANCH  25  27
ENDBRANCH   2  25
BRANCH   1  31
ATOM     31  C   UNL     1       3.987   6.157  17.003  0.00  0.00    +0.000 C 
BRANCH  31  32
ATOM     32  C   UNL     1       5.160   6.925  16.475  0.00  0.00    +0.000 C 
ATOM     33  O   UNL     1       5.372   7.099  15.278  0.00  0.00    +0.000 OA
BRANCH  32  34
ATOM     34  O   UNL     1       5.973   7.326  17.486  0.00  0.00    +0.000 OA
BRANCH  34  35
ATOM     35  C   UNL     1       7.348   7.276  17.139  0.00  0.00    +0.000 C 
BRANCH  35  37
ATOM     36  C   UNL     1       8.506   9.586  18.275  0.00  0.00    +0.000 C 
ATOM     37  C   UNL     1       7.972   8.519  17.751  0.00  0.00    +0.000 C 
ENDBRANCH  35  37
ENDBRANCH  34  35
ENDBRANCH  32  34
ENDBRANCH  31  32
ENDBRANCH   1  31
TORSDOF 11
ENDMDL
MODEL 2
REMARK VINA RESULT:      -7.4      3.341     10.127
REMARK  Name = 
REMARK  12 active torsions:
REMARK  status: ('A' for Active; 'I' for Inactive)
REMARK    1  A    between atoms: C_2  and  C_3
REMARK    2  A    between atoms: C_3  and  O_4
REMARK    3  A    between atoms: O_4  and  C_5
REMARK    4  A    between atoms: C_5  and  C_7
REMARK    5  A    between atoms: C_7  and  C_8
REMARK    6  A    between atoms: C_9  and  C_10
REMARK    7  A    between atoms: C_10  and  O_12
REMARK    8  A    between atoms: O_12  and  C_13
REMARK    9  A    between atoms: C_13  and  C_14
REMARK   10  A    between atoms: C_16  and  N_17
REMARK   11  A    between atoms: C_22  and  C_23
REMARK   12  A    between atoms: C_29  and  C_30
REMARK                            x       y       z     vdW  Elec       q    Type
REMARK                         _______ _______ _______ _____ _____    ______ ____
ROOT
ATOM      1  C   UNL     1      -1.689  11.576  20.616  0.00  0.00    +0.000 C 
ATOM      2  C   UNL     1      -2.486  12.300  21.675  0.00  0.00    +0.000 C 
ATOM      3  C   UNL     1      -2.248  12.113  22.990  0.00  0.00    +0.000 C 
ATOM      4  O   UNL     1      -1.262  11.233  23.447  0.00  0.00    +0.000 OA
ATOM      5  C   UNL     1      -0.578  10.441  22.557  0.00  0.00    +0.000 A 
ATOM      6  C   UNL     1       0.354   9.539  23.061  0.00  0.00    +0.000 A 
ATOM      7  C   UNL     1       1.112   8.744  22.186  0.00  0.00    +0.000 A 
ATOM      8  C   UNL     1       0.962   8.825  20.787  0.00  0.00    +0.000 A 
ATOM      9  C   UNL     1      -0.015   9.707  20.316  0.00  0.00    +0.000 A 
ATOM     10  C   UNL     1      -0.763  10.530  21.184  0.00  0.00    +0.000 A 
ENDROOT
BRANCH   8  11
ATOM     11  C   UNL     1       1.798   8.028  19.856  0.00  0.00    +0.000 A 
ATOM     12  C   UNL     1       2.204   8.506  18.605  0.00  0.00    +0.000 A 
ATOM     13  C   UNL     1       2.935   7.676  17.767  0.00  0.00    +0.000 A 
ATOM     14  N   UNL     1       3.240   6.393  18.056  0.00  0.00    +0.000 NA
ATOM     15  C   UNL     1       2.857   5.929  19.255  0.00  0.00    +0.000 A 
ATOM     16  N   UNL     1       2.998   4.581  19.588  0.00  0.00    +0.000 N 
ATOM     17  C   UNL     1       3.589   3.561  18.917  0.00  0.00    +0.000 C 
ATOM     18  C   UNL     1       4.472   3.794  17.723  0.00  0.00    +0.000 C 
ATOM     19  O   UNL     1       3.400   2.414  19.335  0.00  0.00    +0.000 OA
ATOM     20  C   UNL     1       2.212   6.732  20.190  0.00  0.00    +0.000 A 
ATOM     21  H   UNL     1       2.488   4.255  20.398  0.00  0.00    +0.000 HD
ENDBRANCH   8  11
BRANCH   3  22
ATOM     22  N   UNL     1      -2.930  12.720  24.001  0.00  0.00    +0.000 N 
ATOM     23  H   UNL     1      -3.500  13.538  23.808  0.00  0.00    +0.000 HD
ATOM     24  H   UNL     1      -2.773  12.418  24.953  0.00  0.00    +0.000 HD
ENDBRANCH   3  22
BRANCH   2  25
ATOM     25  C   UNL     1      -3.547  13.170  21.092  0.00  0.00    +0.000 C 
ATOM     26  O   UNL     1      -3.510  14.388  21.220  0.00  0.00    +0.000 OA
BRANCH  25  27
ATOM     27  O   UNL     1      -4.546  12.487  20.487  0.00  0.00    +0.000 OA
BRANCH  27  28
ATOM     28  C   UNL     1      -5.866  12.780  20.964  0.00  0.00    +0.000 C 
BRANCH  28  29
ATOM     29  C   UNL     1      -6.751  11.659  20.637  0.00  0.00    +0.000 C 
ATOM     30  C   UNL     1      -7.464  10.723  20.376  0.00  0.00    +0.000 C 
ENDBRANCH  28  29
ENDBRANCH  27  28
ENDBRANCH  25  27
ENDBRANCH   2  25
BRANCH   1  31
ATOM     31  C   UNL     1      -0.894  12.551  19.737  0.00  0.00    +0.000 C 
BRANCH  31  32
ATOM     32  C   UNL     1      -1.209  12.380  18.282  0.00  0.00    +0.000 C 
ATOM     33  O   UNL     1      -0.686  13.047  17.393  0.00  0.00    +0.000 OA
BRANCH  32  34
ATOM     34  O   UNL     1      -2.185  11.455  18.102  0.00  0.00    +0.000 OA
BRANCH  34  35
ATOM     35  C   UNL     1      -1.760  10.350  17.320  0.00  0.00    +0.000 C 
BRANCH  35  37
ATOM     36  C   UNL     1      -3.261  10.480  14.932  0.00  0.00    +0.000 C 
ATOM     37  C   UNL     1      -2.568  10.421  16.034  0.00  0.00    +0.000 C 
ENDBRANCH  35  37
ENDBRANCH  34  35
ENDBRANCH  32  34
ENDBRANCH  31  32
ENDBRANCH   1  31
TORSDOF 11
ENDMDL
MODEL 3
REMARK VINA RESULT:      -7.3      4.069     10.953
REMARK  Name = 
REMARK  12 active torsions:
REMARK  status: ('A' for Active; 'I' for Inactive)
REMARK    1  A    between atoms: C_2  and  C_3
REMARK    2  A    between atoms: C_3  and  O_4
REMARK    3  A    between atoms: O_4  and  C_5
REMARK    4  A    between atoms: C_5  and  C_7
REMARK    5  A    between atoms: C_7  and  C_8
REMARK    6  A    between atoms: C_9  and  C_10
REMARK    7  A    between atoms: C_10  and  O_12
REMARK    8  A    between atoms: O_12  and  C_13
REMARK    9  A    between atoms: C_13  and  C_14
REMARK   10  A    between atoms: C_16  and  N_17
REMARK   11  A    between atoms: C_22  and  C_23
REMARK   12  A    between atoms: C_29  and  C_30
REMARK                            x       y       z     vdW  Elec       q    Type
REMARK                         _______ _______ _______ _____ _____    ______ ____
ROOT
ATOM      1  C   UNL     1      -3.109  11.894  19.894  0.00  0.00    +0.000 C 
ATOM      2  C   UNL     1      -3.785  13.100  20.502  0.00  0.00    +0.000 C 
ATOM      3  C   UNL     1      -3.083  14.045  21.162  0.00  0.00    +0.000 C 
ATOM      4  O   UNL     1      -1.698  13.958  21.330  0.00  0.00    +0.000 OA
ATOM      5  C   UNL     1      -1.023  12.834  20.920  0.00  0.00    +0.000 A 
ATOM      6  C   UNL     1       0.346  12.765  21.160  0.00  0.00    +0.000 A 
ATOM      7  C   UNL     1       1.086  11.658  20.713  0.00  0.00    +0.000 A 
ATOM      8  C   UNL     1       0.484  10.589  20.020  0.00  0.00    +0.000 A 
ATOM      9  C   UNL     1      -0.901  10.668  19.838  0.00  0.00    +0.000 A 
ATOM     10  C   UNL     1      -1.649  11.788  20.256  0.00  0.00    +0.000 A 
ENDROOT
BRANCH   8  11
ATOM     11  C   UNL     1       1.268   9.444  19.499  0.00  0.00    +0.000 A 
ATOM     12  C   UNL     1       1.734   9.382  18.180  0.00  0.00    +0.000 A 
ATOM     13  C   UNL     1       2.409   8.247  17.753  0.00  0.00    +0.000 A 
ATOM     14  N   UNL     1       2.603   7.153  18.519  0.00  0.00    +0.000 NA
ATOM     15  C   UNL     1       2.163   7.205  19.784  0.00  0.00    +0.000 A 
ATOM     16  N   UNL     1       2.187   6.079  20.607  0.00  0.00    +0.000 N 
ATOM     17  C   UNL     1       2.705   4.842  20.399  0.00  0.00    +0.000 C 
ATOM     18  C   UNL     1       3.624   4.543  19.248  0.00  0.00    +0.000 C 
ATOM     19  O   UNL     1       2.415   3.955  21.209  0.00  0.00    +0.000 OA
ATOM     20  C   UNL     1       1.569   8.346  20.316  0.00  0.00    +0.000 A 
ATOM     21  H   UNL     1       1.639   6.120  21.455  0.00  0.00    +0.000 HD
ENDBRANCH   8  11
BRANCH   3  22
ATOM     22  N   UNL     1      -3.621  15.153  21.745  0.00  0.00    +0.000 N 
ATOM     23  H   UNL     1      -3.566  16.050  21.273  0.00  0.00    +0.000 HD
ATOM     24  H   UNL     1      -3.971  15.093  22.692  0.00  0.00    +0.000 HD
ENDBRANCH   3  22
BRANCH   2  25
ATOM     25  C   UNL     1      -5.264  13.075  20.319  0.00  0.00    +0.000 C 
ATOM     26  O   UNL     1      -5.846  13.983  19.737  0.00  0.00    +0.000 OA
BRANCH  25  27
ATOM     27  O   UNL     1      -5.872  12.016  20.900  0.00  0.00    +0.000 OA
BRANCH  27  28
ATOM     28  C   UNL     1      -7.201  12.258  21.380  0.00  0.00    +0.000 C 
BRANCH  28  29
ATOM     29  C   UNL     1      -7.135  12.620  22.799  0.00  0.00    +0.000 C 
ATOM     30  C   UNL     1      -7.095  12.902  23.969  0.00  0.00    +0.000 C 
ENDBRANCH  28  29
ENDBRANCH  27  28
ENDBRANCH  25  27
ENDBRANCH   2  25
BRANCH   1  31
ATOM     31  C   UNL     1      -3.269  11.862  18.368  0.00  0.00    +0.000 C 
BRANCH  31  32
ATOM     32  C   UNL     1      -4.110  10.707  17.916  0.00  0.00    +0.000 C 
ATOM     33  O   UNL     1      -5.338  10.710  17.950  0.00  0.00    +0.000 OA
BRANCH  32  34
ATOM     34  O   UNL     1      -3.334   9.658  17.544  0.00  0.00    +0.000 OA
BRANCH  34  35
ATOM     35  C   UNL     1      -2.312  10.025  16.632  0.00  0.00    +0.000 C 
BRANCH  35  37
ATOM     36  C   UNL     1      -3.528  10.041  14.084  0.00  0.00    +0.000 C 
ATOM     37  C   UNL     1      -2.966  10.033  15.260  0.00  0.00    +0.000 C 
ENDBRANCH  35  37
ENDBRANCH  34  35
ENDBRANCH  32  34
ENDBRANCH  31  32
ENDBRANCH   1  31
TORSDOF 11
ENDMDL
MODEL 4
REMARK VINA RESULT:      -7.1      3.242      9.771
REMARK  Name = 
REMARK  12 active torsions:
REMARK  status: ('A' for Active; 'I' for Inactive)
REMARK    1  A    between atoms: C_2  and  C_3
REMARK    2  A    between atoms: C_3  and  O_4
REMARK    3  A    between atoms: O_4  and  C_5
REMARK    4  A    between atoms: C_5  and  C_7
REMARK    5  A    between atoms: C_7  and  C_8
REMARK    6  A    between atoms: C_9  and  C_10
REMARK    7  A    between atoms: C_10  and  O_12
REMARK    8  A    between atoms: O_12  and  C_13
REMARK    9  A    between atoms: C_13  and  C_14
REMARK   10  A    between atoms: C_16  and  N_17
REMARK   11  A    between atoms: C_22  and  C_23
REMARK   12  A    between atoms: C_29  and  C_30
REMARK                            x       y       z     vdW  Elec       q    Type
REMARK                         _______ _______ _______ _____ _____    ______ ____
ROOT
ATOM      1  C   UNL     1      -1.420  11.763  20.410  0.00  0.00    +0.000 C 
ATOM      2  C   UNL     1      -2.218  12.510  21.453  0.00  0.00    +0.000 C 
ATOM      3  C   UNL     1      -2.057  12.269  22.771  0.00  0.00    +0.000 C 
ATOM      4  O   UNL     1      -1.155  11.311  23.245  0.00  0.00    +0.000 OA
ATOM      5  C   UNL     1      -0.484  10.500  22.363  0.00  0.00    +0.000 A 
ATOM      6  C   UNL     1       0.360   9.522  22.881  0.00  0.00    +0.000 A 
ATOM      7  C   UNL     1       1.106   8.703  22.017  0.00  0.00    +0.000 A 
ATOM      8  C   UNL     1       1.029   8.833  20.616  0.00  0.00    +0.000 A 
ATOM      9  C   UNL     1       0.137   9.794  20.129  0.00  0.00    +0.000 A 
ATOM     10  C   UNL     1      -0.595  10.641  20.987  0.00  0.00    +0.000 A 
ENDROOT
BRANCH   8  11
ATOM     11  C   UNL     1       1.855   8.009  19.700  0.00  0.00    +0.000 A 
ATOM     12  C   UNL     1       2.254   8.452  18.434  0.00  0.00    +0.000 A 
ATOM     13  C   UNL     1       2.974   7.596  17.613  0.00  0.00    +0.000 A 
ATOM     14  N   UNL     1       3.275   6.320  17.934  0.00  0.00    +0.000 NA
ATOM     15  C   UNL     1       2.899   5.889  19.147  0.00  0.00    +0.000 A 
ATOM     16  N   UNL     1       3.036   4.550  19.514  0.00  0.00    +0.000 N 
ATOM     17  C   UNL     1       3.617   3.509  18.865  0.00  0.00    +0.000 C 
ATOM     18  C   UNL     1       4.492   3.707  17.659  0.00  0.00    +0.000 C 
ATOM     19  O   UNL     1       3.425   2.374  19.315  0.00  0.00    +0.000 OA
ATOM     20  C   UNL     1       2.264   6.720  20.065  0.00  0.00    +0.000 A 
ATOM     21  H   UNL     1       2.530   4.247  20.335  0.00  0.00    +0.000 HD
ENDBRANCH   8  11
BRANCH   3  22
ATOM     22  N   UNL     1      -2.745  12.892  23.768  0.00  0.00    +0.000 N 
ATOM     23  H   UNL     1      -2.302  13.043  24.670  0.00  0.00    +0.000 HD
ATOM     24  H   UNL     1      -3.726  13.097  23.638  0.00  0.00    +0.000 HD
ENDBRANCH   3  22
BRANCH   2  25
ATOM     25  C   UNL     1      -3.189  13.466  20.849  0.00  0.00    +0.000 C 
ATOM     26  O   UNL     1      -3.073  14.675  21.012  0.00  0.00    +0.000 OA
BRANCH  25  27
ATOM     27  O   UNL     1      -4.205  12.870  20.183  0.00  0.00    +0.000 OA
BRANCH  27  28
ATOM     28  C   UNL     1      -5.367  12.580  20.971  0.00  0.00    +0.000 C 
BRANCH  28  29
ATOM     29  C   UNL     1      -6.277  11.741  20.186  0.00  0.00    +0.000 C 
ATOM     30  C   UNL     1      -7.041  11.059  19.552  0.00  0.00    +0.000 C 
ENDBRANCH  28  29
ENDBRANCH  27  28
ENDBRANCH  25  27
ENDBRANCH   2  25
BRANCH   1  31
ATOM     31  C   UNL     1      -0.520  12.707  19.600  0.00  0.00    +0.000 C 
BRANCH  31  32
ATOM     32  C   UNL     1       0.583  13.284  20.434  0.00  0.00    +0.000 C 
ATOM     33  O   UNL     1       0.405  14.146  21.290  0.00  0.00    +0.000 OA
BRANCH  32  34
ATOM     34  O   UNL     1       1.787  12.781  20.060  0.00  0.00    +0.000 OA
BRANCH  34  35
ATOM     35  C   UNL     1       1.931  12.685  18.652  0.00  0.00    +0.000 C 
BRANCH  35  37
ATOM     36  C   UNL     1       3.325  15.010  17.864  0.00  0.00    +0.000 C 
ATOM     37  C   UNL     1       2.682  13.937  18.229  0.00  0.00    +0.000 C 
ENDBRANCH  35  37
ENDBRANCH  34  35
ENDBRANCH  32  34
ENDBRANCH  31  32
ENDBRANCH   1  31
TORSDOF 11
ENDMDL
MODEL 5
REMARK VINA RESULT:      -7.0      3.206      9.933
REMARK  Name = 
REMARK  12 active torsions:
REMARK  status: ('A' for Active; 'I' for Inactive)
REMARK    1  A    between atoms: C_2  and  C_3
REMARK    2  A    between atoms: C_3  and  O_4
REMARK    3  A    between atoms: O_4  and  C_5
REMARK    4  A    between atoms: C_5  and  C_7
REMARK    5  A    between atoms: C_7  and  C_8
REMARK    6  A    between atoms: C_9  and  C_10
REMARK    7  A    between atoms: C_10  and  O_12
REMARK    8  A    between atoms: O_12  and  C_13
REMARK    9  A    between atoms: C_13  and  C_14
REMARK   10  A    between atoms: C_16  and  N_17
REMARK   11  A    between atoms: C_22  and  C_23
REMARK   12  A    between atoms: C_29  and  C_30
REMARK                            x       y       z     vdW  Elec       q    Type
REMARK                         _______ _______ _______ _____ _____    ______ ____
ROOT
ATOM      1  C   UNL     1      -1.738  12.012  20.634  0.00  0.00    +0.000 C 
ATOM      2  C   UNL     1      -2.607  12.678  21.674  0.00  0.00    +0.000 C 
ATOM      3  C   UNL     1      -2.528  12.344  22.980  0.00  0.00    +0.000 C 
ATOM      4  O   UNL     1      -1.649  11.360  23.441  0.00  0.00    +0.000 OA
ATOM      5  C   UNL     1      -0.915  10.617  22.548  0.00  0.00    +0.000 A 
ATOM      6  C   UNL     1      -0.097   9.608  23.048  0.00  0.00    +0.000 A 
ATOM      7  C   UNL     1       0.710   8.857  22.178  0.00  0.00    +0.000 A 
ATOM      8  C   UNL     1       0.721   9.087  20.788  0.00  0.00    +0.000 A 
ATOM      9  C   UNL     1      -0.147  10.076  20.314  0.00  0.00    +0.000 A 
ATOM     10  C   UNL     1      -0.940  10.855  21.181  0.00  0.00    +0.000 A 
ENDROOT
BRANCH   8  11
ATOM     11  C   UNL     1       1.611   8.334  19.870  0.00  0.00    +0.000 A 
ATOM     12  C   UNL     1       1.935   8.789  18.587  0.00  0.00    +0.000 A 
ATOM     13  C   UNL     1       2.726   7.996  17.767  0.00  0.00    +0.000 A 
ATOM     14  N   UNL     1       3.166   6.766  18.106  0.00  0.00    +0.000 NA
ATOM     15  C   UNL     1       2.862   6.325  19.335  0.00  0.00    +0.000 A 
ATOM     16  N   UNL     1       3.147   5.016  19.725  0.00  0.00    +0.000 N 
ATOM     17  C   UNL     1       3.822   4.028  19.085  0.00  0.00    +0.000 C 
ATOM     18  C   UNL     1       4.647   4.290  17.856  0.00  0.00    +0.000 C 
ATOM     19  O   UNL     1       3.760   2.890  19.561  0.00  0.00    +0.000 OA
ATOM     20  C   UNL     1       2.162   7.104  20.251  0.00  0.00    +0.000 A 
ATOM     21  H   UNL     1       2.693   4.680  20.564  0.00  0.00    +0.000 HD
ENDBRANCH   8  11
BRANCH   3  22
ATOM     22  N   UNL     1      -3.283  12.891  23.973  0.00  0.00    +0.000 N 
ATOM     23  H   UNL     1      -4.297  12.887  23.898  0.00  0.00    +0.000 HD
ATOM     24  H   UNL     1      -2.827  13.393  24.721  0.00  0.00    +0.000 HD
ENDBRANCH   3  22
BRANCH   2  25
ATOM     25  C   UNL     1      -3.547  13.671  21.079  0.00  0.00    +0.000 C 
ATOM     26  O   UNL     1      -3.618  14.815  21.512  0.00  0.00    +0.000 OA
BRANCH  25  27
ATOM     27  O   UNL     1      -4.324  13.168  20.093  0.00  0.00    +0.000 OA
BRANCH  27  28
ATOM     28  C   UNL     1      -5.729  13.419  20.230  0.00  0.00    +0.000 C 
BRANCH  28  29
ATOM     29  C   UNL     1      -6.433  12.139  20.335  0.00  0.00    +0.000 C 
ATOM     30  C   UNL     1      -6.994  11.076  20.423  0.00  0.00    +0.000 C 
ENDBRANCH  28  29
ENDBRANCH  27  28
ENDBRANCH  25  27
ENDBRANCH   2  25
BRANCH   1  31
ATOM     31  C   UNL     1      -0.797  13.016  19.953  0.00  0.00    +0.000 C 
BRANCH  31  32
ATOM     32  C   UNL     1      -0.663  12.752  18.484  0.00  0.00    +0.000 C 
ATOM     33  O   UNL     1      -1.562  12.273  17.797  0.00  0.00    +0.000 OA
BRANCH  32  34
ATOM     34  O   UNL     1       0.591  13.041  18.051  0.00  0.00    +0.000 OA
BRANCH  34  35
ATOM     35  C   UNL     1       1.447  13.476  19.096  0.00  0.00    +0.000 C 
BRANCH  35  37
ATOM     36  C   UNL     1       3.072  15.488  17.964  0.00  0.00    +0.000 C 
ATOM     37  C   UNL     1       2.322  14.559  18.487  0.00  0.00    +0.000 C 
ENDBRANCH  35  37
ENDBRANCH  34  35
ENDBRANCH  32  34
ENDBRANCH  31  32
ENDBRANCH   1  31
TORSDOF 11
ENDMDL
MODEL 6
REMARK VINA RESULT:      -6.9      3.250     10.172
REMARK  Name = 
REMARK  12 active torsions:
REMARK  status: ('A' for Active; 'I' for Inactive)
REMARK    1  A    between atoms: C_2  and  C_3
REMARK    2  A    between atoms: C_3  and  O_4
REMARK    3  A    between atoms: O_4  and  C_5
REMARK    4  A    between atoms: C_5  and  C_7
REMARK    5  A    between atoms: C_7  and  C_8
REMARK    6  A    between atoms: C_9  and  C_10
REMARK    7  A    between atoms: C_10  and  O_12
REMARK    8  A    between atoms: O_12  and  C_13
REMARK    9  A    between atoms: C_13  and  C_14
REMARK   10  A    between atoms: C_16  and  N_17
REMARK   11  A    between atoms: C_22  and  C_23
REMARK   12  A    between atoms: C_29  and  C_30
REMARK                            x       y       z     vdW  Elec       q    Type
REMARK                         _______ _______ _______ _____ _____    ______ ____
ROOT
ATOM      1  C   UNL     1      -1.407  11.814  20.426  0.00  0.00    +0.000 C 
ATOM      2  C   UNL     1      -2.217  12.557  21.463  0.00  0.00    +0.000 C 
ATOM      3  C   UNL     1      -2.087  12.295  22.781  0.00  0.00    +0.000 C 
ATOM      4  O   UNL     1      -1.207  11.318  23.259  0.00  0.00    +0.000 OA
ATOM      5  C   UNL     1      -0.529  10.511  22.380  0.00  0.00    +0.000 A 
ATOM      6  C   UNL     1       0.291   9.514  22.900  0.00  0.00    +0.000 A 
ATOM      7  C   UNL     1       1.044   8.698  22.040  0.00  0.00    +0.000 A 
ATOM      8  C   UNL     1       0.998   8.849  20.640  0.00  0.00    +0.000 A 
ATOM      9  C   UNL     1       0.129   9.829  20.148  0.00  0.00    +0.000 A 
ATOM     10  C   UNL     1      -0.610  10.673  21.003  0.00  0.00    +0.000 A 
ENDROOT
BRANCH   8  11
ATOM     11  C   UNL     1       1.831   8.027  19.729  0.00  0.00    +0.000 A 
ATOM     12  C   UNL     1       2.232   8.468  18.463  0.00  0.00    +0.000 A 
ATOM     13  C   UNL     1       2.961   7.615  17.647  0.00  0.00    +0.000 A 
ATOM     14  N   UNL     1       3.267   6.341  17.972  0.00  0.00    +0.000 NA
ATOM     15  C   UNL     1       2.889   5.911  19.185  0.00  0.00    +0.000 A 
ATOM     16  N   UNL     1       3.031   4.574  19.555  0.00  0.00    +0.000 N 
ATOM     17  C   UNL     1       3.620   3.534  18.912  0.00  0.00    +0.000 C 
ATOM     18  C   UNL     1       4.498   3.733  17.709  0.00  0.00    +0.000 C 
ATOM     19  O   UNL     1       3.432   2.400  19.364  0.00  0.00    +0.000 OA
ATOM     20  C   UNL     1       2.246   6.741  20.099  0.00  0.00    +0.000 A 
ATOM     21  H   UNL     1       2.524   4.270  20.376  0.00  0.00    +0.000 HD
ENDBRANCH   8  11
BRANCH   3  22
ATOM     22  N   UNL     1      -2.786  12.912  23.773  0.00  0.00    +0.000 N 
ATOM     23  H   UNL     1      -2.691  13.914  23.911  0.00  0.00    +0.000 HD
ATOM     24  H   UNL     1      -3.308  12.352  24.433  0.00  0.00    +0.000 HD
ENDBRANCH   3  22
BRANCH   2  25
ATOM     25  C   UNL     1      -3.162  13.535  20.854  0.00  0.00    +0.000 C 
ATOM     26  O   UNL     1      -3.080  14.733  21.099  0.00  0.00    +0.000 OA
BRANCH  25  27
ATOM     27  O   UNL     1      -4.119  12.967  20.084  0.00  0.00    +0.000 OA
BRANCH  27  28
ATOM     28  C   UNL     1      -5.320  12.597  20.773  0.00  0.00    +0.000 C 
BRANCH  28  29
ATOM     29  C   UNL     1      -6.117  11.725  19.906  0.00  0.00    +0.000 C 
ATOM     30  C   UNL     1      -6.763  11.017  19.176  0.00  0.00    +0.000 C 
ENDBRANCH  28  29
ENDBRANCH  27  28
ENDBRANCH  25  27
ENDBRANCH   2  25
BRANCH   1  31
ATOM     31  C   UNL     1      -0.479  12.757  19.649  0.00  0.00    +0.000 C 
BRANCH  31  32
ATOM     32  C   UNL     1       0.365  13.593  20.562  0.00  0.00    +0.000 C 
ATOM     33  O   UNL     1       1.141  13.120  21.390  0.00  0.00    +0.000 OA
BRANCH  32  34
ATOM     34  O   UNL     1       0.098  14.913  20.398  0.00  0.00    +0.000 OA
BRANCH  34  35
ATOM     35  C   UNL     1       0.040  15.297  19.033  0.00  0.00    +0.000 C 
BRANCH  35  37
ATOM     36  C   UNL     1      -1.547  17.631  18.960  0.00  0.00    +0.000 C 
ATOM     37  C   UNL     1      -0.815  16.554  18.995  0.00  0.00    +0.000 C 
ENDBRANCH  35  37
ENDBRANCH  34  35
ENDBRANCH  32  34
ENDBRANCH  31  32
ENDBRANCH   1  31
TORSDOF 11
ENDMDL
MODEL 7
REMARK VINA RESULT:      -6.9      3.536      9.674
REMARK  Name = 
REMARK  12 active torsions:
REMARK  status: ('A' for Active; 'I' for Inactive)
REMARK    1  A    between atoms: C_2  and  C_3
REMARK    2  A    between atoms: C_3  and  O_4
REMARK    3  A    between atoms: O_4  and  C_5
REMARK    4  A    between atoms: C_5  and  C_7
REMARK    5  A    between atoms: C_7  and  C_8
REMARK    6  A    between atoms: C_9  and  C_10
REMARK    7  A    between atoms: C_10  and  O_12
REMARK    8  A    between atoms: O_12  and  C_13
REMARK    9  A    between atoms: C_13  and  C_14
REMARK   10  A    between atoms: C_16  and  N_17
REMARK   11  A    between atoms: C_22  and  C_23
REMARK   12  A    between atoms: C_29  and  C_30
REMARK                            x       y       z     vdW  Elec       q    Type
REMARK                         _______ _______ _______ _____ _____    ______ ____
ROOT
ATOM      1  C   UNL     1       0.464  12.692  20.752  0.00  0.00    +0.000 C 
ATOM      2  C   UNL     1      -0.344  13.581  21.669  0.00  0.00    +0.000 C 
ATOM      3  C   UNL     1      -0.958  13.091  22.766  0.00  0.00    +0.000 C 
ATOM      4  O   UNL     1      -0.892  11.738  23.111  0.00  0.00    +0.000 OA
ATOM      5  C   UNL     1      -0.287  10.840  22.267  0.00  0.00    +0.000 A 
ATOM      6  C   UNL     1      -0.295   9.494  22.622  0.00  0.00    +0.000 A 
ATOM      7  C   UNL     1       0.355   8.546  21.814  0.00  0.00    +0.000 A 
ATOM      8  C   UNL     1       1.028   8.911  20.632  0.00  0.00    +0.000 A 
ATOM      9  C   UNL     1       0.977  10.264  20.280  0.00  0.00    +0.000 A 
ATOM     10  C   UNL     1       0.352  11.228  21.097  0.00  0.00    +0.000 A 
ENDROOT
BRANCH   8  11
ATOM     11  C   UNL     1       1.763   7.924  19.804  0.00  0.00    +0.000 A 
ATOM     12  C   UNL     1       2.310   8.239  18.555  0.00  0.00    +0.000 A 
ATOM     13  C   UNL     1       2.930   7.242  17.817  0.00  0.00    +0.000 A 
ATOM     14  N   UNL     1       2.994   5.949  18.199  0.00  0.00    +0.000 NA
ATOM     15  C   UNL     1       2.474   5.639  19.396  0.00  0.00    +0.000 A 
ATOM     16  N   UNL     1       2.363   4.314  19.816  0.00  0.00    +0.000 N 
ATOM     17  C   UNL     1       2.804   3.164  19.245  0.00  0.00    +0.000 C 
ATOM     18  C   UNL     1       3.776   3.163  18.098  0.00  0.00    +0.000 C 
ATOM     19  O   UNL     1       2.398   2.097  19.717  0.00  0.00    +0.000 OA
ATOM     20  C   UNL     1       1.928   6.602  20.240  0.00  0.00    +0.000 A 
ATOM     21  H   UNL     1       1.763   4.134  20.609  0.00  0.00    +0.000 HD
ENDBRANCH   8  11
BRANCH   3  22
ATOM     22  N   UNL     1      -1.710  13.825  23.633  0.00  0.00    +0.000 N 
ATOM     23  H   UNL     1      -2.076  13.393  24.476  0.00  0.00    +0.000 HD
ATOM     24  H   UNL     1      -1.990  14.761  23.374  0.00  0.00    +0.000 HD
ENDBRANCH   3  22
BRANCH   2  25
ATOM     25  C   UNL     1      -0.400  14.991  21.188  0.00  0.00    +0.000 C 
ATOM     26  O   UNL     1      -0.023  15.917  21.896  0.00  0.00    +0.000 OA
BRANCH  25  27
ATOM     27  O   UNL     1      -0.952  15.131  19.961  0.00  0.00    +0.000 OA
BRANCH  27  28
ATOM     28  C   UNL     1      -0.190  15.913  19.032  0.00  0.00    +0.000 C 
BRANCH  28  29
ATOM     29  C   UNL     1      -0.944  17.123  18.697  0.00  0.00    +0.000 C 
ATOM     30  C   UNL     1      -1.565  18.124  18.442  0.00  0.00    +0.000 C 
ENDBRANCH  28  29
ENDBRANCH  27  28
ENDBRANCH  25  27
ENDBRANCH   2  25
BRANCH   1  31
ATOM     31  C   UNL     1       1.941  13.106  20.716  0.00  0.00    +0.000 C 
BRANCH  31  32
ATOM     32  C   UNL     1       2.391  13.460  19.331  0.00  0.00    +0.000 C 
ATOM     33  O   UNL     1       1.923  12.951  18.316  0.00  0.00    +0.000 OA
BRANCH  32  34
ATOM     34  O   UNL     1       3.418  14.347  19.366  0.00  0.00    +0.000 OA
BRANCH  34  35
ATOM     35  C   UNL     1       4.006  14.559  18.092  0.00  0.00    +0.000 C 
BRANCH  35  37
ATOM     36  C   UNL     1       2.891  16.965  17.124  0.00  0.00    +0.000 C 
ATOM     37  C   UNL     1       3.405  15.854  17.571  0.00  0.00    +0.000 C 
ENDBRANCH  35  37
ENDBRANCH  34  35
ENDBRANCH  32  34
ENDBRANCH  31  32
ENDBRANCH   1  31
TORSDOF 11
ENDMDL
MODEL 8
REMARK VINA RESULT:      -6.9      3.152      9.784
REMARK  Name = 
REMARK  12 active torsions:
REMARK  status: ('A' for Active; 'I' for Inactive)
REMARK    1  A    between atoms: C_2  and  C_3
REMARK    2  A    between atoms: C_3  and  O_4
REMARK    3  A    between atoms: O_4  and  C_5
REMARK    4  A    between atoms: C_5  and  C_7
REMARK    5  A    between atoms: C_7  and  C_8
REMARK    6  A    between atoms: C_9  and  C_10
REMARK    7  A    between atoms: C_10  and  O_12
REMARK    8  A    between atoms: O_12  and  C_13
REMARK    9  A    between atoms: C_13  and  C_14
REMARK   10  A    between atoms: C_16  and  N_17
REMARK   11  A    between atoms: C_22  and  C_23
REMARK   12  A    between atoms: C_29  and  C_30
REMARK                            x       y       z     vdW  Elec       q    Type
REMARK                         _______ _______ _______ _____ _____    ______ ____
ROOT
ATOM      1  C   UNL     1      -1.350  11.970  20.655  0.00  0.00    +0.000 C 
ATOM      2  C   UNL     1      -2.187  12.641  21.720  0.00  0.00    +0.000 C 
ATOM      3  C   UNL     1      -2.134  12.249  23.010  0.00  0.00    +0.000 C 
ATOM      4  O   UNL     1      -1.314  11.198  23.433  0.00  0.00    +0.000 OA
ATOM      5  C   UNL     1      -0.618  10.452  22.512  0.00  0.00    +0.000 A 
ATOM      6  C   UNL     1       0.139   9.379  22.972  0.00  0.00    +0.000 A 
ATOM      7  C   UNL     1       0.906   8.620  22.073  0.00  0.00    +0.000 A 
ATOM      8  C   UNL     1       0.938   8.906  20.694  0.00  0.00    +0.000 A 
ATOM      9  C   UNL     1       0.129   9.962  20.259  0.00  0.00    +0.000 A 
ATOM     10  C   UNL     1      -0.623  10.748  21.156  0.00  0.00    +0.000 A 
ENDROOT
BRANCH   8  11
ATOM     11  C   UNL     1       1.788   8.143  19.748  0.00  0.00    +0.000 A 
ATOM     12  C   UNL     1       2.126   8.621  18.477  0.00  0.00    +0.000 A 
ATOM     13  C   UNL     1       2.877   7.820  17.629  0.00  0.00    +0.000 A 
ATOM     14  N   UNL     1       3.263   6.561  17.928  0.00  0.00    +0.000 NA
ATOM     15  C   UNL     1       2.946   6.097  19.145  0.00  0.00    +0.000 A 
ATOM     16  N   UNL     1       3.174   4.765  19.493  0.00  0.00    +0.000 N 
ATOM     17  C   UNL     1       3.801   3.769  18.819  0.00  0.00    +0.000 C 
ATOM     18  C   UNL     1       4.631   4.031  17.594  0.00  0.00    +0.000 C 
ATOM     19  O   UNL     1       3.691   2.620  19.261  0.00  0.00    +0.000 OA
ATOM     20  C   UNL     1       2.286   6.878  20.089  0.00  0.00    +0.000 A 
ATOM     21  H   UNL     1       2.710   4.424  20.324  0.00  0.00    +0.000 HD
ENDBRANCH   8  11
BRANCH   3  22
ATOM     22  N   UNL     1      -2.862  12.795  24.023  0.00  0.00    +0.000 N 
ATOM     23  H   UNL     1      -2.424  13.451  24.664  0.00  0.00    +0.000 HD
ATOM     24  H   UNL     1      -3.800  12.459  24.195  0.00  0.00    +0.000 HD
ENDBRANCH   3  22
BRANCH   2  25
ATOM     25  C   UNL     1      -3.065  13.709  21.164  0.00  0.00    +0.000 C 
ATOM     26  O   UNL     1      -3.861  13.469  20.263  0.00  0.00    +0.000 OA
BRANCH  25  27
ATOM     27  O   UNL     1      -2.848  14.932  21.698  0.00  0.00    +0.000 OA
BRANCH  27  28
ATOM     28  C   UNL     1      -3.039  16.035  20.802  0.00  0.00    +0.000 C 
BRANCH  28  29
ATOM     29  C   UNL     1      -1.764  16.346  20.151  0.00  0.00    +0.000 C 
ATOM     30  C   UNL     1      -0.712  16.581  19.612  0.00  0.00    +0.000 C 
ENDBRANCH  28  29
ENDBRANCH  27  28
ENDBRANCH  25  27
ENDBRANCH   2  25
BRANCH   1  31
ATOM     31  C   UNL     1      -0.351  12.946  20.019  0.00  0.00    +0.000 C 
BRANCH  31  32
ATOM     32  C   UNL     1      -0.379  12.882  18.522  0.00  0.00    +0.000 C 
ATOM     33  O   UNL     1      -1.351  12.494  17.879  0.00  0.00    +0.000 OA
BRANCH  32  34
ATOM     34  O   UNL     1       0.823  13.234  17.999  0.00  0.00    +0.000 OA
BRANCH  34  35
ATOM     35  C   UNL     1       1.887  13.109  18.930  0.00  0.00    +0.000 C 
BRANCH  35  37
ATOM     36  C   UNL     1       3.899  14.873  18.032  0.00  0.00    +0.000 C 
ATOM     37  C   UNL     1       2.971  14.058  18.448  0.00  0.00    +0.000 C 
ENDBRANCH  35  37
ENDBRANCH  34  35
ENDBRANCH  32  34
ENDBRANCH  31  32
ENDBRANCH   1  31
TORSDOF 11
ENDMDL
MODEL 9
REMARK VINA RESULT:      -6.9      4.445      7.848
REMARK  Name = 
REMARK  12 active torsions:
REMARK  status: ('A' for Active; 'I' for Inactive)
REMARK    1  A    between atoms: C_2  and  C_3
REMARK    2  A    between atoms: C_3  and  O_4
REMARK    3  A    between atoms: O_4  and  C_5
REMARK    4  A    between atoms: C_5  and  C_7
REMARK    5  A    between atoms: C_7  and  C_8
REMARK    6  A    between atoms: C_9  and  C_10
REMARK    7  A    between atoms: C_10  and  O_12
REMARK    8  A    between atoms: O_12  and  C_13
REMARK    9  A    between atoms: C_13  and  C_14
REMARK   10  A    between atoms: C_16  and  N_17
REMARK   11  A    between atoms: C_22  and  C_23
REMARK   12  A    between atoms: C_29  and  C_30
REMARK                            x       y       z     vdW  Elec       q    Type
REMARK                         _______ _______ _______ _____ _____    ______ ____
ROOT
ATOM      1  C   UNL     1      -0.187  10.461  19.507  0.00  0.00    +0.000 C 
ATOM      2  C   UNL     1       0.859   9.378  19.642  0.00  0.00    +0.000 C 
ATOM      3  C   UNL     1       1.120   8.793  20.829  0.00  0.00    +0.000 C 
ATOM      4  O   UNL     1       0.449   9.160  22.000  0.00  0.00    +0.000 OA
ATOM      5  C   UNL     1      -0.424  10.220  21.991  0.00  0.00    +0.000 A 
ATOM      6  C   UNL     1      -1.025  10.588  23.192  0.00  0.00    +0.000 A 
ATOM      7  C   UNL     1      -1.963  11.633  23.222  0.00  0.00    +0.000 A 
ATOM      8  C   UNL     1      -2.324  12.342  22.059  0.00  0.00    +0.000 A 
ATOM      9  C   UNL     1      -1.667  11.979  20.879  0.00  0.00    +0.000 A 
ATOM     10  C   UNL     1      -0.746  10.913  20.832  0.00  0.00    +0.000 A 
ENDROOT
BRANCH   8  11
ATOM     11  C   UNL     1      -3.354  13.410  22.074  0.00  0.00    +0.000 A 
ATOM     12  C   UNL     1      -4.038  13.819  20.924  0.00  0.00    +0.000 A 
ATOM     13  C   UNL     1      -4.943  14.867  21.012  0.00  0.00    +0.000 A 
ATOM     14  N   UNL     1      -5.173  15.573  22.139  0.00  0.00    +0.000 NA
ATOM     15  C   UNL     1      -4.523  15.186  23.246  0.00  0.00    +0.000 A 
ATOM     16  N   UNL     1      -4.583  15.936  24.421  0.00  0.00    +0.000 N 
ATOM     17  C   UNL     1      -5.313  17.036  24.732  0.00  0.00    +0.000 C 
ATOM     18  C   UNL     1      -6.448  17.513  23.870  0.00  0.00    +0.000 C 
ATOM     19  O   UNL     1      -5.032  17.635  25.776  0.00  0.00    +0.000 OA
ATOM     20  C   UNL     1      -3.678  14.079  23.262  0.00  0.00    +0.000 A 
ATOM     21  H   UNL     1      -3.899  15.723  25.134  0.00  0.00    +0.000 HD
ENDBRANCH   8  11
BRANCH   3  22
ATOM     22  N   UNL     1       2.052   7.821  21.033  0.00  0.00    +0.000 N 
ATOM     23  H   UNL     1       2.996   7.943  20.679  0.00  0.00    +0.000 HD
ATOM     24  H   UNL     1       1.766   6.939  21.436  0.00  0.00    +0.000 HD
ENDBRANCH   3  22
BRANCH   2  25
ATOM     25  C   UNL     1       1.555   9.097  18.354  0.00  0.00    +0.000 C 
ATOM     26  O   UNL     1       1.832  10.000  17.573  0.00  0.00    +0.000 OA
BRANCH  25  27
ATOM     27  O   UNL     1       1.777   7.783  18.126  0.00  0.00    +0.000 OA
BRANCH  27  28
ATOM     28  C   UNL     1       3.129   7.438  17.795  0.00  0.00    +0.000 C 
BRANCH  28  29
ATOM     29  C   UNL     1       3.281   5.982  17.870  0.00  0.00    +0.000 C 
ATOM     30  C   UNL     1       3.398   4.784  17.913  0.00  0.00    +0.000 C 
ENDBRANCH  28  29
ENDBRANCH  27  28
ENDBRANCH  25  27
ENDBRANCH   2  25
BRANCH   1  31
ATOM     31  C   UNL     1      -1.332  10.032  18.579  0.00  0.00    +0.000 C 
BRANCH  31  32
ATOM     32  C   UNL     1      -1.557  11.017  17.473  0.00  0.00    +0.000 C 
ATOM     33  O   UNL     1      -1.411  12.230  17.606  0.00  0.00    +0.000 OA
BRANCH  32  34
ATOM     34  O   UNL     1      -2.007  10.396  16.353  0.00  0.00    +0.000 OA
BRANCH  34  35
ATOM     35  C   UNL     1      -3.299  10.834  15.962  0.00  0.00    +0.000 C 
BRANCH  35  37
ATOM     36  C   UNL     1      -3.679   9.850  13.343  0.00  0.00    +0.000 C 
ATOM     37  C   UNL     1      -3.504  10.305  14.552  0.00  0.00    +0.000 C 
ENDBRANCH  35  37
ENDBRANCH  34  35
ENDBRANCH  32  34
ENDBRANCH  31  32
ENDBRANCH   1  31
TORSDOF 11
ENDMDL
