MODEL 1
REMARK VINA RESULT:      -7.5      0.000      0.000
REMARK  Name = 
REMARK  15 active torsions:
REMARK  status: ('A' for Active; 'I' for Inactive)
REMARK    1  A    between atoms: C_1  and  C_2
REMARK    2  A    between atoms: N_7  and  C_8
REMARK    3  A    between atoms: C_8  and  C_9
REMARK    4  A    between atoms: C_9  and  C_10
REMARK    5  A    between atoms: C_9  and  C_11
REMARK    6  A    between atoms: C_15  and  C_16
REMARK    7  A    between atoms: N_18  and  C_19
REMARK    8  A    between atoms: C_19  and  C_20
REMARK    9  A    between atoms: C_20  and  C_21
REMARK   10  A    between atoms: C_21  and  N_22
REMARK   11  A    between atoms: N_22  and  C_23
REMARK   12  A    between atoms: N_22  and  C_30
REMARK   13  A    between atoms: C_23  and  C_24
REMARK   14  A    between atoms: C_30  and  C_31
REMARK   15  A    between atoms: C_30  and  C_32
REMARK                            x       y       z     vdW  Elec       q    Type
REMARK                         _______ _______ _______ _____ _____    ______ ____
ROOT
ATOM      1  C   UNL     1       1.298   9.223  18.771  0.00  0.00    +0.000 C 
ATOM      2  O   UNL     1       0.834   9.317  17.641  0.00  0.00    +0.000 OA
ATOM      3  N   UNL     1       2.103   8.183  19.159  0.00  0.00    +0.000 N 
ATOM      4  H   UNL     1       2.371   8.086  20.135  0.00  0.00    +0.000 HD
ENDROOT
BRANCH   1  15
ATOM      5  C   UNL     1      -0.183   8.760  21.594  0.00  0.00    +0.000 C 
ATOM      6  C   UNL     1       0.419   9.975  21.003  0.00  0.00    +0.000 A 
ATOM      7  O   UNL     1       0.316  11.116  21.745  0.00  0.00    +0.000 OA
ATOM      8  C   UNL     1       0.903  12.119  21.044  0.00  0.00    +0.000 A 
ATOM      9  N   UNL     1       0.984  13.393  21.486  0.00  0.00    +0.000 NA
ATOM     10  C   UNL     1       1.625  14.180  20.682  0.00  0.00    +0.000 A 
ATOM     11  N   UNL     1       2.192  13.818  19.470  0.00  0.00    +0.000 N 
ATOM     12  C   UNL     1       2.058  12.526  18.962  0.00  0.00    +0.000 A 
ATOM     13  O   UNL     1       2.462  12.182  17.855  0.00  0.00    +0.000 OA
ATOM     14  C   UNL     1       1.378  11.617  19.850  0.00  0.00    +0.000 A 
ATOM     15  C   UNL     1       1.060  10.231  19.796  0.00  0.00    +0.000 A 
BRANCH  11  16
ATOM     16  C   UNL     1       2.949  14.793  18.693  0.00  0.00    +0.000 C 
BRANCH  16  17
ATOM     17  C   UNL     1       4.434  14.884  19.091  0.00  0.00    +0.000 C 
ATOM     18  C   UNL     1       5.364  14.699  17.892  0.00  0.00    +0.000 C 
ATOM     19  C   UNL     1       4.706  16.241  19.747  0.00  0.00    +0.000 C 
ENDBRANCH  16  17
ENDBRANCH  11  16
ENDBRANCH   1  15
BRANCH   3  20
ATOM     20  C   UNL     1       2.464   7.104  18.270  0.00  0.00    +0.000 C 
BRANCH  20  21
ATOM     21  C   UNL     1       3.861   7.293  17.672  0.00  0.00    +0.000 C 
BRANCH  21  22
ATOM     22  C   UNL     1       4.345   5.958  17.087  0.00  0.00    +0.000 C 
BRANCH  22  23
ATOM     23  N   UNL     1       4.746   4.918  18.060  0.00  0.00    +0.000 NA
BRANCH  23  24
ATOM     24  C   UNL     1       6.225   4.708  18.062  0.00  0.00    +0.000 C 
ATOM     25  C   UNL     1       6.911   5.074  16.730  0.00  0.00    +0.000 C 
ATOM     26  C   UNL     1       6.941   5.536  19.145  0.00  0.00    +0.000 C 
ENDBRANCH  23  24
BRANCH  23  27
ATOM     27  C   UNL     1       3.976   3.655  17.894  0.00  0.00    +0.000 C 
BRANCH  27  28
ATOM     28  C   UNL     1       3.025   3.300  19.028  0.00  0.00    +0.000 A 
ATOM     29  C   UNL     1       1.644   3.503  18.894  0.00  0.00    +0.000 A 
ATOM     30  C   UNL     1       0.786   3.323  19.980  0.00  0.00    +0.000 A 
ATOM     31  C   UNL     1       1.295   2.906  21.206  0.00  0.00    +0.000 A 
ATOM     32  C   UNL     1       2.653   2.636  21.338  0.00  0.00    +0.000 A 
ATOM     33  C   UNL     1       3.511   2.822  20.251  0.00  0.00    +0.000 A 
ENDBRANCH  27  28
ENDBRANCH  23  27
ENDBRANCH  22  23
ENDBRANCH  21  22
ENDBRANCH  20  21
ENDBRANCH   3  20
TORSDOF 10
ENDMDL
MODEL 2
REMARK VINA RESULT:      -7.5      3.106      9.200
REMARK  Name = 
REMARK  15 active torsions:
REMARK  status: ('A' for Active; 'I' for Inactive)
REMARK    1  A    between atoms: C_1  and  C_2
REMARK    2  A    between atoms: N_7  and  C_8
REMARK    3  A    between atoms: C_8  and  C_9
REMARK    4  A    between atoms: C_9  and  C_10
REMARK    5  A    between atoms: C_9  and  C_11
REMARK    6  A    between atoms: C_15  and  C_16
REMARK    7  A    between atoms: N_18  and  C_19
REMARK    8  A    between atoms: C_19  and  C_20
REMARK    9  A    between atoms: C_20  and  C_21
REMARK   10  A    between atoms: C_21  and  N_22
REMARK   11  A    between atoms: N_22  and  C_23
REMARK   12  A    between atoms: N_22  and  C_30
REMARK   13  A    between atoms: C_23  and  C_24
REMARK   14  A    between atoms: C_30  and  C_31
REMARK   15  A    between atoms: C_30  and  C_32
REMARK                            x       y       z     vdW  Elec       q    Type
REMARK                         _______ _______ _______ _____ _____    ______ ____
ROOT
ATOM      1  C   UNL     1       4.340   7.032  17.227  0.00  0.00    +0.000 C 
ATOM      2  O   UNL     1       4.655   7.336  16.083  0.00  0.00    +0.000 OA
ATOM      3  N   UNL     1       3.391   7.717  17.942  0.00  0.00    +0.000 N 
ATOM      4  H   UNL     1       3.243   7.502  18.925  0.00  0.00    +0.000 HD
ENDROOT
BRANCH   1  15
ATOM      5  C   UNL     1       7.449   6.643  17.974  0.00  0.00    +0.000 C 
ATOM      6  C   UNL     1       6.276   5.775  18.221  0.00  0.00    +0.000 A 
ATOM      7  O   UNL     1       6.531   4.587  18.843  0.00  0.00    +0.000 OA
ATOM      8  C   UNL     1       5.352   3.925  18.969  0.00  0.00    +0.000 A 
ATOM      9  N   UNL     1       5.235   2.709  19.544  0.00  0.00    +0.000 NA
ATOM     10  C   UNL     1       4.015   2.279  19.602  0.00  0.00    +0.000 A 
ATOM     11  N   UNL     1       2.894   2.948  19.135  0.00  0.00    +0.000 N 
ATOM     12  C   UNL     1       3.001   4.172  18.474  0.00  0.00    +0.000 A 
ATOM     13  O   UNL     1       2.051   4.757  17.963  0.00  0.00    +0.000 OA
ATOM     14  C   UNL     1       4.344   4.692  18.423  0.00  0.00    +0.000 A 
ATOM     15  C   UNL     1       4.924   5.890  17.918  0.00  0.00    +0.000 A 
BRANCH  11  16
ATOM     16  C   UNL     1       1.566   2.378  19.328  0.00  0.00    +0.000 C 
BRANCH  16  17
ATOM     17  C   UNL     1       0.870   2.851  20.618  0.00  0.00    +0.000 C 
ATOM     18  C   UNL     1       1.593   2.365  21.875  0.00  0.00    +0.000 C 
ATOM     19  C   UNL     1       0.793   4.380  20.628  0.00  0.00    +0.000 C 
ENDBRANCH  16  17
ENDBRANCH  11  16
ENDBRANCH   1  15
BRANCH   3  20
ATOM     20  C   UNL     1       2.691   8.862  17.410  0.00  0.00    +0.000 C 
BRANCH  20  21
ATOM     21  C   UNL     1       1.434   9.195  18.219  0.00  0.00    +0.000 C 
BRANCH  21  22
ATOM     22  C   UNL     1       1.332  10.719  18.389  0.00  0.00    +0.000 C 
BRANCH  22  23
ATOM     23  N   UNL     1       0.128  11.227  19.081  0.00  0.00    +0.000 NA
BRANCH  23  24
ATOM     24  C   UNL     1       0.455  11.758  20.438  0.00  0.00    +0.000 C 
ATOM     25  C   UNL     1      -0.319  13.038  20.812  0.00  0.00    +0.000 C 
ATOM     26  C   UNL     1       0.160  10.744  21.559  0.00  0.00    +0.000 C 
ENDBRANCH  23  24
BRANCH  23  27
ATOM     27  C   UNL     1      -0.983  10.237  19.092  0.00  0.00    +0.000 C 
BRANCH  27  28
ATOM     28  C   UNL     1      -2.053  10.423  18.026  0.00  0.00    +0.000 A 
ATOM     29  C   UNL     1      -1.934   9.799  16.776  0.00  0.00    +0.000 A 
ATOM     30  C   UNL     1      -2.830  10.086  15.744  0.00  0.00    +0.000 A 
ATOM     31  C   UNL     1      -3.876  10.976  15.960  0.00  0.00    +0.000 A 
ATOM     32  C   UNL     1      -4.048  11.554  17.215  0.00  0.00    +0.000 A 
ATOM     33  C   UNL     1      -3.147  11.269  18.243  0.00  0.00    +0.000 A 
ENDBRANCH  27  28
ENDBRANCH  23  27
ENDBRANCH  22  23
ENDBRANCH  21  22
ENDBRANCH  20  21
ENDBRANCH   3  20
TORSDOF 10
ENDMDL
MODEL 3
REMARK VINA RESULT:      -7.4      3.133      5.348
REMARK  Name = 
REMARK  15 active torsions:
REMARK  status: ('A' for Active; 'I' for Inactive)
REMARK    1  A    between atoms: C_1  and  C_2
REMARK    2  A    between atoms: N_7  and  C_8
REMARK    3  A    between atoms: C_8  and  C_9
REMARK    4  A    between atoms: C_9  and  C_10
REMARK    5  A    between atoms: C_9  and  C_11
REMARK    6  A    between atoms: C_15  and  C_16
REMARK    7  A    between atoms: N_18  and  C_19
REMARK    8  A    between atoms: C_19  and  C_20
REMARK    9  A    between atoms: C_20  and  C_21
REMARK   10  A    between atoms: C_21  and  N_22
REMARK   11  A    between atoms: N_22  and  C_23
REMARK   12  A    between atoms: N_22  and  C_30
REMARK   13  A    between atoms: C_23  and  C_24
REMARK   14  A    between atoms: C_30  and  C_31
REMARK   15  A    between atoms: C_30  and  C_32
REMARK                            x       y       z     vdW  Elec       q    Type
REMARK                         _______ _______ _______ _____ _____    ______ ____
ROOT
ATOM      1  C   UNL     1       0.244   9.971  19.578  0.00  0.00    +0.000 C 
ATOM      2  O   UNL     1       1.148  10.034  18.754  0.00  0.00    +0.000 OA
ATOM      3  N   UNL     1       0.303   9.162  20.683  0.00  0.00    +0.000 N 
ATOM      4  H   UNL     1      -0.515   9.056  21.278  0.00  0.00    +0.000 HD
ENDROOT
BRANCH   1  15
ATOM      5  C   UNL     1      -1.844   9.971  17.125  0.00  0.00    +0.000 C 
ATOM      6  C   UNL     1      -1.834  10.738  18.391  0.00  0.00    +0.000 A 
ATOM      7  O   UNL     1      -2.857  11.626  18.560  0.00  0.00    +0.000 OA
ATOM      8  C   UNL     1      -2.675  12.242  19.756  0.00  0.00    +0.000 A 
ATOM      9  N   UNL     1      -3.509  13.185  20.245  0.00  0.00    +0.000 NA
ATOM     10  C   UNL     1      -3.176  13.608  21.423  0.00  0.00    +0.000 A 
ATOM     11  N   UNL     1      -2.083  13.182  22.163  0.00  0.00    +0.000 N 
ATOM     12  C   UNL     1      -1.171  12.262  21.646  0.00  0.00    +0.000 A 
ATOM     13  O   UNL     1      -0.142  11.924  22.222  0.00  0.00    +0.000 OA
ATOM     14  C   UNL     1      -1.533  11.747  20.349  0.00  0.00    +0.000 A 
ATOM     15  C   UNL     1      -0.962  10.782  19.473  0.00  0.00    +0.000 A 
BRANCH  11  16
ATOM     16  C   UNL     1      -1.864  13.694  23.511  0.00  0.00    +0.000 C 
BRANCH  16  17
ATOM     17  C   UNL     1      -3.162  14.060  24.254  0.00  0.00    +0.000 C 
ATOM     18  C   UNL     1      -3.912  12.823  24.749  0.00  0.00    +0.000 C 
ATOM     19  C   UNL     1      -2.833  14.971  25.440  0.00  0.00    +0.000 C 
ENDBRANCH  16  17
ENDBRANCH  11  16
ENDBRANCH   1  15
BRANCH   3  20
ATOM     20  C   UNL     1       1.431   8.306  20.962  0.00  0.00    +0.000 C 
BRANCH  20  21
ATOM     21  C   UNL     1       1.101   6.827  20.741  0.00  0.00    +0.000 C 
BRANCH  21  22
ATOM     22  C   UNL     1       2.390   6.068  20.392  0.00  0.00    +0.000 C 
BRANCH  22  23
ATOM     23  N   UNL     1       2.259   4.949  19.434  0.00  0.00    +0.000 NA
BRANCH  23  24
ATOM     24  C   UNL     1       1.271   3.933  19.905  0.00  0.00    +0.000 C 
ATOM     25  C   UNL     1       0.980   2.820  18.877  0.00  0.00    +0.000 C 
ATOM     26  C   UNL     1       1.726   3.213  21.188  0.00  0.00    +0.000 C 
ENDBRANCH  23  24
BRANCH  23  27
ATOM     27  C   UNL     1       3.575   4.358  19.064  0.00  0.00    +0.000 C 
BRANCH  27  28
ATOM     28  C   UNL     1       4.149   4.795  17.724  0.00  0.00    +0.000 A 
ATOM     29  C   UNL     1       4.532   3.845  16.766  0.00  0.00    +0.000 A 
ATOM     30  C   UNL     1       5.197   4.232  15.601  0.00  0.00    +0.000 A 
ATOM     31  C   UNL     1       5.457   5.578  15.364  0.00  0.00    +0.000 A 
ATOM     32  C   UNL     1       5.024   6.539  16.272  0.00  0.00    +0.000 A 
ATOM     33  C   UNL     1       4.364   6.149  17.439  0.00  0.00    +0.000 A 
ENDBRANCH  27  28
ENDBRANCH  23  27
ENDBRANCH  22  23
ENDBRANCH  21  22
ENDBRANCH  20  21
ENDBRANCH   3  20
TORSDOF 10
ENDMDL
MODEL 4
REMARK VINA RESULT:      -7.4      4.991     10.475
REMARK  Name = 
REMARK  15 active torsions:
REMARK  status: ('A' for Active; 'I' for Inactive)
REMARK    1  A    between atoms: C_1  and  C_2
REMARK    2  A    between atoms: N_7  and  C_8
REMARK    3  A    between atoms: C_8  and  C_9
REMARK    4  A    between atoms: C_9  and  C_10
REMARK    5  A    between atoms: C_9  and  C_11
REMARK    6  A    between atoms: C_15  and  C_16
REMARK    7  A    between atoms: N_18  and  C_19
REMARK    8  A    between atoms: C_19  and  C_20
REMARK    9  A    between atoms: C_20  and  C_21
REMARK   10  A    between atoms: C_21  and  N_22
REMARK   11  A    between atoms: N_22  and  C_23
REMARK   12  A    between atoms: N_22  and  C_30
REMARK   13  A    between atoms: C_23  and  C_24
REMARK   14  A    between atoms: C_30  and  C_31
REMARK   15  A    between atoms: C_30  and  C_32
REMARK                            x       y       z     vdW  Elec       q    Type
REMARK                         _______ _______ _______ _____ _____    ______ ____
ROOT
ATOM      1  C   UNL     1       7.354   5.418  17.928  0.00  0.00    +0.000 C 
ATOM      2  O   UNL     1       8.243   4.763  18.459  0.00  0.00    +0.000 OA
ATOM      3  N   UNL     1       7.384   6.787  17.855  0.00  0.00    +0.000 N 
ATOM      4  H   UNL     1       6.574   7.294  17.508  0.00  0.00    +0.000 HD
ENDROOT
BRANCH   1  15
ATOM      5  C   UNL     1       6.830   5.156  14.760  0.00  0.00    +0.000 C 
ATOM      6  C   UNL     1       6.026   4.702  15.917  0.00  0.00    +0.000 A 
ATOM      7  O   UNL     1       4.842   4.093  15.620  0.00  0.00    +0.000 OA
ATOM      8  C   UNL     1       4.242   3.765  16.793  0.00  0.00    +0.000 A 
ATOM      9  N   UNL     1       3.045   3.142  16.872  0.00  0.00    +0.000 NA
ATOM     10  C   UNL     1       2.678   2.881  18.086  0.00  0.00    +0.000 A 
ATOM     11  N   UNL     1       3.390   3.186  19.236  0.00  0.00    +0.000 N 
ATOM     12  C   UNL     1       4.592   3.892  19.179  0.00  0.00    +0.000 A 
ATOM     13  O   UNL     1       5.211   4.265  20.171  0.00  0.00    +0.000 OA
ATOM     14  C   UNL     1       5.044   4.168  17.839  0.00  0.00    +0.000 A 
ATOM     15  C   UNL     1       6.201   4.794  17.293  0.00  0.00    +0.000 A 
BRANCH  11  16
ATOM     16  C   UNL     1       2.890   2.771  20.541  0.00  0.00    +0.000 C 
BRANCH  16  17
ATOM     17  C   UNL     1       1.675   3.582  21.027  0.00  0.00    +0.000 C 
ATOM     18  C   UNL     1       1.903   5.089  20.910  0.00  0.00    +0.000 C 
ATOM     19  C   UNL     1       0.438   3.185  20.216  0.00  0.00    +0.000 C 
ENDBRANCH  16  17
ENDBRANCH  11  16
ENDBRANCH   1  15
BRANCH   3  20
ATOM     20  C   UNL     1       8.460   7.573  18.410  0.00  0.00    +0.000 C 
BRANCH  20  21
ATOM     21  C   UNL     1       8.258   9.073  18.177  0.00  0.00    +0.000 C 
BRANCH  21  22
ATOM     22  C   UNL     1       8.997   9.858  19.271  0.00  0.00    +0.000 C 
BRANCH  22  23
ATOM     23  N   UNL     1       9.732  11.066  18.835  0.00  0.00    +0.000 NA
BRANCH  23  24
ATOM     24  C   UNL     1      10.122  11.922  19.995  0.00  0.00    +0.000 C 
ATOM     25  C   UNL     1       9.388  11.570  21.306  0.00  0.00    +0.000 C 
ATOM     26  C   UNL     1      11.625  11.837  20.317  0.00  0.00    +0.000 C 
ENDBRANCH  23  24
BRANCH  23  27
ATOM     27  C   UNL     1       9.013  11.816  17.769  0.00  0.00    +0.000 C 
BRANCH  27  28
ATOM     28  C   UNL     1       9.440  13.263  17.569  0.00  0.00    +0.000 A 
ATOM     29  C   UNL     1      10.698  13.571  17.031  0.00  0.00    +0.000 A 
ATOM     30  C   UNL     1      11.155  14.889  16.986  0.00  0.00    +0.000 A 
ATOM     31  C   UNL     1      10.345  15.921  17.450  0.00  0.00    +0.000 A 
ATOM     32  C   UNL     1       9.068  15.640  17.925  0.00  0.00    +0.000 A 
ATOM     33  C   UNL     1       8.615  14.320  17.973  0.00  0.00    +0.000 A 
ENDBRANCH  27  28
ENDBRANCH  23  27
ENDBRANCH  22  23
ENDBRANCH  21  22
ENDBRANCH  20  21
ENDBRANCH   3  20
TORSDOF 10
ENDMDL
MODEL 5
REMARK VINA RESULT:      -7.3      3.160      9.220
REMARK  Name = 
REMARK  15 active torsions:
REMARK  status: ('A' for Active; 'I' for Inactive)
REMARK    1  A    between atoms: C_1  and  C_2
REMARK    2  A    between atoms: N_7  and  C_8
REMARK    3  A    between atoms: C_8  and  C_9
REMARK    4  A    between atoms: C_9  and  C_10
REMARK    5  A    between atoms: C_9  and  C_11
REMARK    6  A    between atoms: C_15  and  C_16
REMARK    7  A    between atoms: N_18  and  C_19
REMARK    8  A    between atoms: C_19  and  C_20
REMARK    9  A    between atoms: C_20  and  C_21
REMARK   10  A    between atoms: C_21  and  N_22
REMARK   11  A    between atoms: N_22  and  C_23
REMARK   12  A    between atoms: N_22  and  C_30
REMARK   13  A    between atoms: C_23  and  C_24
REMARK   14  A    between atoms: C_30  and  C_31
REMARK   15  A    between atoms: C_30  and  C_32
REMARK                            x       y       z     vdW  Elec       q    Type
REMARK                         _______ _______ _______ _____ _____    ______ ____
ROOT
ATOM      1  C   UNL     1       4.390   7.012  17.214  0.00  0.00    +0.000 C 
ATOM      2  O   UNL     1       4.732   7.318  16.078  0.00  0.00    +0.000 OA
ATOM      3  N   UNL     1       3.422   7.695  17.906  0.00  0.00    +0.000 N 
ATOM      4  H   UNL     1       3.251   7.478  18.884  0.00  0.00    +0.000 HD
ENDROOT
BRANCH   1  15
ATOM      5  C   UNL     1       7.485   6.617  18.015  0.00  0.00    +0.000 C 
ATOM      6  C   UNL     1       6.306   5.753  18.244  0.00  0.00    +0.000 A 
ATOM      7  O   UNL     1       6.547   4.566  18.874  0.00  0.00    +0.000 OA
ATOM      8  C   UNL     1       5.364   3.908  18.981  0.00  0.00    +0.000 A 
ATOM      9  N   UNL     1       5.234   2.693  19.558  0.00  0.00    +0.000 NA
ATOM     10  C   UNL     1       4.012   2.267  19.597  0.00  0.00    +0.000 A 
ATOM     11  N   UNL     1       2.900   2.938  19.109  0.00  0.00    +0.000 N 
ATOM     12  C   UNL     1       3.022   4.160  18.447  0.00  0.00    +0.000 A 
ATOM     13  O   UNL     1       2.083   4.746  17.918  0.00  0.00    +0.000 OA
ATOM     14  C   UNL     1       4.368   4.676  18.417  0.00  0.00    +0.000 A 
ATOM     15  C   UNL     1       4.959   5.870  17.918  0.00  0.00    +0.000 A 
BRANCH  11  16
ATOM     16  C   UNL     1       1.567   2.372  19.281  0.00  0.00    +0.000 C 
BRANCH  16  17
ATOM     17  C   UNL     1       0.864   2.825  20.574  0.00  0.00    +0.000 C 
ATOM     18  C   UNL     1       1.640   2.417  21.826  0.00  0.00    +0.000 C 
ATOM     19  C   UNL     1       0.685   4.346  20.554  0.00  0.00    +0.000 C 
ENDBRANCH  16  17
ENDBRANCH  11  16
ENDBRANCH   1  15
BRANCH   3  20
ATOM     20  C   UNL     1       2.733   8.839  17.358  0.00  0.00    +0.000 C 
BRANCH  20  21
ATOM     21  C   UNL     1       1.301   8.956  17.887  0.00  0.00    +0.000 C 
BRANCH  21  22
ATOM     22  C   UNL     1       1.254  10.034  18.981  0.00  0.00    +0.000 C 
BRANCH  22  23
ATOM     23  N   UNL     1       0.274  11.127  18.790  0.00  0.00    +0.000 NA
BRANCH  23  24
ATOM     24  C   UNL     1       0.673  12.360  19.532  0.00  0.00    +0.000 C 
ATOM     25  C   UNL     1       1.835  13.134  18.878  0.00  0.00    +0.000 C 
ATOM     26  C   UNL     1      -0.482  13.369  19.669  0.00  0.00    +0.000 C 
ENDBRANCH  23  24
BRANCH  23  27
ATOM     27  C   UNL     1      -1.122  10.696  19.077  0.00  0.00    +0.000 C 
BRANCH  27  28
ATOM     28  C   UNL     1      -2.088  10.740  17.902  0.00  0.00    +0.000 A 
ATOM     29  C   UNL     1      -3.230  11.554  17.944  0.00  0.00    +0.000 A 
ATOM     30  C   UNL     1      -4.195  11.485  16.938  0.00  0.00    +0.000 A 
ATOM     31  C   UNL     1      -4.015  10.624  15.860  0.00  0.00    +0.000 A 
ATOM     32  C   UNL     1      -2.856   9.860  15.769  0.00  0.00    +0.000 A 
ATOM     33  C   UNL     1      -1.894   9.926  16.779  0.00  0.00    +0.000 A 
ENDBRANCH  27  28
ENDBRANCH  23  27
ENDBRANCH  22  23
ENDBRANCH  21  22
ENDBRANCH  20  21
ENDBRANCH   3  20
TORSDOF 10
ENDMDL
MODEL 6
REMARK VINA RESULT:      -7.3      0.929      1.571
REMARK  Name = 
REMARK  15 active torsions:
REMARK  status: ('A' for Active; 'I' for Inactive)
REMARK    1  A    between atoms: C_1  and  C_2
REMARK    2  A    between atoms: N_7  and  C_8
REMARK    3  A    between atoms: C_8  and  C_9
REMARK    4  A    between atoms: C_9  and  C_10
REMARK    5  A    between atoms: C_9  and  C_11
REMARK    6  A    between atoms: C_15  and  C_16
REMARK    7  A    between atoms: N_18  and  C_19
REMARK    8  A    between atoms: C_19  and  C_20
REMARK    9  A    between atoms: C_20  and  C_21
REMARK   10  A    between atoms: C_21  and  N_22
REMARK   11  A    between atoms: N_22  and  C_23
REMARK   12  A    between atoms: N_22  and  C_30
REMARK   13  A    between atoms: C_23  and  C_24
REMARK   14  A    between atoms: C_30  and  C_31
REMARK   15  A    between atoms: C_30  and  C_32
REMARK                            x       y       z     vdW  Elec       q    Type
REMARK                         _______ _______ _______ _____ _____    ______ ____
ROOT
ATOM      1  C   UNL     1       1.127   9.500  18.790  0.00  0.00    +0.000 C 
ATOM      2  O   UNL     1       0.578   9.631  17.703  0.00  0.00    +0.000 OA
ATOM      3  N   UNL     1       2.019   8.492  19.053  0.00  0.00    +0.000 N 
ATOM      4  H   UNL     1       2.362   8.355  20.000  0.00  0.00    +0.000 HD
ENDROOT
BRANCH   1  15
ATOM      5  C   UNL     1      -0.424   8.863  21.540  0.00  0.00    +0.000 C 
ATOM      6  C   UNL     1       0.233  10.100  21.061  0.00  0.00    +0.000 A 
ATOM      7  O   UNL     1       0.157  11.179  21.894  0.00  0.00    +0.000 OA
ATOM      8  C   UNL     1       0.793  12.214  21.287  0.00  0.00    +0.000 A 
ATOM      9  N   UNL     1       0.911  13.443  21.834  0.00  0.00    +0.000 NA
ATOM     10  C   UNL     1       1.595  14.269  21.109  0.00  0.00    +0.000 A 
ATOM     11  N   UNL     1       2.172  13.987  19.880  0.00  0.00    +0.000 N 
ATOM     12  C   UNL     1       2.002  12.746  19.265  0.00  0.00    +0.000 A 
ATOM     13  O   UNL     1       2.414  12.480  18.140  0.00  0.00    +0.000 OA
ATOM     14  C   UNL     1       1.272  11.794  20.064  0.00  0.00    +0.000 A 
ATOM     15  C   UNL     1       0.906  10.430  19.890  0.00  0.00    +0.000 A 
BRANCH  11  16
ATOM     16  C   UNL     1       2.978  14.993  19.199  0.00  0.00    +0.000 C 
BRANCH  16  17
ATOM     17  C   UNL     1       2.150  16.002  18.383  0.00  0.00    +0.000 C 
ATOM     18  C   UNL     1       1.710  17.201  19.223  0.00  0.00    +0.000 C 
ATOM     19  C   UNL     1       2.972  16.489  17.185  0.00  0.00    +0.000 C 
ENDBRANCH  16  17
ENDBRANCH  11  16
ENDBRANCH   1  15
BRANCH   3  20
ATOM     20  C   UNL     1       2.376   7.493  18.075  0.00  0.00    +0.000 C 
BRANCH  20  21
ATOM     21  C   UNL     1       3.619   6.700  18.490  0.00  0.00    +0.000 C 
BRANCH  21  22
ATOM     22  C   UNL     1       4.171   5.951  17.268  0.00  0.00    +0.000 C 
BRANCH  22  23
ATOM     23  N   UNL     1       4.780   4.627  17.524  0.00  0.00    +0.000 NA
BRANCH  23  24
ATOM     24  C   UNL     1       5.949   4.377  16.629  0.00  0.00    +0.000 C 
ATOM     25  C   UNL     1       5.570   4.171  15.148  0.00  0.00    +0.000 C 
ATOM     26  C   UNL     1       6.968   5.531  16.646  0.00  0.00    +0.000 C 
ENDBRANCH  23  24
BRANCH  23  27
ATOM     27  C   UNL     1       3.779   3.526  17.501  0.00  0.00    +0.000 C 
BRANCH  27  28
ATOM     28  C   UNL     1       2.897   3.401  18.735  0.00  0.00    +0.000 A 
ATOM     29  C   UNL     1       3.457   3.126  19.991  0.00  0.00    +0.000 A 
ATOM     30  C   UNL     1       2.645   2.861  21.095  0.00  0.00    +0.000 A 
ATOM     31  C   UNL     1       1.260   2.900  20.964  0.00  0.00    +0.000 A 
ATOM     32  C   UNL     1       0.688   3.237  19.741  0.00  0.00    +0.000 A 
ATOM     33  C   UNL     1       1.503   3.496  18.636  0.00  0.00    +0.000 A 
ENDBRANCH  27  28
ENDBRANCH  23  27
ENDBRANCH  22  23
ENDBRANCH  21  22
ENDBRANCH  20  21
ENDBRANCH   3  20
TORSDOF 10
ENDMDL
MODEL 7
REMARK VINA RESULT:      -7.3      1.650      3.593
REMARK  Name = 
REMARK  15 active torsions:
REMARK  status: ('A' for Active; 'I' for Inactive)
REMARK    1  A    between atoms: C_1  and  C_2
REMARK    2  A    between atoms: N_7  and  C_8
REMARK    3  A    between atoms: C_8  and  C_9
REMARK    4  A    between atoms: C_9  and  C_10
REMARK    5  A    between atoms: C_9  and  C_11
REMARK    6  A    between atoms: C_15  and  C_16
REMARK    7  A    between atoms: N_18  and  C_19
REMARK    8  A    between atoms: C_19  and  C_20
REMARK    9  A    between atoms: C_20  and  C_21
REMARK   10  A    between atoms: C_21  and  N_22
REMARK   11  A    between atoms: N_22  and  C_23
REMARK   12  A    between atoms: N_22  and  C_30
REMARK   13  A    between atoms: C_23  and  C_24
REMARK   14  A    between atoms: C_30  and  C_31
REMARK   15  A    between atoms: C_30  and  C_32
REMARK                            x       y       z     vdW  Elec       q    Type
REMARK                         _______ _______ _______ _____ _____    ______ ____
ROOT
ATOM      1  C   UNL     1       0.518  10.007  18.847  0.00  0.00    +0.000 C 
ATOM      2  O   UNL     1      -0.278  10.071  17.919  0.00  0.00    +0.000 OA
ATOM      3  N   UNL     1       1.615   9.184  18.829  0.00  0.00    +0.000 N 
ATOM      4  H   UNL     1       2.184   9.078  19.665  0.00  0.00    +0.000 HD
ENDROOT
BRANCH   1  15
ATOM      5  C   UNL     1      -0.267   8.973  21.795  0.00  0.00    +0.000 C 
ATOM      6  C   UNL     1       0.050  10.329  21.296  0.00  0.00    +0.000 A 
ATOM      7  O   UNL     1      -0.025  11.337  22.213  0.00  0.00    +0.000 OA
ATOM      8  C   UNL     1       0.279  12.498  21.576  0.00  0.00    +0.000 A 
ATOM      9  N   UNL     1       0.302  13.701  22.188  0.00  0.00    +0.000 NA
ATOM     10  C   UNL     1       0.662  14.671  21.408  0.00  0.00    +0.000 A 
ATOM     11  N   UNL     1       0.998  14.555  20.068  0.00  0.00    +0.000 N 
ATOM     12  C   UNL     1       0.911  13.333  19.400  0.00  0.00    +0.000 A 
ATOM     13  O   UNL     1       1.108  13.198  18.197  0.00  0.00    +0.000 OA
ATOM     14  C   UNL     1       0.545  12.228  20.251  0.00  0.00    +0.000 A 
ATOM     15  C   UNL     1       0.387  10.829  20.043  0.00  0.00    +0.000 A 
BRANCH  11  16
ATOM     16  C   UNL     1       1.454  15.722  19.322  0.00  0.00    +0.000 C 
BRANCH  16  17
ATOM     17  C   UNL     1       0.546  16.955  19.484  0.00  0.00    +0.000 C 
ATOM     18  C   UNL     1       1.316  18.265  19.312  0.00  0.00    +0.000 C 
ATOM     19  C   UNL     1      -0.593  16.891  18.463  0.00  0.00    +0.000 C 
ENDBRANCH  16  17
ENDBRANCH  11  16
ENDBRANCH   1  15
BRANCH   3  20
ATOM     20  C   UNL     1       1.917   8.314  17.717  0.00  0.00    +0.000 C 
BRANCH  20  21
ATOM     21  C   UNL     1       2.980   7.271  18.074  0.00  0.00    +0.000 C 
BRANCH  21  22
ATOM     22  C   UNL     1       2.480   6.424  19.254  0.00  0.00    +0.000 C 
BRANCH  22  23
ATOM     23  N   UNL     1       2.597   4.956  19.111  0.00  0.00    +0.000 NA
BRANCH  23  24
ATOM     24  C   UNL     1       1.497   4.244  19.826  0.00  0.00    +0.000 C 
ATOM     25  C   UNL     1       0.956   3.011  19.072  0.00  0.00    +0.000 C 
ATOM     26  C   UNL     1       1.924   3.734  21.215  0.00  0.00    +0.000 C 
ENDBRANCH  23  24
BRANCH  23  27
ATOM     27  C   UNL     1       3.951   4.455  19.472  0.00  0.00    +0.000 C 
BRANCH  27  28
ATOM     28  C   UNL     1       4.956   4.370  18.332  0.00  0.00    +0.000 A 
ATOM     29  C   UNL     1       6.282   4.788  18.514  0.00  0.00    +0.000 A 
ATOM     30  C   UNL     1       7.166   4.855  17.436  0.00  0.00    +0.000 A 
ATOM     31  C   UNL     1       6.744   4.473  16.167  0.00  0.00    +0.000 A 
ATOM     32  C   UNL     1       5.451   3.993  15.981  0.00  0.00    +0.000 A 
ATOM     33  C   UNL     1       4.567   3.932  17.060  0.00  0.00    +0.000 A 
ENDBRANCH  27  28
ENDBRANCH  23  27
ENDBRANCH  22  23
ENDBRANCH  21  22
ENDBRANCH  20  21
ENDBRANCH   3  20
TORSDOF 10
ENDMDL
MODEL 8
REMARK VINA RESULT:      -7.2      3.134      4.294
REMARK  Name = 
REMARK  15 active torsions:
REMARK  status: ('A' for Active; 'I' for Inactive)
REMARK    1  A    between atoms: C_1  and  C_2
REMARK    2  A    between atoms: N_7  and  C_8
REMARK    3  A    between atoms: C_8  and  C_9
REMARK    4  A    between atoms: C_9  and  C_10
REMARK    5  A    between atoms: C_9  and  C_11
REMARK    6  A    between atoms: C_15  and  C_16
REMARK    7  A    between atoms: N_18  and  C_19
REMARK    8  A    between atoms: C_19  and  C_20
REMARK    9  A    between atoms: C_20  and  C_21
REMARK   10  A    between atoms: C_21  and  N_22
REMARK   11  A    between atoms: N_22  and  C_23
REMARK   12  A    between atoms: N_22  and  C_30
REMARK   13  A    between atoms: C_23  and  C_24
REMARK   14  A    between atoms: C_30  and  C_31
REMARK   15  A    between atoms: C_30  and  C_32
REMARK                            x       y       z     vdW  Elec       q    Type
REMARK                         _______ _______ _______ _____ _____    ______ ____
ROOT
ATOM      1  C   UNL     1       0.004   9.697  20.091  0.00  0.00    +0.000 C 
ATOM      2  O   UNL     1      -0.033   9.013  21.106  0.00  0.00    +0.000 OA
ATOM      3  N   UNL     1       0.926   9.500  19.096  0.00  0.00    +0.000 N 
ATOM      4  H   UNL     1       0.991  10.162  18.327  0.00  0.00    +0.000 HD
ENDROOT
BRANCH   1  15
ATOM      5  C   UNL     1      -1.751  10.083  17.418  0.00  0.00    +0.000 C 
ATOM      6  C   UNL     1      -1.695  10.879  18.664  0.00  0.00    +0.000 A 
ATOM      7  O   UNL     1      -2.489  11.988  18.702  0.00  0.00    +0.000 OA
ATOM      8  C   UNL     1      -2.294  12.594  19.901  0.00  0.00    +0.000 A 
ATOM      9  N   UNL     1      -2.927  13.727  20.278  0.00  0.00    +0.000 NA
ATOM     10  C   UNL     1      -2.631  14.109  21.479  0.00  0.00    +0.000 A 
ATOM     11  N   UNL     1      -1.755  13.470  22.344  0.00  0.00    +0.000 N 
ATOM     12  C   UNL     1      -1.039  12.341  21.949  0.00  0.00    +0.000 A 
ATOM     13  O   UNL     1      -0.187  11.795  22.643  0.00  0.00    +0.000 OA
ATOM     14  C   UNL     1      -1.372  11.871  20.627  0.00  0.00    +0.000 A 
ATOM     15  C   UNL     1      -0.957  10.762  19.837  0.00  0.00    +0.000 A 
BRANCH  11  16
ATOM     16  C   UNL     1      -1.566  13.973  23.700  0.00  0.00    +0.000 C 
BRANCH  16  17
ATOM     17  C   UNL     1      -2.876  14.374  24.401  0.00  0.00    +0.000 C 
ATOM     18  C   UNL     1      -3.750  13.164  24.729  0.00  0.00    +0.000 C 
ATOM     19  C   UNL     1      -2.554  15.139  25.688  0.00  0.00    +0.000 C 
ENDBRANCH  16  17
ENDBRANCH  11  16
ENDBRANCH   1  15
BRANCH   3  20
ATOM     20  C   UNL     1       1.940   8.476  19.166  0.00  0.00    +0.000 C 
BRANCH  20  21
ATOM     21  C   UNL     1       2.167   7.796  17.813  0.00  0.00    +0.000 C 
BRANCH  21  22
ATOM     22  C   UNL     1       3.663   7.489  17.646  0.00  0.00    +0.000 C 
BRANCH  22  23
ATOM     23  N   UNL     1       4.113   6.144  18.069  0.00  0.00    +0.000 NA
BRANCH  23  24
ATOM     24  C   UNL     1       5.509   5.863  17.619  0.00  0.00    +0.000 C 
ATOM     25  C   UNL     1       6.129   4.603  18.255  0.00  0.00    +0.000 C 
ATOM     26  C   UNL     1       5.612   5.661  16.096  0.00  0.00    +0.000 C 
ENDBRANCH  23  24
BRANCH  23  27
ATOM     27  C   UNL     1       3.149   5.076  17.689  0.00  0.00    +0.000 C 
BRANCH  27  28
ATOM     28  C   UNL     1       2.521   4.303  18.840  0.00  0.00    +0.000 A 
ATOM     29  C   UNL     1       1.586   3.287  18.595  0.00  0.00    +0.000 A 
ATOM     30  C   UNL     1       0.896   2.681  19.646  0.00  0.00    +0.000 A 
ATOM     31  C   UNL     1       1.156   3.061  20.959  0.00  0.00    +0.000 A 
ATOM     32  C   UNL     1       2.129   4.020  21.224  0.00  0.00    +0.000 A 
ATOM     33  C   UNL     1       2.814   4.629  20.170  0.00  0.00    +0.000 A 
ENDBRANCH  27  28
ENDBRANCH  23  27
ENDBRANCH  22  23
ENDBRANCH  21  22
ENDBRANCH  20  21
ENDBRANCH   3  20
TORSDOF 10
ENDMDL
MODEL 9
REMARK VINA RESULT:      -7.2      1.759      2.271
REMARK  Name = 
REMARK  15 active torsions:
REMARK  status: ('A' for Active; 'I' for Inactive)
REMARK    1  A    between atoms: C_1  and  C_2
REMARK    2  A    between atoms: N_7  and  C_8
REMARK    3  A    between atoms: C_8  and  C_9
REMARK    4  A    between atoms: C_9  and  C_10
REMARK    5  A    between atoms: C_9  and  C_11
REMARK    6  A    between atoms: C_15  and  C_16
REMARK    7  A    between atoms: N_18  and  C_19
REMARK    8  A    between atoms: C_19  and  C_20
REMARK    9  A    between atoms: C_20  and  C_21
REMARK   10  A    between atoms: C_21  and  N_22
REMARK   11  A    between atoms: N_22  and  C_23
REMARK   12  A    between atoms: N_22  and  C_30
REMARK   13  A    between atoms: C_23  and  C_24
REMARK   14  A    between atoms: C_30  and  C_31
REMARK   15  A    between atoms: C_30  and  C_32
REMARK                            x       y       z     vdW  Elec       q    Type
REMARK                         _______ _______ _______ _____ _____    ______ ____
ROOT
ATOM      1  C   UNL     1       0.395  10.245  19.084  0.00  0.00    +0.000 C 
ATOM      2  O   UNL     1      -0.562   9.972  18.369  0.00  0.00    +0.000 OA
ATOM      3  N   UNL     1       1.669   9.815  18.814  0.00  0.00    +0.000 N 
ATOM      4  H   UNL     1       2.410   9.970  19.493  0.00  0.00    +0.000 HD
ENDROOT
BRANCH   1  15
ATOM      5  C   UNL     1      -0.385   9.253  22.047  0.00  0.00    +0.000 C 
ATOM      6  C   UNL     1      -0.068  10.602  21.528  0.00  0.00    +0.000 A 
ATOM      7  O   UNL     1      -0.140  11.623  22.431  0.00  0.00    +0.000 OA
ATOM      8  C   UNL     1       0.163  12.774  21.778  0.00  0.00    +0.000 A 
ATOM      9  N   UNL     1       0.189  13.986  22.373  0.00  0.00    +0.000 NA
ATOM     10  C   UNL     1       0.548  14.944  21.580  0.00  0.00    +0.000 A 
ATOM     11  N   UNL     1       0.881  14.810  20.240  0.00  0.00    +0.000 N 
ATOM     12  C   UNL     1       0.792  13.579  19.590  0.00  0.00    +0.000 A 
ATOM     13  O   UNL     1       0.987  13.426  18.388  0.00  0.00    +0.000 OA
ATOM     14  C   UNL     1       0.427  12.486  20.456  0.00  0.00    +0.000 A 
ATOM     15  C   UNL     1       0.267  11.084  20.268  0.00  0.00    +0.000 A 
BRANCH  11  16
ATOM     16  C   UNL     1       1.337  15.966  19.477  0.00  0.00    +0.000 C 
BRANCH  16  17
ATOM     17  C   UNL     1       0.324  17.125  19.443  0.00  0.00    +0.000 C 
ATOM     18  C   UNL     1       1.010  18.489  19.367  0.00  0.00    +0.000 C 
ATOM     19  C   UNL     1      -0.611  16.952  18.243  0.00  0.00    +0.000 C 
ENDBRANCH  16  17
ENDBRANCH  11  16
ENDBRANCH   1  15
BRANCH   3  20
ATOM     20  C   UNL     1       1.988   8.993  17.672  0.00  0.00    +0.000 C 
BRANCH  20  21
ATOM     21  C   UNL     1       2.210   7.529  18.060  0.00  0.00    +0.000 C 
BRANCH  21  22
ATOM     22  C   UNL     1       3.697   7.181  17.891  0.00  0.00    +0.000 C 
BRANCH  22  23
ATOM     23  N   UNL     1       4.043   5.742  17.893  0.00  0.00    +0.000 NA
BRANCH  23  24
ATOM     24  C   UNL     1       5.091   5.427  16.876  0.00  0.00    +0.000 C 
ATOM     25  C   UNL     1       4.896   4.065  16.180  0.00  0.00    +0.000 C 
ATOM     26  C   UNL     1       5.156   6.473  15.748  0.00  0.00    +0.000 C 
ENDBRANCH  23  24
BRANCH  23  27
ATOM     27  C   UNL     1       2.843   4.868  17.787  0.00  0.00    +0.000 C 
BRANCH  27  28
ATOM     28  C   UNL     1       2.534   4.010  19.006  0.00  0.00    +0.000 A 
ATOM     29  C   UNL     1       1.241   3.977  19.549  0.00  0.00    +0.000 A 
ATOM     30  C   UNL     1       0.986   3.315  20.751  0.00  0.00    +0.000 A 
ATOM     31  C   UNL     1       2.016   2.651  21.410  0.00  0.00    +0.000 A 
ATOM     32  C   UNL     1       3.290   2.618  20.852  0.00  0.00    +0.000 A 
ATOM     33  C   UNL     1       3.543   3.285  19.651  0.00  0.00    +0.000 A 
ENDBRANCH  27  28
ENDBRANCH  23  27
ENDBRANCH  22  23
ENDBRANCH  21  22
ENDBRANCH  20  21
ENDBRANCH   3  20
TORSDOF 10
ENDMDL
