MODEL 1
REMARK VINA RESULT:      -7.1      0.000      0.000
REMARK  Name = 
REMARK  8 active torsions:
REMARK  status: ('A' for Active; 'I' for Inactive)
REMARK    1  A    between atoms: C_1  and  C_2
REMARK    2  A    between atoms: C_2  and  C_3
REMARK    3  A    between atoms: C_2  and  C_4
REMARK    4  A    between atoms: C_4  and  C_5
REMARK    5  A    between atoms: C_5  and  N_6
REMARK    6  A    between atoms: C_5  and  C_7
REMARK    7  A    between atoms: N_9  and  C_10
REMARK    8  A    between atoms: C_13  and  C_14
REMARK                            x       y       z     vdW  Elec       q    Type
REMARK                         _______ _______ _______ _____ _____    ______ ____
ROOT
ATOM      1  C   UNL     1       6.518   4.916  14.498  0.00  0.00    +0.000 C 
ATOM      2  O   UNL     1       5.775   5.894  14.433  0.00  0.00    +0.000 OA
ATOM      3  N   UNL     1       6.490   3.935  15.475  0.00  0.00    +0.000 N 
ATOM      4  H   UNL     1       7.293   3.308  15.435  0.00  0.00    +0.000 HD
ENDROOT
BRANCH   3   5
ATOM      5  C   UNL     1       5.638   3.900  16.589  0.00  0.00    +0.000 A 
ATOM      6  C   UNL     1       6.022   4.363  17.846  0.00  0.00    +0.000 A 
ATOM      7  C   UNL     1       5.182   4.221  18.954  0.00  0.00    +0.000 A 
ATOM      8  C   UNL     1       3.929   3.611  18.827  0.00  0.00    +0.000 A 
ATOM      9  C   UNL     1       3.532   3.206  17.547  0.00  0.00    +0.000 A 
ATOM     10  F   UNL     1       2.334   2.630  17.357  0.00  0.00    +0.000 F 
ATOM     11  C   UNL     1       4.362   3.360  16.433  0.00  0.00    +0.000 A 
BRANCH   8  12
ATOM     12  C   UNL     1       3.090   3.385  19.992  0.00  0.00    +0.000 A 
ATOM     13  C   UNL     1       3.165   2.613  21.132  0.00  0.00    +0.000 A 
ATOM     14  N   UNL     1       2.064   2.827  21.929  0.00  0.00    +0.000 NA
ATOM     15  C   UNL     1       1.371   3.711  21.253  0.00  0.00    +0.000 A 
ATOM     16  O   UNL     1       1.919   4.099  20.072  0.00  0.00    +0.000 OA
ENDBRANCH   8  12
ENDBRANCH   3   5
BRANCH   1  17
ATOM     17  C   UNL     1       7.584   4.646  13.411  0.00  0.00    +0.000 C 
BRANCH  17  18
ATOM     18  N   UNL     1       8.477   5.825  13.270  0.00  0.00    +0.000 NA
ATOM     19  H   UNL     1       8.198   6.528  13.958  0.00  0.00    +0.000 HD
ATOM     20  H   UNL     1       8.295   6.255  12.361  0.00  0.00    +0.000 HD
ENDBRANCH  17  18
BRANCH  17  21
ATOM     21  C   UNL     1       6.882   4.253  12.095  0.00  0.00    +0.000 C 
BRANCH  21  23
ATOM     22  C   UNL     1       4.533   3.398  11.665  0.00  0.00    +0.000 C 
ATOM     23  C   UNL     1       5.932   3.043  12.167  0.00  0.00    +0.000 C 
ATOM     24  C   UNL     1       6.490   1.882  11.334  0.00  0.00    +0.000 C 
ENDBRANCH  21  23
ENDBRANCH  17  21
ENDBRANCH   1  17
TORSDOF 6
ENDMDL
MODEL 2
REMARK VINA RESULT:      -6.7      5.506      6.977
REMARK  Name = 
REMARK  8 active torsions:
REMARK  status: ('A' for Active; 'I' for Inactive)
REMARK    1  A    between atoms: C_1  and  C_2
REMARK    2  A    between atoms: C_2  and  C_3
REMARK    3  A    between atoms: C_2  and  C_4
REMARK    4  A    between atoms: C_4  and  C_5
REMARK    5  A    between atoms: C_5  and  N_6
REMARK    6  A    between atoms: C_5  and  C_7
REMARK    7  A    between atoms: N_9  and  C_10
REMARK    8  A    between atoms: C_13  and  C_14
REMARK                            x       y       z     vdW  Elec       q    Type
REMARK                         _______ _______ _______ _____ _____    ______ ____
ROOT
ATOM      1  C   UNL     1       3.851   5.110  18.266  0.00  0.00    +0.000 C 
ATOM      2  O   UNL     1       2.913   4.651  17.615  0.00  0.00    +0.000 OA
ATOM      3  N   UNL     1       3.882   6.345  18.891  0.00  0.00    +0.000 N 
ATOM      4  H   UNL     1       4.808   6.597  19.234  0.00  0.00    +0.000 HD
ENDROOT
BRANCH   3   5
ATOM      5  C   UNL     1       2.867   7.314  18.861  0.00  0.00    +0.000 A 
ATOM      6  C   UNL     1       2.610   8.101  17.739  0.00  0.00    +0.000 A 
ATOM      7  C   UNL     1       1.658   9.123  17.780  0.00  0.00    +0.000 A 
ATOM      8  C   UNL     1       0.935   9.381  18.950  0.00  0.00    +0.000 A 
ATOM      9  C   UNL     1       1.160   8.543  20.049  0.00  0.00    +0.000 A 
ATOM     10  F   UNL     1       0.485   8.727  21.195  0.00  0.00    +0.000 F 
ATOM     11  C   UNL     1       2.100   7.510  20.009  0.00  0.00    +0.000 A 
BRANCH   8  12
ATOM     12  C   UNL     1       0.007  10.497  19.021  0.00  0.00    +0.000 A 
ATOM     13  C   UNL     1       0.108  11.861  19.194  0.00  0.00    +0.000 A 
ATOM     14  N   UNL     1      -1.137  12.445  19.145  0.00  0.00    +0.000 NA
ATOM     15  C   UNL     1      -1.938  11.428  18.941  0.00  0.00    +0.000 A 
ATOM     16  O   UNL     1      -1.328  10.216  18.857  0.00  0.00    +0.000 OA
ENDBRANCH   8  12
ENDBRANCH   3   5
BRANCH   1  17
ATOM     17  C   UNL     1       5.139   4.289  18.502  0.00  0.00    +0.000 C 
BRANCH  17  18
ATOM     18  N   UNL     1       4.823   3.054  19.263  0.00  0.00    +0.000 NA
ATOM     19  H   UNL     1       4.574   2.318  18.599  0.00  0.00    +0.000 HD
ATOM     20  H   UNL     1       3.973   3.223  19.804  0.00  0.00    +0.000 HD
ENDBRANCH  17  18
BRANCH  17  21
ATOM     21  C   UNL     1       6.192   5.180  19.196  0.00  0.00    +0.000 C 
BRANCH  21  23
ATOM     22  C   UNL     1       7.553   4.572  17.144  0.00  0.00    +0.000 C 
ATOM     23  C   UNL     1       7.504   5.406  18.424  0.00  0.00    +0.000 C 
ATOM     24  C   UNL     1       7.660   6.890  18.068  0.00  0.00    +0.000 C 
ENDBRANCH  21  23
ENDBRANCH  17  21
ENDBRANCH   1  17
TORSDOF 6
ENDMDL
MODEL 3
REMARK VINA RESULT:      -6.7      5.804      7.768
REMARK  Name = 
REMARK  8 active torsions:
REMARK  status: ('A' for Active; 'I' for Inactive)
REMARK    1  A    between atoms: C_1  and  C_2
REMARK    2  A    between atoms: C_2  and  C_3
REMARK    3  A    between atoms: C_2  and  C_4
REMARK    4  A    between atoms: C_4  and  C_5
REMARK    5  A    between atoms: C_5  and  N_6
REMARK    6  A    between atoms: C_5  and  C_7
REMARK    7  A    between atoms: N_9  and  C_10
REMARK    8  A    between atoms: C_13  and  C_14
REMARK                            x       y       z     vdW  Elec       q    Type
REMARK                         _______ _______ _______ _____ _____    ______ ____
ROOT
ATOM      1  C   UNL     1       3.479   5.152  18.852  0.00  0.00    +0.000 C 
ATOM      2  O   UNL     1       3.332   5.210  17.632  0.00  0.00    +0.000 OA
ATOM      3  N   UNL     1       3.036   6.089  19.771  0.00  0.00    +0.000 N 
ATOM      4  H   UNL     1       3.403   5.934  20.709  0.00  0.00    +0.000 HD
ENDROOT
BRANCH   3   5
ATOM      5  C   UNL     1       2.377   7.292  19.476  0.00  0.00    +0.000 A 
ATOM      6  C   UNL     1       2.481   7.923  18.237  0.00  0.00    +0.000 A 
ATOM      7  C   UNL     1       1.891   9.170  18.013  0.00  0.00    +0.000 A 
ATOM      8  C   UNL     1       1.177   9.816  19.028  0.00  0.00    +0.000 A 
ATOM      9  C   UNL     1       1.030   9.142  20.247  0.00  0.00    +0.000 A 
ATOM     10  F   UNL     1       0.341   9.702  21.254  0.00  0.00    +0.000 F 
ATOM     11  C   UNL     1       1.605   7.889  20.471  0.00  0.00    +0.000 A 
BRANCH   8  12
ATOM     12  C   UNL     1       0.636  11.149  18.825  0.00  0.00    +0.000 A 
ATOM     13  C   UNL     1       1.134  12.435  18.849  0.00  0.00    +0.000 A 
ATOM     14  N   UNL     1       0.143  13.339  18.542  0.00  0.00    +0.000 NA
ATOM     15  C   UNL     1      -0.906  12.579  18.341  0.00  0.00    +0.000 A 
ATOM     16  O   UNL     1      -0.694  11.245  18.495  0.00  0.00    +0.000 OA
ENDBRANCH   8  12
ENDBRANCH   3   5
BRANCH   1  17
ATOM     17  C   UNL     1       4.169   3.941  19.519  0.00  0.00    +0.000 C 
BRANCH  17  18
ATOM     18  N   UNL     1       5.445   3.634  18.823  0.00  0.00    +0.000 NA
ATOM     19  H   UNL     1       5.283   3.677  17.815  0.00  0.00    +0.000 HD
ATOM     20  H   UNL     1       5.684   2.659  19.013  0.00  0.00    +0.000 HD
ENDBRANCH  17  18
BRANCH  17  21
ATOM     21  C   UNL     1       3.190   2.749  19.549  0.00  0.00    +0.000 C 
BRANCH  21  23
ATOM     22  C   UNL     1       0.785   2.324  18.865  0.00  0.00    +0.000 C 
ATOM     23  C   UNL     1       1.711   3.091  19.808  0.00  0.00    +0.000 C 
ATOM     24  C   UNL     1       1.338   2.766  21.260  0.00  0.00    +0.000 C 
ENDBRANCH  21  23
ENDBRANCH  17  21
ENDBRANCH   1  17
TORSDOF 6
ENDMDL
MODEL 4
REMARK VINA RESULT:      -6.7      5.206      6.370
REMARK  Name = 
REMARK  8 active torsions:
REMARK  status: ('A' for Active; 'I' for Inactive)
REMARK    1  A    between atoms: C_1  and  C_2
REMARK    2  A    between atoms: C_2  and  C_3
REMARK    3  A    between atoms: C_2  and  C_4
REMARK    4  A    between atoms: C_4  and  C_5
REMARK    5  A    between atoms: C_5  and  N_6
REMARK    6  A    between atoms: C_5  and  C_7
REMARK    7  A    between atoms: N_9  and  C_10
REMARK    8  A    between atoms: C_13  and  C_14
REMARK                            x       y       z     vdW  Elec       q    Type
REMARK                         _______ _______ _______ _____ _____    ______ ____
ROOT
ATOM      1  C   UNL     1       4.306   5.113  18.900  0.00  0.00    +0.000 C 
ATOM      2  O   UNL     1       5.084   5.597  19.720  0.00  0.00    +0.000 OA
ATOM      3  N   UNL     1       3.091   5.654  18.513  0.00  0.00    +0.000 N 
ATOM      4  H   UNL     1       2.530   5.015  17.950  0.00  0.00    +0.000 HD
ENDROOT
BRANCH   3   5
ATOM      5  C   UNL     1       2.509   6.828  19.016  0.00  0.00    +0.000 A 
ATOM      6  C   UNL     1       2.029   6.931  20.321  0.00  0.00    +0.000 A 
ATOM      7  C   UNL     1       1.366   8.083  20.754  0.00  0.00    +0.000 A 
ATOM      8  C   UNL     1       1.170   9.164  19.888  0.00  0.00    +0.000 A 
ATOM      9  C   UNL     1       1.711   9.069  18.599  0.00  0.00    +0.000 A 
ATOM     10  F   UNL     1       1.572  10.080  17.727  0.00  0.00    +0.000 F 
ATOM     11  C   UNL     1       2.387   7.926  18.166  0.00  0.00    +0.000 A 
BRANCH   8  12
ATOM     12  C   UNL     1       0.407  10.326  20.309  0.00  0.00    +0.000 A 
ATOM     13  C   UNL     1      -0.807  10.889  19.976  0.00  0.00    +0.000 A 
ATOM     14  N   UNL     1      -1.045  12.006  20.744  0.00  0.00    +0.000 NA
ATOM     15  C   UNL     1       0.018  12.077  21.508  0.00  0.00    +0.000 A 
ATOM     16  O   UNL     1       0.944  11.103  21.308  0.00  0.00    +0.000 OA
ENDBRANCH   8  12
ENDBRANCH   3   5
BRANCH   1  17
ATOM     17  C   UNL     1       4.646   3.808  18.145  0.00  0.00    +0.000 C 
BRANCH  17  18
ATOM     18  N   UNL     1       5.037   2.749  19.111  0.00  0.00    +0.000 NA
ATOM     19  H   UNL     1       6.002   2.474  18.918  0.00  0.00    +0.000 HD
ATOM     20  H   UNL     1       4.478   1.916  18.912  0.00  0.00    +0.000 HD
ENDBRANCH  17  18
BRANCH  17  21
ATOM     21  C   UNL     1       5.731   4.099  17.087  0.00  0.00    +0.000 C 
BRANCH  21  23
ATOM     22  C   UNL     1       5.284   6.119  15.620  0.00  0.00    +0.000 C 
ATOM     23  C   UNL     1       5.229   4.595  15.719  0.00  0.00    +0.000 C 
ATOM     24  C   UNL     1       6.072   3.983  14.592  0.00  0.00    +0.000 C 
ENDBRANCH  21  23
ENDBRANCH  17  21
ENDBRANCH   1  17
TORSDOF 6
ENDMDL
MODEL 5
REMARK VINA RESULT:      -6.7      5.221      6.596
REMARK  Name = 
REMARK  8 active torsions:
REMARK  status: ('A' for Active; 'I' for Inactive)
REMARK    1  A    between atoms: C_1  and  C_2
REMARK    2  A    between atoms: C_2  and  C_3
REMARK    3  A    between atoms: C_2  and  C_4
REMARK    4  A    between atoms: C_4  and  C_5
REMARK    5  A    between atoms: C_5  and  N_6
REMARK    6  A    between atoms: C_5  and  C_7
REMARK    7  A    between atoms: N_9  and  C_10
REMARK    8  A    between atoms: C_13  and  C_14
REMARK                            x       y       z     vdW  Elec       q    Type
REMARK                         _______ _______ _______ _____ _____    ______ ____
ROOT
ATOM      1  C   UNL     1       3.311   4.898  17.865  0.00  0.00    +0.000 C 
ATOM      2  O   UNL     1       2.173   4.430  17.841  0.00  0.00    +0.000 OA
ATOM      3  N   UNL     1       3.657   6.176  18.272  0.00  0.00    +0.000 N 
ATOM      4  H   UNL     1       4.625   6.415  18.059  0.00  0.00    +0.000 HD
ENDROOT
BRANCH   3   5
ATOM      5  C   UNL     1       2.771   7.181  18.690  0.00  0.00    +0.000 A 
ATOM      6  C   UNL     1       2.377   8.230  17.860  0.00  0.00    +0.000 A 
ATOM      7  C   UNL     1       1.572   9.265  18.343  0.00  0.00    +0.000 A 
ATOM      8  C   UNL     1       1.139   9.274  19.673  0.00  0.00    +0.000 A 
ATOM      9  C   UNL     1       1.493   8.183  20.478  0.00  0.00    +0.000 A 
ATOM     10  F   UNL     1       1.094   8.124  21.758  0.00  0.00    +0.000 F 
ATOM     11  C   UNL     1       2.285   7.137  19.996  0.00  0.00    +0.000 A 
BRANCH   8  12
ATOM     12  C   UNL     1       0.375  10.392  20.200  0.00  0.00    +0.000 A 
ATOM     13  C   UNL     1      -0.885  10.914  19.998  0.00  0.00    +0.000 A 
ATOM     14  N   UNL     1      -1.093  11.997  20.820  0.00  0.00    +0.000 NA
ATOM     15  C   UNL     1       0.032  12.090  21.486  0.00  0.00    +0.000 A 
ATOM     16  O   UNL     1       0.972  11.160  21.170  0.00  0.00    +0.000 OA
ENDBRANCH   8  12
ENDBRANCH   3   5
BRANCH   1  17
ATOM     17  C   UNL     1       4.537   4.045  17.467  0.00  0.00    +0.000 C 
BRANCH  17  18
ATOM     18  N   UNL     1       4.235   2.603  17.652  0.00  0.00    +0.000 NA
ATOM     19  H   UNL     1       4.987   2.181  18.200  0.00  0.00    +0.000 HD
ATOM     20  H   UNL     1       4.284   2.148  16.738  0.00  0.00    +0.000 HD
ENDBRANCH  17  18
BRANCH  17  21
ATOM     21  C   UNL     1       5.768   4.518  18.267  0.00  0.00    +0.000 C 
BRANCH  21  23
ATOM     22  C   UNL     1       6.796   4.624  15.951  0.00  0.00    +0.000 C 
ATOM     23  C   UNL     1       7.016   4.881  17.441  0.00  0.00    +0.000 C 
ATOM     24  C   UNL     1       7.381   6.356  17.653  0.00  0.00    +0.000 C 
ENDBRANCH  21  23
ENDBRANCH  17  21
ENDBRANCH   1  17
TORSDOF 6
ENDMDL
MODEL 6
REMARK VINA RESULT:      -6.6      1.339      1.747
REMARK  Name = 
REMARK  8 active torsions:
REMARK  status: ('A' for Active; 'I' for Inactive)
REMARK    1  A    between atoms: C_1  and  C_2
REMARK    2  A    between atoms: C_2  and  C_3
REMARK    3  A    between atoms: C_2  and  C_4
REMARK    4  A    between atoms: C_4  and  C_5
REMARK    5  A    between atoms: C_5  and  N_6
REMARK    6  A    between atoms: C_5  and  C_7
REMARK    7  A    between atoms: N_9  and  C_10
REMARK    8  A    between atoms: C_13  and  C_14
REMARK                            x       y       z     vdW  Elec       q    Type
REMARK                         _______ _______ _______ _____ _____    ______ ____
ROOT
ATOM      1  C   UNL     1       6.684   4.972  14.362  0.00  0.00    +0.000 C 
ATOM      2  O   UNL     1       5.966   5.971  14.360  0.00  0.00    +0.000 OA
ATOM      3  N   UNL     1       6.655   3.950  15.297  0.00  0.00    +0.000 N 
ATOM      4  H   UNL     1       7.439   3.304  15.208  0.00  0.00    +0.000 HD
ENDROOT
BRANCH   3   5
ATOM      5  C   UNL     1       5.834   3.890  16.433  0.00  0.00    +0.000 A 
ATOM      6  C   UNL     1       4.617   3.209  16.448  0.00  0.00    +0.000 A 
ATOM      7  C   UNL     1       3.781   3.255  17.567  0.00  0.00    +0.000 A 
ATOM      8  C   UNL     1       4.146   3.985  18.703  0.00  0.00    +0.000 A 
ATOM      9  C   UNL     1       5.397   4.614  18.696  0.00  0.00    +0.000 A 
ATOM     10  F   UNL     1       5.813   5.315  19.762  0.00  0.00    +0.000 F 
ATOM     11  C   UNL     1       6.244   4.558  17.586  0.00  0.00    +0.000 A 
BRANCH   8  12
ATOM     12  C   UNL     1       3.240   4.105  19.833  0.00  0.00    +0.000 A 
ATOM     13  C   UNL     1       2.414   5.085  20.342  0.00  0.00    +0.000 A 
ATOM     14  N   UNL     1       1.745   4.620  21.451  0.00  0.00    +0.000 NA
ATOM     15  C   UNL     1       2.180   3.390  21.571  0.00  0.00    +0.000 A 
ATOM     16  O   UNL     1       3.087   3.001  20.636  0.00  0.00    +0.000 OA
ENDBRANCH   8  12
ENDBRANCH   3   5
BRANCH   1  17
ATOM     17  C   UNL     1       7.711   4.721  13.234  0.00  0.00    +0.000 C 
BRANCH  17  18
ATOM     18  N   UNL     1       8.549   5.929  13.032  0.00  0.00    +0.000 NA
ATOM     19  H   UNL     1       8.864   5.948  12.059  0.00  0.00    +0.000 HD
ATOM     20  H   UNL     1       9.402   5.821  13.585  0.00  0.00    +0.000 HD
ENDBRANCH  17  18
BRANCH  17  21
ATOM     21  C   UNL     1       6.968   4.273  11.958  0.00  0.00    +0.000 C 
BRANCH  21  23
ATOM     22  C   UNL     1       4.633   3.326  11.666  0.00  0.00    +0.000 C 
ATOM     23  C   UNL     1       6.070   3.030  12.096  0.00  0.00    +0.000 C 
ATOM     24  C   UNL     1       6.625   1.879  11.248  0.00  0.00    +0.000 C 
ENDBRANCH  21  23
ENDBRANCH  17  21
ENDBRANCH   1  17
TORSDOF 6
ENDMDL
MODEL 7
REMARK VINA RESULT:      -6.6      5.192      6.694
REMARK  Name = 
REMARK  8 active torsions:
REMARK  status: ('A' for Active; 'I' for Inactive)
REMARK    1  A    between atoms: C_1  and  C_2
REMARK    2  A    between atoms: C_2  and  C_3
REMARK    3  A    between atoms: C_2  and  C_4
REMARK    4  A    between atoms: C_4  and  C_5
REMARK    5  A    between atoms: C_5  and  N_6
REMARK    6  A    between atoms: C_5  and  C_7
REMARK    7  A    between atoms: N_9  and  C_10
REMARK    8  A    between atoms: C_13  and  C_14
REMARK                            x       y       z     vdW  Elec       q    Type
REMARK                         _______ _______ _______ _____ _____    ______ ____
ROOT
ATOM      1  C   UNL     1       4.317   5.103  18.783  0.00  0.00    +0.000 C 
ATOM      2  O   UNL     1       5.046   5.529  19.678  0.00  0.00    +0.000 OA
ATOM      3  N   UNL     1       3.150   5.698  18.331  0.00  0.00    +0.000 N 
ATOM      4  H   UNL     1       2.615   5.101  17.702  0.00  0.00    +0.000 HD
ENDROOT
BRANCH   3   5
ATOM      5  C   UNL     1       2.567   6.869  18.839  0.00  0.00    +0.000 A 
ATOM      6  C   UNL     1       2.105   6.973  20.150  0.00  0.00    +0.000 A 
ATOM      7  C   UNL     1       1.440   8.120  20.590  0.00  0.00    +0.000 A 
ATOM      8  C   UNL     1       1.224   9.197  19.724  0.00  0.00    +0.000 A 
ATOM      9  C   UNL     1       1.747   9.103  18.428  0.00  0.00    +0.000 A 
ATOM     10  F   UNL     1       1.588  10.110  17.555  0.00  0.00    +0.000 F 
ATOM     11  C   UNL     1       2.425   7.964  17.988  0.00  0.00    +0.000 A 
BRANCH   8  12
ATOM     12  C   UNL     1       0.458  10.356  20.153  0.00  0.00    +0.000 A 
ATOM     13  C   UNL     1       0.683  11.446  20.967  0.00  0.00    +0.000 A 
ATOM     14  N   UNL     1      -0.422  12.267  20.985  0.00  0.00    +0.000 NA
ATOM     15  C   UNL     1      -1.264  11.655  20.188  0.00  0.00    +0.000 A 
ATOM     16  O   UNL     1      -0.812  10.493  19.647  0.00  0.00    +0.000 OA
ENDBRANCH   8  12
ENDBRANCH   3   5
BRANCH   1  17
ATOM     17  C   UNL     1       4.674   3.819  18.001  0.00  0.00    +0.000 C 
BRANCH  17  18
ATOM     18  N   UNL     1       5.886   4.048  17.173  0.00  0.00    +0.000 NA
ATOM     19  H   UNL     1       6.200   3.149  16.801  0.00  0.00    +0.000 HD
ATOM     20  H   UNL     1       6.639   4.358  17.792  0.00  0.00    +0.000 HD
ENDBRANCH  17  18
BRANCH  17  21
ATOM     21  C   UNL     1       3.450   3.366  17.177  0.00  0.00    +0.000 C 
BRANCH  21  23
ATOM     22  C   UNL     1       3.562   1.291  18.631  0.00  0.00    +0.000 C 
ATOM     23  C   UNL     1       2.684   2.144  17.716  0.00  0.00    +0.000 C 
ATOM     24  C   UNL     1       1.439   2.599  18.488  0.00  0.00    +0.000 C 
ENDBRANCH  21  23
ENDBRANCH  17  21
ENDBRANCH   1  17
TORSDOF 6
ENDMDL
MODEL 8
REMARK VINA RESULT:      -6.5      5.349      6.656
REMARK  Name = 
REMARK  8 active torsions:
REMARK  status: ('A' for Active; 'I' for Inactive)
REMARK    1  A    between atoms: C_1  and  C_2
REMARK    2  A    between atoms: C_2  and  C_3
REMARK    3  A    between atoms: C_2  and  C_4
REMARK    4  A    between atoms: C_4  and  C_5
REMARK    5  A    between atoms: C_5  and  N_6
REMARK    6  A    between atoms: C_5  and  C_7
REMARK    7  A    between atoms: N_9  and  C_10
REMARK    8  A    between atoms: C_13  and  C_14
REMARK                            x       y       z     vdW  Elec       q    Type
REMARK                         _______ _______ _______ _____ _____    ______ ____
ROOT
ATOM      1  C   UNL     1       2.911   4.805  18.171  0.00  0.00    +0.000 C 
ATOM      2  O   UNL     1       1.764   4.548  17.808  0.00  0.00    +0.000 OA
ATOM      3  N   UNL     1       3.325   5.966  18.802  0.00  0.00    +0.000 N 
ATOM      4  H   UNL     1       4.339   6.047  18.867  0.00  0.00    +0.000 HD
ENDROOT
BRANCH   3   5
ATOM      5  C   UNL     1       2.521   7.077  19.103  0.00  0.00    +0.000 A 
ATOM      6  C   UNL     1       2.268   8.095  18.185  0.00  0.00    +0.000 A 
ATOM      7  C   UNL     1       1.545   9.233  18.553  0.00  0.00    +0.000 A 
ATOM      8  C   UNL     1       1.053   9.377  19.855  0.00  0.00    +0.000 A 
ATOM      9  C   UNL     1       1.262   8.319  20.748  0.00  0.00    +0.000 A 
ATOM     10  F   UNL     1       0.799   8.389  22.006  0.00  0.00    +0.000 F 
ATOM     11  C   UNL     1       1.971   7.172  20.381  0.00  0.00    +0.000 A 
BRANCH   8  12
ATOM     12  C   UNL     1       0.375  10.596  20.264  0.00  0.00    +0.000 A 
ATOM     13  C   UNL     1      -0.832  11.200  19.985  0.00  0.00    +0.000 A 
ATOM     14  N   UNL     1      -0.963  12.365  20.705  0.00  0.00    +0.000 NA
ATOM     15  C   UNL     1       0.153  12.423  21.390  0.00  0.00    +0.000 A 
ATOM     16  O   UNL     1       1.017  11.395  21.179  0.00  0.00    +0.000 OA
ENDBRANCH   8  12
ENDBRANCH   3   5
BRANCH   1  17
ATOM     17  C   UNL     1       4.056   3.782  17.992  0.00  0.00    +0.000 C 
BRANCH  17  18
ATOM     18  N   UNL     1       5.043   3.925  19.093  0.00  0.00    +0.000 NA
ATOM     19  H   UNL     1       5.811   4.517  18.767  0.00  0.00    +0.000 HD
ATOM     20  H   UNL     1       5.466   3.010  19.262  0.00  0.00    +0.000 HD
ENDBRANCH  17  18
BRANCH  17  21
ATOM     21  C   UNL     1       4.678   3.954  16.590  0.00  0.00    +0.000 C 
BRANCH  21  23
ATOM     22  C   UNL     1       7.006   4.491  15.739  0.00  0.00    +0.000 C 
ATOM     23  C   UNL     1       5.770   5.031  16.459  0.00  0.00    +0.000 C 
ATOM     24  C   UNL     1       5.227   6.244  15.693  0.00  0.00    +0.000 C 
ENDBRANCH  21  23
ENDBRANCH  17  21
ENDBRANCH   1  17
TORSDOF 6
ENDMDL
MODEL 9
REMARK VINA RESULT:      -6.5      5.444      6.973
REMARK  Name = 
REMARK  8 active torsions:
REMARK  status: ('A' for Active; 'I' for Inactive)
REMARK    1  A    between atoms: C_1  and  C_2
REMARK    2  A    between atoms: C_2  and  C_3
REMARK    3  A    between atoms: C_2  and  C_4
REMARK    4  A    between atoms: C_4  and  C_5
REMARK    5  A    between atoms: C_5  and  N_6
REMARK    6  A    between atoms: C_5  and  C_7
REMARK    7  A    between atoms: N_9  and  C_10
REMARK    8  A    between atoms: C_13  and  C_14
REMARK                            x       y       z     vdW  Elec       q    Type
REMARK                         _______ _______ _______ _____ _____    ______ ____
ROOT
ATOM      1  C   UNL     1       3.258   5.045  18.054  0.00  0.00    +0.000 C 
ATOM      2  O   UNL     1       2.140   4.610  17.778  0.00  0.00    +0.000 OA
ATOM      3  N   UNL     1       3.539   6.298  18.575  0.00  0.00    +0.000 N 
ATOM      4  H   UNL     1       4.534   6.517  18.575  0.00  0.00    +0.000 HD
ENDROOT
BRANCH   3   5
ATOM      5  C   UNL     1       2.606   7.312  18.841  0.00  0.00    +0.000 A 
ATOM      6  C   UNL     1       2.219   8.249  17.883  0.00  0.00    +0.000 A 
ATOM      7  C   UNL     1       1.364   9.304  18.214  0.00  0.00    +0.000 A 
ATOM      8  C   UNL     1       0.872   9.444  19.516  0.00  0.00    +0.000 A 
ATOM      9  C   UNL     1       1.221   8.461  20.451  0.00  0.00    +0.000 A 
ATOM     10  F   UNL     1       0.767   8.530  21.713  0.00  0.00    +0.000 F 
ATOM     11  C   UNL     1       2.063   7.396  20.122  0.00  0.00    +0.000 A 
BRANCH   8  12
ATOM     12  C   UNL     1       0.052  10.587  19.884  0.00  0.00    +0.000 A 
ATOM     13  C   UNL     1       0.189  11.678  20.716  0.00  0.00    +0.000 A 
ATOM     14  N   UNL     1      -0.928  12.478  20.644  0.00  0.00    +0.000 NA
ATOM     15  C   UNL     1      -1.690  11.855  19.779  0.00  0.00    +0.000 A 
ATOM     16  O   UNL     1      -1.174  10.703  19.275  0.00  0.00    +0.000 OA
ENDBRANCH   8  12
ENDBRANCH   3   5
BRANCH   1  17
ATOM     17  C   UNL     1       4.522   4.172  17.883  0.00  0.00    +0.000 C 
BRANCH  17  18
ATOM     18  N   UNL     1       4.179   2.739  18.067  0.00  0.00    +0.000 NA
ATOM     19  H   UNL     1       4.847   2.174  17.537  0.00  0.00    +0.000 HD
ATOM     20  H   UNL     1       3.275   2.569  17.622  0.00  0.00    +0.000 HD
ENDBRANCH  17  18
BRANCH  17  21
ATOM     21  C   UNL     1       5.617   4.666  18.851  0.00  0.00    +0.000 C 
BRANCH  21  23
ATOM     22  C   UNL     1       7.845   5.809  19.256  0.00  0.00    +0.000 C 
ATOM     23  C   UNL     1       6.803   5.411  18.212  0.00  0.00    +0.000 C 
ATOM     24  C   UNL     1       7.466   4.532  17.143  0.00  0.00    +0.000 C 
ENDBRANCH  21  23
ENDBRANCH  17  21
ENDBRANCH   1  17
TORSDOF 6
ENDMDL
