MODEL 1
REMARK VINA RESULT:      -7.9      0.000      0.000
REMARK  Name = 
REMARK  8 active torsions:
REMARK  status: ('A' for Active; 'I' for Inactive)
REMARK    1  A    between atoms: C_1  and  C_2
REMARK    2  A    between atoms: C_2  and  C_3
REMARK    3  A    between atoms: C_3  and  C_4
REMARK    4  A    between atoms: C_9  and  C_10
REMARK    5  A    between atoms: C_9  and  C_11
REMARK    6  A    between atoms: N_13  and  C_14
REMARK    7  A    between atoms: C_17  and  C_18
REMARK    8  A    between atoms: C_19  and  C_20
REMARK                            x       y       z     vdW  Elec       q    Type
REMARK                         _______ _______ _______ _____ _____    ______ ____
ROOT
ATOM      1  C   UNL     1       4.077   6.261  17.747  0.00  0.00    +0.000 C 
ATOM      2  O   UNL     1       4.333   7.194  16.973  0.00  0.00    +0.000 OA
ATOM      3  N   UNL     1       3.124   6.344  18.759  0.00  0.00    +0.000 N 
ATOM      4  H   UNL     1       3.098   5.592  19.443  0.00  0.00    +0.000 HD
ENDROOT
BRANCH   3   5
ATOM      5  C   UNL     1       2.315   7.475  19.030  0.00  0.00    +0.000 A 
ATOM      6  C   UNL     1       1.980   8.412  18.053  0.00  0.00    +0.000 A 
ATOM      7  C   UNL     1       1.250   9.555  18.378  0.00  0.00    +0.000 A 
ATOM      8  C   UNL     1       0.833   9.795  19.692  0.00  0.00    +0.000 A 
ATOM      9  C   UNL     1       0.109  11.080  19.986  0.00  0.00    +0.000 C 
ATOM     10  C   UNL     1       1.123   8.838  20.683  0.00  0.00    +0.000 A 
ATOM     11  C   UNL     1       0.721   9.015  22.122  0.00  0.00    +0.000 C 
ATOM     12  C   UNL     1       1.846   7.674  20.333  0.00  0.00    +0.000 A 
ENDBRANCH   3   5
BRANCH   1  18
ATOM     13  C   UNL     1       7.099   5.916  16.765  0.00  0.00    +0.000 C 
ATOM     14  O   UNL     1       7.705   5.985  15.696  0.00  0.00    +0.000 OA
ATOM     15  N   UNL     1       6.208   4.905  17.015  0.00  0.00    +0.000 N 
ATOM     16  C   UNL     1       5.908   3.767  16.157  0.00  0.00    +0.000 C 
ATOM     17  C   UNL     1       4.445   3.925  16.563  0.00  0.00    +0.000 C 
ATOM     18  C   UNL     1       4.891   4.906  17.680  0.00  0.00    +0.000 C 
ATOM     19  C   UNL     1       4.994   4.234  19.055  0.00  0.00    +0.000 C 
BRANCH  13  20
ATOM     20  C   UNL     1       7.390   6.850  17.926  0.00  0.00    +0.000 C 
BRANCH  20  22
ATOM     21  C   UNL     1       8.551   9.016  18.473  0.00  0.00    +0.000 C 
ATOM     22  C   UNL     1       7.704   8.269  17.455  0.00  0.00    +0.000 C 
ENDBRANCH  20  22
ENDBRANCH  13  20
ENDBRANCH   1  18
TORSDOF 4
ENDMDL
MODEL 2
REMARK VINA RESULT:      -7.8      2.815      6.824
REMARK  Name = 
REMARK  8 active torsions:
REMARK  status: ('A' for Active; 'I' for Inactive)
REMARK    1  A    between atoms: C_1  and  C_2
REMARK    2  A    between atoms: C_2  and  C_3
REMARK    3  A    between atoms: C_3  and  C_4
REMARK    4  A    between atoms: C_9  and  C_10
REMARK    5  A    between atoms: C_9  and  C_11
REMARK    6  A    between atoms: N_13  and  C_14
REMARK    7  A    between atoms: C_17  and  C_18
REMARK    8  A    between atoms: C_19  and  C_20
REMARK                            x       y       z     vdW  Elec       q    Type
REMARK                         _______ _______ _______ _____ _____    ______ ____
ROOT
ATOM      1  C   UNL     1       4.299   3.516  18.467  0.00  0.00    +0.000 C 
ATOM      2  O   UNL     1       5.378   3.679  19.054  0.00  0.00    +0.000 OA
ATOM      3  N   UNL     1       4.136   3.705  17.097  0.00  0.00    +0.000 N 
ATOM      4  H   UNL     1       3.187   3.707  16.733  0.00  0.00    +0.000 HD
ENDROOT
BRANCH   3   5
ATOM      5  C   UNL     1       5.161   4.083  16.196  0.00  0.00    +0.000 A 
ATOM      6  C   UNL     1       6.165   4.991  16.535  0.00  0.00    +0.000 A 
ATOM      7  C   UNL     1       7.108   5.400  15.593  0.00  0.00    +0.000 A 
ATOM      8  C   UNL     1       7.077   4.912  14.282  0.00  0.00    +0.000 A 
ATOM      9  C   UNL     1       8.082   5.447  13.300  0.00  0.00    +0.000 C 
ATOM     10  C   UNL     1       6.098   3.962  13.934  0.00  0.00    +0.000 A 
ATOM     11  C   UNL     1       5.984   3.389  12.546  0.00  0.00    +0.000 C 
ATOM     12  C   UNL     1       5.162   3.542  14.906  0.00  0.00    +0.000 A 
ENDBRANCH   3   5
BRANCH   1  18
ATOM     13  C   UNL     1       2.216   5.578  19.744  0.00  0.00    +0.000 C 
ATOM     14  O   UNL     1       2.207   6.373  20.684  0.00  0.00    +0.000 OA
ATOM     15  N   UNL     1       2.250   4.224  19.956  0.00  0.00    +0.000 N 
ATOM     16  C   UNL     1       2.196   3.535  21.239  0.00  0.00    +0.000 C 
ATOM     17  C   UNL     1       3.226   2.554  20.685  0.00  0.00    +0.000 C 
ATOM     18  C   UNL     1       2.987   3.145  19.270  0.00  0.00    +0.000 C 
ATOM     19  C   UNL     1       2.023   2.302  18.427  0.00  0.00    +0.000 C 
BRANCH  13  20
ATOM     20  C   UNL     1       2.052   6.022  18.302  0.00  0.00    +0.000 C 
BRANCH  20  22
ATOM     21  C   UNL     1       2.284   8.478  17.800  0.00  0.00    +0.000 C 
ATOM     22  C   UNL     1       3.014   7.151  17.938  0.00  0.00    +0.000 C 
ENDBRANCH  20  22
ENDBRANCH  13  20
ENDBRANCH   1  18
TORSDOF 4
ENDMDL
MODEL 3
REMARK VINA RESULT:      -7.7      1.161      1.290
REMARK  Name = 
REMARK  8 active torsions:
REMARK  status: ('A' for Active; 'I' for Inactive)
REMARK    1  A    between atoms: C_1  and  C_2
REMARK    2  A    between atoms: C_2  and  C_3
REMARK    3  A    between atoms: C_3  and  C_4
REMARK    4  A    between atoms: C_9  and  C_10
REMARK    5  A    between atoms: C_9  and  C_11
REMARK    6  A    between atoms: N_13  and  C_14
REMARK    7  A    between atoms: C_17  and  C_18
REMARK    8  A    between atoms: C_19  and  C_20
REMARK                            x       y       z     vdW  Elec       q    Type
REMARK                         _______ _______ _______ _____ _____    ______ ____
ROOT
ATOM      1  C   UNL     1       3.002   5.446  18.157  0.00  0.00    +0.000 C 
ATOM      2  O   UNL     1       1.903   5.181  17.649  0.00  0.00    +0.000 OA
ATOM      3  N   UNL     1       3.264   6.629  18.842  0.00  0.00    +0.000 N 
ATOM      4  H   UNL     1       4.232   6.829  19.081  0.00  0.00    +0.000 HD
ENDROOT
BRANCH   3   5
ATOM      5  C   UNL     1       2.328   7.668  19.068  0.00  0.00    +0.000 A 
ATOM      6  C   UNL     1       1.956   8.576  18.077  0.00  0.00    +0.000 A 
ATOM      7  C   UNL     1       1.094   9.634  18.362  0.00  0.00    +0.000 A 
ATOM      8  C   UNL     1       0.576   9.815  19.650  0.00  0.00    +0.000 A 
ATOM      9  C   UNL     1      -0.293  11.016  19.904  0.00  0.00    +0.000 C 
ATOM     10  C   UNL     1       0.905   8.883  20.652  0.00  0.00    +0.000 A 
ATOM     11  C   UNL     1       0.401   9.004  22.065  0.00  0.00    +0.000 C 
ATOM     12  C   UNL     1       1.764   7.805  20.341  0.00  0.00    +0.000 A 
ENDBRANCH   3   5
BRANCH   1  18
ATOM     13  C   UNL     1       5.543   5.895  16.270  0.00  0.00    +0.000 C 
ATOM     14  O   UNL     1       5.768   5.902  15.060  0.00  0.00    +0.000 OA
ATOM     15  N   UNL     1       5.217   4.738  16.928  0.00  0.00    +0.000 N 
ATOM     16  C   UNL     1       5.168   3.394  16.368  0.00  0.00    +0.000 C 
ATOM     17  C   UNL     1       3.923   3.152  17.217  0.00  0.00    +0.000 C 
ATOM     18  C   UNL     1       4.230   4.462  17.990  0.00  0.00    +0.000 C 
ATOM     19  C   UNL     1       4.946   4.214  19.323  0.00  0.00    +0.000 C 
BRANCH  13  20
ATOM     20  C   UNL     1       5.743   7.123  17.140  0.00  0.00    +0.000 C 
BRANCH  20  22
ATOM     21  C   UNL     1       7.773   6.521  18.502  0.00  0.00    +0.000 C 
ATOM     22  C   UNL     1       7.221   7.409  17.397  0.00  0.00    +0.000 C 
ENDBRANCH  20  22
ENDBRANCH  13  20
ENDBRANCH   1  18
TORSDOF 4
ENDMDL
MODEL 4
REMARK VINA RESULT:      -7.6      2.354      4.061
REMARK  Name = 
REMARK  8 active torsions:
REMARK  status: ('A' for Active; 'I' for Inactive)
REMARK    1  A    between atoms: C_1  and  C_2
REMARK    2  A    between atoms: C_2  and  C_3
REMARK    3  A    between atoms: C_3  and  C_4
REMARK    4  A    between atoms: C_9  and  C_10
REMARK    5  A    between atoms: C_9  and  C_11
REMARK    6  A    between atoms: N_13  and  C_14
REMARK    7  A    between atoms: C_17  and  C_18
REMARK    8  A    between atoms: C_19  and  C_20
REMARK                            x       y       z     vdW  Elec       q    Type
REMARK                         _______ _______ _______ _____ _____    ______ ____
ROOT
ATOM      1  C   UNL     1       2.913   5.649  18.109  0.00  0.00    +0.000 C 
ATOM      2  O   UNL     1       1.830   5.380  17.569  0.00  0.00    +0.000 OA
ATOM      3  N   UNL     1       3.137   6.814  18.838  0.00  0.00    +0.000 N 
ATOM      4  H   UNL     1       4.095   7.025  19.104  0.00  0.00    +0.000 HD
ENDROOT
BRANCH   3   5
ATOM      5  C   UNL     1       2.176   7.826  19.077  0.00  0.00    +0.000 A 
ATOM      6  C   UNL     1       1.780   8.736  18.097  0.00  0.00    +0.000 A 
ATOM      7  C   UNL     1       0.892   9.769  18.395  0.00  0.00    +0.000 A 
ATOM      8  C   UNL     1       0.372   9.923  19.685  0.00  0.00    +0.000 A 
ATOM      9  C   UNL     1      -0.527  11.098  19.955  0.00  0.00    +0.000 C 
ATOM     10  C   UNL     1       0.724   8.988  20.676  0.00  0.00    +0.000 A 
ATOM     11  C   UNL     1       0.220   9.079  22.092  0.00  0.00    +0.000 C 
ATOM     12  C   UNL     1       1.610   7.934  20.352  0.00  0.00    +0.000 A 
ENDBRANCH   3   5
BRANCH   1  18
ATOM     13  C   UNL     1       3.432   2.911  19.675  0.00  0.00    +0.000 C 
ATOM     14  O   UNL     1       3.714   2.579  20.827  0.00  0.00    +0.000 OA
ATOM     15  N   UNL     1       4.334   3.576  18.885  0.00  0.00    +0.000 N 
ATOM     16  C   UNL     1       5.714   3.906  19.214  0.00  0.00    +0.000 C 
ATOM     17  C   UNL     1       5.495   5.246  18.516  0.00  0.00    +0.000 C 
ATOM     18  C   UNL     1       4.164   4.695  17.938  0.00  0.00    +0.000 C 
ATOM     19  C   UNL     1       4.303   4.192  16.497  0.00  0.00    +0.000 C 
BRANCH  13  20
ATOM     20  C   UNL     1       2.137   2.494  19.003  0.00  0.00    +0.000 C 
BRANCH  20  22
ATOM     21  C   UNL     1       0.982   4.136  20.521  0.00  0.00    +0.000 C 
ATOM     22  C   UNL     1       0.921   2.754  19.890  0.00  0.00    +0.000 C 
ENDBRANCH  20  22
ENDBRANCH  13  20
ENDBRANCH   1  18
TORSDOF 4
ENDMDL
MODEL 5
REMARK VINA RESULT:      -7.5      1.942      2.320
REMARK  Name = 
REMARK  8 active torsions:
REMARK  status: ('A' for Active; 'I' for Inactive)
REMARK    1  A    between atoms: C_1  and  C_2
REMARK    2  A    between atoms: C_2  and  C_3
REMARK    3  A    between atoms: C_3  and  C_4
REMARK    4  A    between atoms: C_9  and  C_10
REMARK    5  A    between atoms: C_9  and  C_11
REMARK    6  A    between atoms: N_13  and  C_14
REMARK    7  A    between atoms: C_17  and  C_18
REMARK    8  A    between atoms: C_19  and  C_20
REMARK                            x       y       z     vdW  Elec       q    Type
REMARK                         _______ _______ _______ _____ _____    ______ ____
ROOT
ATOM      1  C   UNL     1       2.196   4.960  18.598  0.00  0.00    +0.000 C 
ATOM      2  O   UNL     1       1.369   5.035  17.678  0.00  0.00    +0.000 OA
ATOM      3  N   UNL     1       2.610   6.059  19.348  0.00  0.00    +0.000 N 
ATOM      4  H   UNL     1       3.405   5.931  19.967  0.00  0.00    +0.000 HD
ENDROOT
BRANCH   3   5
ATOM      5  C   UNL     1       2.142   7.385  19.181  0.00  0.00    +0.000 A 
ATOM      6  C   UNL     1       2.345   8.114  18.009  0.00  0.00    +0.000 A 
ATOM      7  C   UNL     1       1.941   9.445  17.915  0.00  0.00    +0.000 A 
ATOM      8  C   UNL     1       1.321  10.089  18.992  0.00  0.00    +0.000 A 
ATOM      9  C   UNL     1       0.973  11.544  18.847  0.00  0.00    +0.000 C 
ATOM     10  C   UNL     1       1.068   9.356  20.167  0.00  0.00    +0.000 A 
ATOM     11  C   UNL     1       0.413   9.967  21.377  0.00  0.00    +0.000 C 
ATOM     12  C   UNL     1       1.465   8.001  20.239  0.00  0.00    +0.000 A 
ENDBRANCH   3   5
BRANCH   1  18
ATOM     13  C   UNL     1       4.988   3.933  17.430  0.00  0.00    +0.000 C 
ATOM     14  O   UNL     1       5.412   3.538  16.344  0.00  0.00    +0.000 OA
ATOM     15  N   UNL     1       4.093   3.193  18.158  0.00  0.00    +0.000 N 
ATOM     16  C   UNL     1       3.588   1.864  17.838  0.00  0.00    +0.000 C 
ATOM     17  C   UNL     1       2.225   2.328  18.343  0.00  0.00    +0.000 C 
ATOM     18  C   UNL     1       2.906   3.589  18.940  0.00  0.00    +0.000 C 
ATOM     19  C   UNL     1       3.195   3.455  20.440  0.00  0.00    +0.000 C 
BRANCH  13  20
ATOM     20  C   UNL     1       5.521   5.185  18.104  0.00  0.00    +0.000 C 
BRANCH  20  22
ATOM     21  C   UNL     1       7.043   7.059  17.392  0.00  0.00    +0.000 C 
ATOM     22  C   UNL     1       5.744   6.321  17.109  0.00  0.00    +0.000 C 
ENDBRANCH  20  22
ENDBRANCH  13  20
ENDBRANCH   1  18
TORSDOF 4
ENDMDL
MODEL 6
REMARK VINA RESULT:      -7.4      1.875      3.196
REMARK  Name = 
REMARK  8 active torsions:
REMARK  status: ('A' for Active; 'I' for Inactive)
REMARK    1  A    between atoms: C_1  and  C_2
REMARK    2  A    between atoms: C_2  and  C_3
REMARK    3  A    between atoms: C_3  and  C_4
REMARK    4  A    between atoms: C_9  and  C_10
REMARK    5  A    between atoms: C_9  and  C_11
REMARK    6  A    between atoms: N_13  and  C_14
REMARK    7  A    between atoms: C_17  and  C_18
REMARK    8  A    between atoms: C_19  and  C_20
REMARK                            x       y       z     vdW  Elec       q    Type
REMARK                         _______ _______ _______ _____ _____    ______ ____
ROOT
ATOM      1  C   UNL     1       3.063   5.956  17.700  0.00  0.00    +0.000 C 
ATOM      2  O   UNL     1       2.004   5.336  17.879  0.00  0.00    +0.000 OA
ATOM      3  N   UNL     1       3.216   7.310  17.987  0.00  0.00    +0.000 N 
ATOM      4  H   UNL     1       4.063   7.767  17.658  0.00  0.00    +0.000 HD
ENDROOT
BRANCH   3   5
ATOM      5  C   UNL     1       2.213   8.149  18.530  0.00  0.00    +0.000 A 
ATOM      6  C   UNL     1       1.506   9.073  17.760  0.00  0.00    +0.000 A 
ATOM      7  C   UNL     1       0.584   9.938  18.349  0.00  0.00    +0.000 A 
ATOM      8  C   UNL     1       0.341   9.905  19.727  0.00  0.00    +0.000 A 
ATOM      9  C   UNL     1      -0.615  10.911  20.305  0.00  0.00    +0.000 C 
ATOM     10  C   UNL     1       1.012   8.949  20.512  0.00  0.00    +0.000 A 
ATOM     11  C   UNL     1       0.818   8.845  22.001  0.00  0.00    +0.000 C 
ATOM     12  C   UNL     1       1.928   8.065  19.897  0.00  0.00    +0.000 A 
ENDBRANCH   3   5
BRANCH   1  18
ATOM     13  C   UNL     1       5.578   4.751  19.262  0.00  0.00    +0.000 C 
ATOM     14  O   UNL     1       6.535   5.197  19.895  0.00  0.00    +0.000 OA
ATOM     15  N   UNL     1       5.475   4.928  17.907  0.00  0.00    +0.000 N 
ATOM     16  C   UNL     1       6.452   5.554  17.027  0.00  0.00    +0.000 C 
ATOM     17  C   UNL     1       5.282   6.189  16.280  0.00  0.00    +0.000 C 
ATOM     18  C   UNL     1       4.317   5.246  17.048  0.00  0.00    +0.000 C 
ATOM     19  C   UNL     1       3.914   4.013  16.231  0.00  0.00    +0.000 C 
BRANCH  13  20
ATOM     20  C   UNL     1       4.525   3.863  19.900  0.00  0.00    +0.000 C 
BRANCH  20  22
ATOM     21  C   UNL     1       3.220   1.915  18.983  0.00  0.00    +0.000 C 
ATOM     22  C   UNL     1       4.595   2.428  19.382  0.00  0.00    +0.000 C 
ENDBRANCH  20  22
ENDBRANCH  13  20
ENDBRANCH   1  18
TORSDOF 4
ENDMDL
MODEL 7
REMARK VINA RESULT:      -7.3      2.044      2.870
REMARK  Name = 
REMARK  8 active torsions:
REMARK  status: ('A' for Active; 'I' for Inactive)
REMARK    1  A    between atoms: C_1  and  C_2
REMARK    2  A    between atoms: C_2  and  C_3
REMARK    3  A    between atoms: C_3  and  C_4
REMARK    4  A    between atoms: C_9  and  C_10
REMARK    5  A    between atoms: C_9  and  C_11
REMARK    6  A    between atoms: N_13  and  C_14
REMARK    7  A    between atoms: C_17  and  C_18
REMARK    8  A    between atoms: C_19  and  C_20
REMARK                            x       y       z     vdW  Elec       q    Type
REMARK                         _______ _______ _______ _____ _____    ______ ____
ROOT
ATOM      1  C   UNL     1       2.167   4.784  19.098  0.00  0.00    +0.000 C 
ATOM      2  O   UNL     1       1.500   5.049  18.087  0.00  0.00    +0.000 OA
ATOM      3  N   UNL     1       2.398   5.697  20.124  0.00  0.00    +0.000 N 
ATOM      4  H   UNL     1       3.086   5.446  20.829  0.00  0.00    +0.000 HD
ENDROOT
BRANCH   3   5
ATOM      5  C   UNL     1       1.901   7.022  20.166  0.00  0.00    +0.000 A 
ATOM      6  C   UNL     1       1.148   7.511  21.234  0.00  0.00    +0.000 A 
ATOM      7  C   UNL     1       0.608   8.796  21.200  0.00  0.00    +0.000 A 
ATOM      8  C   UNL     1       0.806   9.632  20.095  0.00  0.00    +0.000 A 
ATOM      9  C   UNL     1       0.138  10.980  20.095  0.00  0.00    +0.000 C 
ATOM     10  C   UNL     1       1.600   9.173  19.028  0.00  0.00    +0.000 A 
ATOM     11  C   UNL     1       1.860  10.000  17.798  0.00  0.00    +0.000 C 
ATOM     12  C   UNL     1       2.158   7.875  19.087  0.00  0.00    +0.000 A 
ENDBRANCH   3   5
BRANCH   1  18
ATOM     13  C   UNL     1       4.872   3.859  17.669  0.00  0.00    +0.000 C 
ATOM     14  O   UNL     1       5.227   3.573  16.526  0.00  0.00    +0.000 OA
ATOM     15  N   UNL     1       4.010   3.055  18.369  0.00  0.00    +0.000 N 
ATOM     16  C   UNL     1       3.469   1.770  17.947  0.00  0.00    +0.000 C 
ATOM     17  C   UNL     1       2.143   2.191  18.575  0.00  0.00    +0.000 C 
ATOM     18  C   UNL     1       2.876   3.378  19.257  0.00  0.00    +0.000 C 
ATOM     19  C   UNL     1       3.249   3.090  20.715  0.00  0.00    +0.000 C 
BRANCH  13  20
ATOM     20  C   UNL     1       5.461   5.030  18.435  0.00  0.00    +0.000 C 
BRANCH  20  22
ATOM     21  C   UNL     1       6.674   6.896  17.259  0.00  0.00    +0.000 C 
ATOM     22  C   UNL     1       5.318   6.344  17.670  0.00  0.00    +0.000 C 
ENDBRANCH  20  22
ENDBRANCH  13  20
ENDBRANCH   1  18
TORSDOF 4
ENDMDL
MODEL 8
REMARK VINA RESULT:      -7.3      1.873      2.277
REMARK  Name = 
REMARK  8 active torsions:
REMARK  status: ('A' for Active; 'I' for Inactive)
REMARK    1  A    between atoms: C_1  and  C_2
REMARK    2  A    between atoms: C_2  and  C_3
REMARK    3  A    between atoms: C_3  and  C_4
REMARK    4  A    between atoms: C_9  and  C_10
REMARK    5  A    between atoms: C_9  and  C_11
REMARK    6  A    between atoms: N_13  and  C_14
REMARK    7  A    between atoms: C_17  and  C_18
REMARK    8  A    between atoms: C_19  and  C_20
REMARK                            x       y       z     vdW  Elec       q    Type
REMARK                         _______ _______ _______ _____ _____    ______ ____
ROOT
ATOM      1  C   UNL     1       2.264   5.101  18.981  0.00  0.00    +0.000 C 
ATOM      2  O   UNL     1       1.761   5.386  17.884  0.00  0.00    +0.000 OA
ATOM      3  N   UNL     1       2.332   5.994  20.047  0.00  0.00    +0.000 N 
ATOM      4  H   UNL     1       2.903   5.729  20.846  0.00  0.00    +0.000 HD
ENDROOT
BRANCH   3   5
ATOM      5  C   UNL     1       1.833   7.319  20.038  0.00  0.00    +0.000 A 
ATOM      6  C   UNL     1       1.984   8.174  18.945  0.00  0.00    +0.000 A 
ATOM      7  C   UNL     1       1.550   9.497  19.007  0.00  0.00    +0.000 A 
ATOM      8  C   UNL     1       0.950  10.007  20.164  0.00  0.00    +0.000 A 
ATOM      9  C   UNL     1       0.568  11.461  20.186  0.00  0.00    +0.000 C 
ATOM     10  C   UNL     1       0.748   9.147  21.260  0.00  0.00    +0.000 A 
ATOM     11  C   UNL     1       0.119   9.610  22.546  0.00  0.00    +0.000 C 
ATOM     12  C   UNL     1       1.176   7.802  21.174  0.00  0.00    +0.000 A 
ENDBRANCH   3   5
BRANCH   1  18
ATOM     13  C   UNL     1       5.199   4.234  18.058  0.00  0.00    +0.000 C 
ATOM     14  O   UNL     1       5.767   3.992  16.993  0.00  0.00    +0.000 OA
ATOM     15  N   UNL     1       4.227   3.404  18.553  0.00  0.00    +0.000 N 
ATOM     16  C   UNL     1       3.787   2.135  17.989  0.00  0.00    +0.000 C 
ATOM     17  C   UNL     1       2.362   2.530  18.370  0.00  0.00    +0.000 C 
ATOM     18  C   UNL     1       2.942   3.692  19.220  0.00  0.00    +0.000 C 
ATOM     19  C   UNL     1       3.035   3.351  20.711  0.00  0.00    +0.000 C 
BRANCH  13  20
ATOM     20  C   UNL     1       5.622   5.377  18.963  0.00  0.00    +0.000 C 
BRANCH  20  22
ATOM     21  C   UNL     1       7.533   6.739  18.052  0.00  0.00    +0.000 C 
ATOM     22  C   UNL     1       7.135   5.583  18.956  0.00  0.00    +0.000 C 
ENDBRANCH  20  22
ENDBRANCH  13  20
ENDBRANCH   1  18
TORSDOF 4
ENDMDL
MODEL 9
REMARK VINA RESULT:      -7.3      1.319      2.006
REMARK  Name = 
REMARK  8 active torsions:
REMARK  status: ('A' for Active; 'I' for Inactive)
REMARK    1  A    between atoms: C_1  and  C_2
REMARK    2  A    between atoms: C_2  and  C_3
REMARK    3  A    between atoms: C_3  and  C_4
REMARK    4  A    between atoms: C_9  and  C_10
REMARK    5  A    between atoms: C_9  and  C_11
REMARK    6  A    between atoms: N_13  and  C_14
REMARK    7  A    between atoms: C_17  and  C_18
REMARK    8  A    between atoms: C_19  and  C_20
REMARK                            x       y       z     vdW  Elec       q    Type
REMARK                         _______ _______ _______ _____ _____    ______ ____
ROOT
ATOM      1  C   UNL     1       2.918   5.388  18.328  0.00  0.00    +0.000 C 
ATOM      2  O   UNL     1       1.844   5.333  17.712  0.00  0.00    +0.000 OA
ATOM      3  N   UNL     1       3.204   6.358  19.285  0.00  0.00    +0.000 N 
ATOM      4  H   UNL     1       4.162   6.422  19.618  0.00  0.00    +0.000 HD
ENDROOT
BRANCH   3   5
ATOM      5  C   UNL     1       2.321   7.387  19.695  0.00  0.00    +0.000 A 
ATOM      6  C   UNL     1       1.636   7.353  20.910  0.00  0.00    +0.000 A 
ATOM      7  C   UNL     1       0.713   8.344  21.240  0.00  0.00    +0.000 A 
ATOM      8  C   UNL     1       0.447   9.402  20.363  0.00  0.00    +0.000 A 
ATOM      9  C   UNL     1      -0.610  10.399  20.751  0.00  0.00    +0.000 C 
ATOM     10  C   UNL     1       1.161   9.478  19.152  0.00  0.00    +0.000 A 
ATOM     11  C   UNL     1       0.935  10.575  18.146  0.00  0.00    +0.000 C 
ATOM     12  C   UNL     1       2.108   8.475  18.842  0.00  0.00    +0.000 A 
ENDBRANCH   3   5
BRANCH   1  18
ATOM     13  C   UNL     1       5.366   5.902  16.337  0.00  0.00    +0.000 C 
ATOM     14  O   UNL     1       5.522   6.006  15.120  0.00  0.00    +0.000 OA
ATOM     15  N   UNL     1       5.027   4.705  16.912  0.00  0.00    +0.000 N 
ATOM     16  C   UNL     1       4.889   3.418  16.245  0.00  0.00    +0.000 C 
ATOM     17  C   UNL     1       3.684   3.151  17.144  0.00  0.00    +0.000 C 
ATOM     18  C   UNL     1       4.091   4.376  18.005  0.00  0.00    +0.000 C 
ATOM     19  C   UNL     1       4.870   3.985  19.266  0.00  0.00    +0.000 C 
BRANCH  13  20
ATOM     20  C   UNL     1       5.667   7.041  17.295  0.00  0.00    +0.000 C 
BRANCH  20  22
ATOM     21  C   UNL     1       7.755   6.438  18.565  0.00  0.00    +0.000 C 
ATOM     22  C   UNL     1       7.168   7.281  17.444  0.00  0.00    +0.000 C 
ENDBRANCH  20  22
ENDBRANCH  13  20
ENDBRANCH   1  18
TORSDOF 4
ENDMDL
