MODEL 1
REMARK VINA RESULT:      -7.7      0.000      0.000
REMARK  Name = 
REMARK  6 active torsions:
REMARK  status: ('A' for Active; 'I' for Inactive)
REMARK    1  A    between atoms: C_1  and  N_2
REMARK    2  A    between atoms: C_9  and  C_11
REMARK    3  A    between atoms: C_15  and  C_16
REMARK    4  A    between atoms: C_20  and  C_21
REMARK    5  A    between atoms: N_23  and  C_24
REMARK    6  A    between atoms: C_27  and  C_28
REMARK                            x       y       z     vdW  Elec       q    Type
REMARK                         _______ _______ _______ _____ _____    ______ ____
ROOT
ATOM      1  C   UNL     1       1.132  10.695  18.633  0.00  0.00    +0.000 A 
ATOM      2  C   UNL     1      -0.237  10.953  18.540  0.00  0.00    +0.000 A 
ATOM      3  C   UNL     1      -0.701  12.256  18.705  0.00  0.00    +0.000 A 
ATOM      4  C   UNL     1       0.197  13.293  18.965  0.00  0.00    +0.000 A 
ATOM      5  C   UNL     1       1.577  13.052  19.110  0.00  0.00    +0.000 A 
ATOM      6  C   UNL     1       2.027  11.735  18.940  0.00  0.00    +0.000 A 
ENDROOT
BRANCH   1  15
ATOM      7  C   UNL     1       4.356   1.565  19.546  0.00  0.00    +0.000 C 
ATOM      8  N   UNL     1       3.862   2.863  19.998  0.00  0.00    +0.000 NA
ATOM      9  C   UNL     1       2.550   2.736  20.677  0.00  0.00    +0.000 C 
ATOM     10  C   UNL     1       2.120   4.067  21.347  0.00  0.00    +0.000 C 
ATOM     11  C   UNL     1       2.324   5.201  20.404  0.00  0.00    +0.000 A 
ATOM     12  N   UNL     1       1.776   6.453  20.601  0.00  0.00    +0.000 NA
ATOM     13  C   UNL     1       2.095   7.219  19.580  0.00  0.00    +0.000 A 
ATOM     14  N   UNL     1       1.672   8.521  19.515  0.00  0.00    +0.000 N 
ATOM     15  C   UNL     1       1.691   9.333  18.405  0.00  0.00    +0.000 C 
ATOM     16  O   UNL     1       2.036   9.038  17.267  0.00  0.00    +0.000 OA
ATOM     17  S   UNL     1       3.107   6.518  18.394  0.00  0.00    +0.000 S 
ATOM     18  C   UNL     1       3.102   5.067  19.274  0.00  0.00    +0.000 A 
ATOM     19  C   UNL     1       3.788   3.811  18.858  0.00  0.00    +0.000 C 
ATOM     20  H   UNL     1       1.157   8.803  20.337  0.00  0.00    +0.000 HD
ENDBRANCH   1  15
BRANCH   5  21
ATOM     21  C   UNL     1       2.509  14.238  19.369  0.00  0.00    +0.000 C 
ATOM     22  C   UNL     1       1.743  15.556  19.577  0.00  0.00    +0.000 C 
ATOM     23  N   UNL     1       1.348  15.544  20.995  0.00  0.00    +0.000 NA
ATOM     24  C   UNL     1       2.426  14.839  21.710  0.00  0.00    +0.000 C 
ATOM     25  C   UNL     1       3.349  14.207  20.663  0.00  0.00    +0.000 C 
ATOM     26  H   UNL     1       0.489  14.994  21.076  0.00  0.00    +0.000 HD
BRANCH  25  27
ATOM     27  C   UNL     1       4.637  15.017  20.502  0.00  0.00    +0.000 C 
ATOM     28  O   UNL     1       5.112  15.649  21.442  0.00  0.00    +0.000 OA
ATOM     29  N   UNL     1       5.148  15.018  19.212  0.00  0.00    +0.000 N 
ATOM     30  H   UNL     1       4.551  14.670  18.470  0.00  0.00    +0.000 HD
BRANCH  29  31
ATOM     31  C   UNL     1       6.386  15.570  18.822  0.00  0.00    +0.000 A 
ATOM     32  C   UNL     1       6.637  16.946  18.826  0.00  0.00    +0.000 A 
ATOM     33  C   UNL     1       7.879  17.452  18.428  0.00  0.00    +0.000 A 
ATOM     34  C   UNL     1       8.893  16.582  18.026  0.00  0.00    +0.000 A 
ATOM     35  C   UNL     1       8.661  15.205  18.037  0.00  0.00    +0.000 A 
ATOM     36  C   UNL     1       7.415  14.701  18.442  0.00  0.00    +0.000 A 
BRANCH  34  37
ATOM     37  C   UNL     1      10.162  17.107  17.611  0.00  0.00    +0.000 C 
ATOM     38  N   UNL     1      11.188  17.537  17.279  0.00  0.00    +0.000 NA
ENDBRANCH  34  37
ENDBRANCH  29  31
ENDBRANCH  25  27
ENDBRANCH   5  21
TORSDOF 5
ENDMDL
MODEL 2
REMARK VINA RESULT:      -7.4      1.439      1.775
REMARK  Name = 
REMARK  6 active torsions:
REMARK  status: ('A' for Active; 'I' for Inactive)
REMARK    1  A    between atoms: C_1  and  N_2
REMARK    2  A    between atoms: C_9  and  C_11
REMARK    3  A    between atoms: C_15  and  C_16
REMARK    4  A    between atoms: C_20  and  C_21
REMARK    5  A    between atoms: N_23  and  C_24
REMARK    6  A    between atoms: C_27  and  C_28
REMARK                            x       y       z     vdW  Elec       q    Type
REMARK                         _______ _______ _______ _____ _____    ______ ____
ROOT
ATOM      1  C   UNL     1       0.518  11.063  19.222  0.00  0.00    +0.000 A 
ATOM      2  C   UNL     1      -0.766  11.226  18.694  0.00  0.00    +0.000 A 
ATOM      3  C   UNL     1      -1.159  12.477  18.228  0.00  0.00    +0.000 A 
ATOM      4  C   UNL     1      -0.279  13.560  18.291  0.00  0.00    +0.000 A 
ATOM      5  C   UNL     1       1.002  13.432  18.861  0.00  0.00    +0.000 A 
ATOM      6  C   UNL     1       1.383  12.165  19.325  0.00  0.00    +0.000 A 
ENDROOT
BRANCH   1  15
ATOM      7  C   UNL     1       4.413   2.173  19.845  0.00  0.00    +0.000 C 
ATOM      8  N   UNL     1       3.929   3.380  19.181  0.00  0.00    +0.000 NA
ATOM      9  C   UNL     1       5.024   4.087  18.475  0.00  0.00    +0.000 C 
ATOM     10  C   UNL     1       4.487   5.244  17.594  0.00  0.00    +0.000 C 
ATOM     11  C   UNL     1       3.499   6.052  18.360  0.00  0.00    +0.000 A 
ATOM     12  N   UNL     1       3.067   7.298  17.953  0.00  0.00    +0.000 NA
ATOM     13  C   UNL     1       2.238   7.775  18.857  0.00  0.00    +0.000 A 
ATOM     14  N   UNL     1       1.661   9.009  18.705  0.00  0.00    +0.000 N 
ATOM     15  C   UNL     1       1.015   9.734  19.679  0.00  0.00    +0.000 C 
ATOM     16  O   UNL     1       0.878   9.445  20.861  0.00  0.00    +0.000 OA
ATOM     17  S   UNL     1       1.885   6.747  20.177  0.00  0.00    +0.000 S 
ATOM     18  C   UNL     1       2.938   5.584  19.528  0.00  0.00    +0.000 A 
ATOM     19  C   UNL     1       3.256   4.271  20.159  0.00  0.00    +0.000 C 
ATOM     20  H   UNL     1       1.908   9.447  17.829  0.00  0.00    +0.000 HD
ENDBRANCH   1  15
BRANCH   5  21
ATOM     21  C   UNL     1       1.926  14.653  18.876  0.00  0.00    +0.000 C 
ATOM     22  C   UNL     1       1.155  15.978  18.757  0.00  0.00    +0.000 C 
ATOM     23  N   UNL     1       0.714  16.283  20.127  0.00  0.00    +0.000 NA
ATOM     24  C   UNL     1       1.767  15.765  21.017  0.00  0.00    +0.000 C 
ATOM     25  C   UNL     1       2.723  14.919  20.170  0.00  0.00    +0.000 C 
ATOM     26  H   UNL     1      -0.148  15.760  20.303  0.00  0.00    +0.000 HD
BRANCH  25  27
ATOM     27  C   UNL     1       4.016  15.681  19.872  0.00  0.00    +0.000 C 
ATOM     28  O   UNL     1       4.043  16.909  19.859  0.00  0.00    +0.000 OA
ATOM     29  N   UNL     1       5.095  14.864  19.563  0.00  0.00    +0.000 N 
ATOM     30  H   UNL     1       4.905  13.889  19.366  0.00  0.00    +0.000 HD
BRANCH  29  31
ATOM     31  C   UNL     1       6.424  15.299  19.381  0.00  0.00    +0.000 A 
ATOM     32  C   UNL     1       7.268  15.626  20.448  0.00  0.00    +0.000 A 
ATOM     33  C   UNL     1       8.579  16.058  20.224  0.00  0.00    +0.000 A 
ATOM     34  C   UNL     1       9.068  16.161  18.921  0.00  0.00    +0.000 A 
ATOM     35  C   UNL     1       8.242  15.820  17.848  0.00  0.00    +0.000 A 
ATOM     36  C   UNL     1       6.928  15.382  18.078  0.00  0.00    +0.000 A 
BRANCH  34  37
ATOM     37  C   UNL     1      10.411  16.613  18.695  0.00  0.00    +0.000 C 
ATOM     38  N   UNL     1      11.500  16.972  18.516  0.00  0.00    +0.000 NA
ENDBRANCH  34  37
ENDBRANCH  29  31
ENDBRANCH  25  27
ENDBRANCH   5  21
TORSDOF 5
ENDMDL
MODEL 3
REMARK VINA RESULT:      -7.4      2.496      9.969
REMARK  Name = 
REMARK  6 active torsions:
REMARK  status: ('A' for Active; 'I' for Inactive)
REMARK    1  A    between atoms: C_1  and  N_2
REMARK    2  A    between atoms: C_9  and  C_11
REMARK    3  A    between atoms: C_15  and  C_16
REMARK    4  A    between atoms: C_20  and  C_21
REMARK    5  A    between atoms: N_23  and  C_24
REMARK    6  A    between atoms: C_27  and  C_28
REMARK                            x       y       z     vdW  Elec       q    Type
REMARK                         _______ _______ _______ _____ _____    ______ ____
ROOT
ATOM      1  C   UNL     1       2.012  15.208  18.866  0.00  0.00    +0.000 A 
ATOM      2  C   UNL     1       0.828  15.934  18.713  0.00  0.00    +0.000 A 
ATOM      3  C   UNL     1      -0.394  15.302  18.926  0.00  0.00    +0.000 A 
ATOM      4  C   UNL     1      -0.435  13.953  19.283  0.00  0.00    +0.000 A 
ATOM      5  C   UNL     1       0.742  13.187  19.398  0.00  0.00    +0.000 A 
ATOM      6  C   UNL     1       1.964  13.840  19.182  0.00  0.00    +0.000 A 
ENDROOT
BRANCH   1  15
ATOM      7  C   UNL     1      11.535  17.094  18.283  0.00  0.00    +0.000 C 
ATOM      8  N   UNL     1      10.341  16.296  18.547  0.00  0.00    +0.000 NA
ATOM      9  C   UNL     1      10.259  15.128  17.636  0.00  0.00    +0.000 C 
ATOM     10  C   UNL     1       9.118  14.161  18.045  0.00  0.00    +0.000 C 
ATOM     11  C   UNL     1       7.875  14.929  18.327  0.00  0.00    +0.000 A 
ATOM     12  N   UNL     1       6.632  14.339  18.433  0.00  0.00    +0.000 NA
ATOM     13  C   UNL     1       5.734  15.278  18.638  0.00  0.00    +0.000 A 
ATOM     14  N   UNL     1       4.405  14.968  18.775  0.00  0.00    +0.000 N 
ATOM     15  C   UNL     1       3.350  15.847  18.712  0.00  0.00    +0.000 C 
ATOM     16  O   UNL     1       3.388  17.048  18.474  0.00  0.00    +0.000 OA
ATOM     17  S   UNL     1       6.327  16.875  18.782  0.00  0.00    +0.000 S 
ATOM     18  C   UNL     1       7.900  16.294  18.520  0.00  0.00    +0.000 A 
ATOM     19  C   UNL     1       9.125  17.140  18.448  0.00  0.00    +0.000 C 
ATOM     20  H   UNL     1       4.235  13.973  18.751  0.00  0.00    +0.000 HD
ENDBRANCH   1  15
BRANCH   5  21
ATOM     21  C   UNL     1       0.628  11.720  19.818  0.00  0.00    +0.000 C 
ATOM     22  C   UNL     1      -0.807  11.327  20.206  0.00  0.00    +0.000 C 
ATOM     23  N   UNL     1      -1.474  11.023  18.930  0.00  0.00    +0.000 NA
ATOM     24  C   UNL     1      -0.435  10.451  18.057  0.00  0.00    +0.000 C 
ATOM     25  C   UNL     1       0.919  10.652  18.744  0.00  0.00    +0.000 C 
ATOM     26  H   UNL     1      -1.792  11.907  18.524  0.00  0.00    +0.000 HD
BRANCH  25  27
ATOM     27  C   UNL     1       1.413   9.351  19.380  0.00  0.00    +0.000 C 
ATOM     28  O   UNL     1       1.245   9.124  20.575  0.00  0.00    +0.000 OA
ATOM     29  N   UNL     1       2.107   8.524  18.508  0.00  0.00    +0.000 N 
ATOM     30  H   UNL     1       2.396   8.914  17.619  0.00  0.00    +0.000 HD
BRANCH  29  31
ATOM     31  C   UNL     1       2.550   7.217  18.800  0.00  0.00    +0.000 A 
ATOM     32  C   UNL     1       2.089   6.488  19.902  0.00  0.00    +0.000 A 
ATOM     33  C   UNL     1       2.558   5.195  20.157  0.00  0.00    +0.000 A 
ATOM     34  C   UNL     1       3.493   4.609  19.304  0.00  0.00    +0.000 A 
ATOM     35  C   UNL     1       3.947   5.319  18.190  0.00  0.00    +0.000 A 
ATOM     36  C   UNL     1       3.470   6.614  17.934  0.00  0.00    +0.000 A 
BRANCH  34  37
ATOM     37  C   UNL     1       3.978   3.286  19.575  0.00  0.00    +0.000 C 
ATOM     38  N   UNL     1       4.376   2.217  19.792  0.00  0.00    +0.000 NA
ENDBRANCH  34  37
ENDBRANCH  29  31
ENDBRANCH  25  27
ENDBRANCH   5  21
TORSDOF 5
ENDMDL
MODEL 4
REMARK VINA RESULT:      -7.3      5.602     10.990
REMARK  Name = 
REMARK  6 active torsions:
REMARK  status: ('A' for Active; 'I' for Inactive)
REMARK    1  A    between atoms: C_1  and  N_2
REMARK    2  A    between atoms: C_9  and  C_11
REMARK    3  A    between atoms: C_15  and  C_16
REMARK    4  A    between atoms: C_20  and  C_21
REMARK    5  A    between atoms: N_23  and  C_24
REMARK    6  A    between atoms: C_27  and  C_28
REMARK                            x       y       z     vdW  Elec       q    Type
REMARK                         _______ _______ _______ _____ _____    ______ ____
ROOT
ATOM      1  C   UNL     1      -3.224  11.733  18.536  0.00  0.00    +0.000 A 
ATOM      2  C   UNL     1      -3.694  11.267  17.306  0.00  0.00    +0.000 A 
ATOM      3  C   UNL     1      -2.950  10.324  16.602  0.00  0.00    +0.000 A 
ATOM      4  C   UNL     1      -1.742   9.853  17.120  0.00  0.00    +0.000 A 
ATOM      5  C   UNL     1      -1.223  10.342  18.335  0.00  0.00    +0.000 A 
ATOM      6  C   UNL     1      -1.986  11.290  19.032  0.00  0.00    +0.000 A 
ENDROOT
BRANCH   1  15
ATOM      7  C   UNL     1      -6.118  18.605  24.780  0.00  0.00    +0.000 C 
ATOM      8  N   UNL     1      -5.180  17.692  24.133  0.00  0.00    +0.000 NA
ATOM      9  C   UNL     1      -4.107  18.431  23.424  0.00  0.00    +0.000 C 
ATOM     10  C   UNL     1      -2.993  17.479  22.918  0.00  0.00    +0.000 C 
ATOM     11  C   UNL     1      -3.599  16.294  22.250  0.00  0.00    +0.000 A 
ATOM     12  N   UNL     1      -2.877  15.426  21.456  0.00  0.00    +0.000 NA
ATOM     13  C   UNL     1      -3.695  14.514  20.976  0.00  0.00    +0.000 A 
ATOM     14  N   UNL     1      -3.239  13.524  20.145  0.00  0.00    +0.000 N 
ATOM     15  C   UNL     1      -4.008  12.695  19.362  0.00  0.00    +0.000 C 
ATOM     16  O   UNL     1      -5.224  12.715  19.220  0.00  0.00    +0.000 OA
ATOM     17  S   UNL     1      -5.321  14.606  21.495  0.00  0.00    +0.000 S 
ATOM     18  C   UNL     1      -4.933  15.984  22.407  0.00  0.00    +0.000 A 
ATOM     19  C   UNL     1      -5.902  16.778  23.213  0.00  0.00    +0.000 C 
ATOM     20  H   UNL     1      -2.239  13.563  20.007  0.00  0.00    +0.000 HD
ENDBRANCH   1  15
BRANCH   5  21
ATOM     21  C   UNL     1       0.094   9.764  18.860  0.00  0.00    +0.000 C 
ATOM     22  C   UNL     1       1.301  10.659  18.533  0.00  0.00    +0.000 C 
ATOM     23  N   UNL     1       1.315  11.678  19.594  0.00  0.00    +0.000 NA
ATOM     24  C   UNL     1       0.809  11.009  20.805  0.00  0.00    +0.000 C 
ATOM     25  C   UNL     1       0.253   9.644  20.389  0.00  0.00    +0.000 C 
ATOM     26  H   UNL     1       0.657  12.415  19.329  0.00  0.00    +0.000 HD
BRANCH  25  27
ATOM     27  C   UNL     1       1.225   8.519  20.754  0.00  0.00    +0.000 C 
ATOM     28  O   UNL     1       1.863   8.545  21.803  0.00  0.00    +0.000 OA
ATOM     29  N   UNL     1       1.353   7.543  19.776  0.00  0.00    +0.000 N 
ATOM     30  H   UNL     1       0.971   7.743  18.859  0.00  0.00    +0.000 HD
BRANCH  29  31
ATOM     31  C   UNL     1       2.074   6.338  19.912  0.00  0.00    +0.000 A 
ATOM     32  C   UNL     1       1.605   5.254  20.662  0.00  0.00    +0.000 A 
ATOM     33  C   UNL     1       2.354   4.079  20.776  0.00  0.00    +0.000 A 
ATOM     34  C   UNL     1       3.585   3.969  20.128  0.00  0.00    +0.000 A 
ATOM     35  C   UNL     1       4.055   5.036  19.360  0.00  0.00    +0.000 A 
ATOM     36  C   UNL     1       3.298   6.213  19.245  0.00  0.00    +0.000 A 
BRANCH  34  37
ATOM     37  C   UNL     1       4.354   2.764  20.254  0.00  0.00    +0.000 C 
ATOM     38  N   UNL     1       4.970   1.785  20.354  0.00  0.00    +0.000 NA
ENDBRANCH  34  37
ENDBRANCH  29  31
ENDBRANCH  25  27
ENDBRANCH   5  21
TORSDOF 5
ENDMDL
MODEL 5
REMARK VINA RESULT:      -7.3      3.890      7.921
REMARK  Name = 
REMARK  6 active torsions:
REMARK  status: ('A' for Active; 'I' for Inactive)
REMARK    1  A    between atoms: C_1  and  N_2
REMARK    2  A    between atoms: C_9  and  C_11
REMARK    3  A    between atoms: C_15  and  C_16
REMARK    4  A    between atoms: C_20  and  C_21
REMARK    5  A    between atoms: N_23  and  C_24
REMARK    6  A    between atoms: C_27  and  C_28
REMARK                            x       y       z     vdW  Elec       q    Type
REMARK                         _______ _______ _______ _____ _____    ______ ____
ROOT
ATOM      1  C   UNL     1       2.562   5.599  19.729  0.00  0.00    +0.000 A 
ATOM      2  C   UNL     1       2.257   4.256  19.497  0.00  0.00    +0.000 A 
ATOM      3  C   UNL     1       3.188   3.444  18.854  0.00  0.00    +0.000 A 
ATOM      4  C   UNL     1       4.413   3.971  18.440  0.00  0.00    +0.000 A 
ATOM      5  C   UNL     1       4.726   5.332  18.621  0.00  0.00    +0.000 A 
ATOM      6  C   UNL     1       3.778   6.135  19.271  0.00  0.00    +0.000 A 
ENDROOT
BRANCH   1  15
ATOM      7  C   UNL     1      -2.218  13.223  23.417  0.00  0.00    +0.000 C 
ATOM      8  N   UNL     1      -1.167  12.532  22.676  0.00  0.00    +0.000 NA
ATOM      9  C   UNL     1      -1.192  12.890  21.238  0.00  0.00    +0.000 C 
ATOM     10  C   UNL     1       0.044  12.334  20.486  0.00  0.00    +0.000 C 
ATOM     11  C   UNL     1       0.270  10.910  20.859  0.00  0.00    +0.000 A 
ATOM     12  N   UNL     1       1.105  10.069  20.151  0.00  0.00    +0.000 NA
ATOM     13  C   UNL     1       1.059   8.872  20.695  0.00  0.00    +0.000 A 
ATOM     14  N   UNL     1       1.794   7.835  20.183  0.00  0.00    +0.000 N 
ATOM     15  C   UNL     1       1.632   6.499  20.467  0.00  0.00    +0.000 C 
ATOM     16  O   UNL     1       0.780   5.983  21.180  0.00  0.00    +0.000 OA
ATOM     17  S   UNL     1       0.089   8.712  22.094  0.00  0.00    +0.000 S 
ATOM     18  C   UNL     1      -0.339  10.350  21.961  0.00  0.00    +0.000 A 
ATOM     19  C   UNL     1      -1.281  11.065  22.868  0.00  0.00    +0.000 C 
ATOM     20  H   UNL     1       2.379   8.118  19.410  0.00  0.00    +0.000 HD
ENDBRANCH   1  15
BRANCH   5  21
ATOM     21  C   UNL     1       6.098   5.840  18.168  0.00  0.00    +0.000 C 
ATOM     22  C   UNL     1       6.917   4.758  17.444  0.00  0.00    +0.000 C 
ATOM     23  N   UNL     1       6.436   4.787  16.054  0.00  0.00    +0.000 NA
ATOM     24  C   UNL     1       6.084   6.190  15.776  0.00  0.00    +0.000 C 
ATOM     25  C   UNL     1       6.121   6.955  17.102  0.00  0.00    +0.000 C 
ATOM     26  H   UNL     1       5.585   4.221  16.004  0.00  0.00    +0.000 HD
BRANCH  25  27
ATOM     27  C   UNL     1       7.394   7.798  17.217  0.00  0.00    +0.000 C 
ATOM     28  O   UNL     1       8.430   7.464  16.649  0.00  0.00    +0.000 OA
ATOM     29  N   UNL     1       7.271   8.896  18.056  0.00  0.00    +0.000 N 
ATOM     30  H   UNL     1       6.456   8.940  18.657  0.00  0.00    +0.000 HD
BRANCH  29  31
ATOM     31  C   UNL     1       8.242   9.904  18.231  0.00  0.00    +0.000 A 
ATOM     32  C   UNL     1       9.347   9.754  19.076  0.00  0.00    +0.000 A 
ATOM     33  C   UNL     1      10.284  10.780  19.225  0.00  0.00    +0.000 A 
ATOM     34  C   UNL     1      10.132  11.974  18.520  0.00  0.00    +0.000 A 
ATOM     35  C   UNL     1       9.044  12.130  17.659  0.00  0.00    +0.000 A 
ATOM     36  C   UNL     1       8.107  11.095  17.509  0.00  0.00    +0.000 A 
BRANCH  34  37
ATOM     37  C   UNL     1      11.092  13.028  18.682  0.00  0.00    +0.000 C 
ATOM     38  N   UNL     1      11.869  13.882  18.806  0.00  0.00    +0.000 NA
ENDBRANCH  34  37
ENDBRANCH  29  31
ENDBRANCH  25  27
ENDBRANCH   5  21
TORSDOF 5
ENDMDL
MODEL 6
REMARK VINA RESULT:      -7.3      5.779     10.516
REMARK  Name = 
REMARK  6 active torsions:
REMARK  status: ('A' for Active; 'I' for Inactive)
REMARK    1  A    between atoms: C_1  and  N_2
REMARK    2  A    between atoms: C_9  and  C_11
REMARK    3  A    between atoms: C_15  and  C_16
REMARK    4  A    between atoms: C_20  and  C_21
REMARK    5  A    between atoms: N_23  and  C_24
REMARK    6  A    between atoms: C_27  and  C_28
REMARK                            x       y       z     vdW  Elec       q    Type
REMARK                         _______ _______ _______ _____ _____    ______ ____
ROOT
ATOM      1  C   UNL     1      -3.477  12.027  19.116  0.00  0.00    +0.000 A 
ATOM      2  C   UNL     1      -4.198  11.440  18.074  0.00  0.00    +0.000 A 
ATOM      3  C   UNL     1      -3.591  10.467  17.285  0.00  0.00    +0.000 A 
ATOM      4  C   UNL     1      -2.270  10.086  17.532  0.00  0.00    +0.000 A 
ATOM      5  C   UNL     1      -1.507  10.696  18.546  0.00  0.00    +0.000 A 
ATOM      6  C   UNL     1      -2.134  11.673  19.332  0.00  0.00    +0.000 A 
ENDROOT
BRANCH   1  15
ATOM      7  C   UNL     1      -5.244  18.631  26.034  0.00  0.00    +0.000 C 
ATOM      8  N   UNL     1      -4.472  17.630  25.304  0.00  0.00    +0.000 NA
ATOM      9  C   UNL     1      -3.257  18.222  24.694  0.00  0.00    +0.000 C 
ATOM     10  C   UNL     1      -2.324  17.134  24.102  0.00  0.00    +0.000 C 
ATOM     11  C   UNL     1      -3.118  16.162  23.301  0.00  0.00    +0.000 A 
ATOM     12  N   UNL     1      -2.545  15.260  22.427  0.00  0.00    +0.000 NA
ATOM     13  C   UNL     1      -3.502  14.576  21.839  0.00  0.00    +0.000 A 
ATOM     14  N   UNL     1      -3.211  13.610  20.911  0.00  0.00    +0.000 N 
ATOM     15  C   UNL     1      -4.095  13.028  20.032  0.00  0.00    +0.000 C 
ATOM     16  O   UNL     1      -5.280  13.293  19.876  0.00  0.00    +0.000 OA
ATOM     17  S   UNL     1      -5.099  14.919  22.343  0.00  0.00    +0.000 S 
ATOM     18  C   UNL     1      -4.490  16.096  23.405  0.00  0.00    +0.000 A 
ATOM     19  C   UNL     1      -5.321  16.971  24.280  0.00  0.00    +0.000 C 
ATOM     20  H   UNL     1      -2.217  13.472  20.792  0.00  0.00    +0.000 HD
ENDBRANCH   1  15
BRANCH   5  21
ATOM     21  C   UNL     1      -0.073  10.213  18.780  0.00  0.00    +0.000 C 
ATOM     22  C   UNL     1       0.911  11.374  19.002  0.00  0.00    +0.000 C 
ATOM     23  N   UNL     1       0.782  11.711  20.429  0.00  0.00    +0.000 NA
ATOM     24  C   UNL     1       0.490  10.443  21.120  0.00  0.00    +0.000 C 
ATOM     25  C   UNL     1       0.195   9.384  20.053  0.00  0.00    +0.000 C 
ATOM     26  H   UNL     1      -0.025  12.332  20.532  0.00  0.00    +0.000 HD
BRANCH  25  27
ATOM     27  C   UNL     1       1.390   8.449  19.859  0.00  0.00    +0.000 C 
ATOM     28  O   UNL     1       2.035   8.033  20.818  0.00  0.00    +0.000 OA
ATOM     29  N   UNL     1       1.696   8.190  18.530  0.00  0.00    +0.000 N 
ATOM     30  H   UNL     1       1.258   8.771  17.825  0.00  0.00    +0.000 HD
BRANCH  29  31
ATOM     31  C   UNL     1       2.658   7.263  18.078  0.00  0.00    +0.000 A 
ATOM     32  C   UNL     1       2.558   5.888  18.320  0.00  0.00    +0.000 A 
ATOM     33  C   UNL     1       3.537   5.003  17.857  0.00  0.00    +0.000 A 
ATOM     34  C   UNL     1       4.631   5.484  17.136  0.00  0.00    +0.000 A 
ATOM     35  C   UNL     1       4.732   6.851  16.872  0.00  0.00    +0.000 A 
ATOM     36  C   UNL     1       3.744   7.736  17.334  0.00  0.00    +0.000 A 
BRANCH  34  37
ATOM     37  C   UNL     1       5.637   4.573  16.670  0.00  0.00    +0.000 C 
ATOM     38  N   UNL     1       6.446   3.833  16.289  0.00  0.00    +0.000 NA
ENDBRANCH  34  37
ENDBRANCH  29  31
ENDBRANCH  25  27
ENDBRANCH   5  21
TORSDOF 5
ENDMDL
MODEL 7
REMARK VINA RESULT:      -7.0      2.427     10.360
REMARK  Name = 
REMARK  6 active torsions:
REMARK  status: ('A' for Active; 'I' for Inactive)
REMARK    1  A    between atoms: C_1  and  N_2
REMARK    2  A    between atoms: C_9  and  C_11
REMARK    3  A    between atoms: C_15  and  C_16
REMARK    4  A    between atoms: C_20  and  C_21
REMARK    5  A    between atoms: N_23  and  C_24
REMARK    6  A    between atoms: C_27  and  C_28
REMARK                            x       y       z     vdW  Elec       q    Type
REMARK                         _______ _______ _______ _____ _____    ______ ____
ROOT
ATOM      1  C   UNL     1       1.711  14.201  20.395  0.00  0.00    +0.000 A 
ATOM      2  C   UNL     1       0.498  14.893  20.366  0.00  0.00    +0.000 A 
ATOM      3  C   UNL     1      -0.689  14.186  20.200  0.00  0.00    +0.000 A 
ATOM      4  C   UNL     1      -0.666  12.796  20.058  0.00  0.00    +0.000 A 
ATOM      5  C   UNL     1       0.547  12.080  20.038  0.00  0.00    +0.000 A 
ATOM      6  C   UNL     1       1.733  12.809  20.208  0.00  0.00    +0.000 A 
ENDROOT
BRANCH   1  15
ATOM      7  C   UNL     1      10.846  17.507  19.944  0.00  0.00    +0.000 C 
ATOM      8  N   UNL     1       9.705  16.671  19.583  0.00  0.00    +0.000 NA
ATOM      9  C   UNL     1       9.281  16.908  18.182  0.00  0.00    +0.000 C 
ATOM     10  C   UNL     1       8.216  15.880  17.723  0.00  0.00    +0.000 C 
ATOM     11  C   UNL     1       7.164  15.734  18.767  0.00  0.00    +0.000 A 
ATOM     12  N   UNL     1       5.951  15.119  18.534  0.00  0.00    +0.000 NA
ATOM     13  C   UNL     1       5.225  15.188  19.629  0.00  0.00    +0.000 A 
ATOM     14  N   UNL     1       3.961  14.657  19.673  0.00  0.00    +0.000 N 
ATOM     15  C   UNL     1       3.006  14.899  20.633  0.00  0.00    +0.000 C 
ATOM     16  O   UNL     1       3.081  15.662  21.588  0.00  0.00    +0.000 OA
ATOM     17  S   UNL     1       5.968  15.915  20.986  0.00  0.00    +0.000 S 
ATOM     18  C   UNL     1       7.356  16.196  20.051  0.00  0.00    +0.000 A 
ATOM     19  C   UNL     1       8.583  16.895  20.529  0.00  0.00    +0.000 C 
ATOM     20  H   UNL     1       3.707  14.188  18.815  0.00  0.00    +0.000 HD
ENDBRANCH   1  15
BRANCH   5  21
ATOM     21  C   UNL     1       0.501  10.556  19.905  0.00  0.00    +0.000 C 
ATOM     22  C   UNL     1      -0.849  10.052  19.370  0.00  0.00    +0.000 C 
ATOM     23  N   UNL     1      -0.750  10.185  17.908  0.00  0.00    +0.000 NA
ATOM     24  C   UNL     1       0.663   9.939  17.574  0.00  0.00    +0.000 C 
ATOM     25  C   UNL     1       1.456   9.907  18.884  0.00  0.00    +0.000 C 
ATOM     26  H   UNL     1      -0.979  11.152  17.665  0.00  0.00    +0.000 HD
BRANCH  25  27
ATOM     27  C   UNL     1       1.798   8.470  19.286  0.00  0.00    +0.000 C 
ATOM     28  O   UNL     1       1.661   8.085  20.444  0.00  0.00    +0.000 OA
ATOM     29  N   UNL     1       2.326   7.705  18.256  0.00  0.00    +0.000 N 
ATOM     30  H   UNL     1       2.620   8.187  17.415  0.00  0.00    +0.000 HD
BRANCH  29  31
ATOM     31  C   UNL     1       2.598   6.322  18.321  0.00  0.00    +0.000 A 
ATOM     32  C   UNL     1       1.678   5.348  17.920  0.00  0.00    +0.000 A 
ATOM     33  C   UNL     1       1.987   3.987  18.005  0.00  0.00    +0.000 A 
ATOM     34  C   UNL     1       3.231   3.581  18.489  0.00  0.00    +0.000 A 
ATOM     35  C   UNL     1       4.166   4.544  18.875  0.00  0.00    +0.000 A 
ATOM     36  C   UNL     1       3.853   5.910  18.783  0.00  0.00    +0.000 A 
BRANCH  34  37
ATOM     37  C   UNL     1       3.541   2.183  18.583  0.00  0.00    +0.000 C 
ATOM     38  N   UNL     1       3.785   1.051  18.662  0.00  0.00    +0.000 NA
ENDBRANCH  34  37
ENDBRANCH  29  31
ENDBRANCH  25  27
ENDBRANCH   5  21
TORSDOF 5
ENDMDL
MODEL 8
REMARK VINA RESULT:      -7.0      2.394     10.275
REMARK  Name = 
REMARK  6 active torsions:
REMARK  status: ('A' for Active; 'I' for Inactive)
REMARK    1  A    between atoms: C_1  and  N_2
REMARK    2  A    between atoms: C_9  and  C_11
REMARK    3  A    between atoms: C_15  and  C_16
REMARK    4  A    between atoms: C_20  and  C_21
REMARK    5  A    between atoms: N_23  and  C_24
REMARK    6  A    between atoms: C_27  and  C_28
REMARK                            x       y       z     vdW  Elec       q    Type
REMARK                         _______ _______ _______ _____ _____    ______ ____
ROOT
ATOM      1  C   UNL     1       2.025  14.191  20.444  0.00  0.00    +0.000 A 
ATOM      2  C   UNL     1       1.171  14.660  21.445  0.00  0.00    +0.000 A 
ATOM      3  C   UNL     1       0.223  13.802  21.994  0.00  0.00    +0.000 A 
ATOM      4  C   UNL     1       0.124  12.483  21.543  0.00  0.00    +0.000 A 
ATOM      5  C   UNL     1       0.941  11.999  20.503  0.00  0.00    +0.000 A 
ATOM      6  C   UNL     1       1.892  12.877  19.963  0.00  0.00    +0.000 A 
ENDROOT
BRANCH   1  15
ATOM      7  C   UNL     1      10.464  18.453  18.164  0.00  0.00    +0.000 C 
ATOM      8  N   UNL     1       9.564  17.577  18.908  0.00  0.00    +0.000 NA
ATOM      9  C   UNL     1       9.954  16.153  18.767  0.00  0.00    +0.000 C 
ATOM     10  C   UNL     1       9.141  15.239  19.720  0.00  0.00    +0.000 C 
ATOM     11  C   UNL     1       7.696  15.589  19.653  0.00  0.00    +0.000 A 
ATOM     12  N   UNL     1       6.700  14.777  20.159  0.00  0.00    +0.000 NA
ATOM     13  C   UNL     1       5.534  15.332  19.907  0.00  0.00    +0.000 A 
ATOM     14  N   UNL     1       4.366  14.730  20.297  0.00  0.00    +0.000 N 
ATOM     15  C   UNL     1       3.099  15.046  19.865  0.00  0.00    +0.000 C 
ATOM     16  O   UNL     1       2.780  15.876  19.023  0.00  0.00    +0.000 OA
ATOM     17  S   UNL     1       5.572  16.856  19.132  0.00  0.00    +0.000 S 
ATOM     18  C   UNL     1       7.267  16.771  19.089  0.00  0.00    +0.000 A 
ATOM     19  C   UNL     1       8.160  17.795  18.478  0.00  0.00    +0.000 C 
ATOM     20  H   UNL     1       4.524  13.880  20.819  0.00  0.00    +0.000 HD
ENDBRANCH   1  15
BRANCH   5  21
ATOM     21  C   UNL     1       0.799  10.537  20.075  0.00  0.00    +0.000 C 
ATOM     22  C   UNL     1      -0.631  10.004  20.261  0.00  0.00    +0.000 C 
ATOM     23  N   UNL     1      -1.356  10.438  19.056  0.00  0.00    +0.000 NA
ATOM     24  C   UNL     1      -0.370  10.420  17.962  0.00  0.00    +0.000 C 
ATOM     25  C   UNL     1       1.015  10.214  18.582  0.00  0.00    +0.000 C 
ATOM     26  H   UNL     1      -1.662  11.403  19.204  0.00  0.00    +0.000 HD
BRANCH  25  27
ATOM     27  C   UNL     1       1.494   8.773  18.395  0.00  0.00    +0.000 C 
ATOM     28  O   UNL     1       1.470   8.233  17.292  0.00  0.00    +0.000 OA
ATOM     29  N   UNL     1       1.877   8.146  19.572  0.00  0.00    +0.000 N 
ATOM     30  H   UNL     1       1.629   8.596  20.446  0.00  0.00    +0.000 HD
BRANCH  29  31
ATOM     31  C   UNL     1       2.479   6.874  19.663  0.00  0.00    +0.000 A 
ATOM     32  C   UNL     1       3.678   6.554  19.018  0.00  0.00    +0.000 A 
ATOM     33  C   UNL     1       4.239   5.278  19.131  0.00  0.00    +0.000 A 
ATOM     34  C   UNL     1       3.608   4.303  19.903  0.00  0.00    +0.000 A 
ATOM     35  C   UNL     1       2.420   4.615  20.569  0.00  0.00    +0.000 A 
ATOM     36  C   UNL     1       1.863   5.899  20.456  0.00  0.00    +0.000 A 
BRANCH  34  37
ATOM     37  C   UNL     1       4.183   2.992  20.010  0.00  0.00    +0.000 C 
ATOM     38  N   UNL     1       4.652   1.934  20.090  0.00  0.00    +0.000 NA
ENDBRANCH  34  37
ENDBRANCH  29  31
ENDBRANCH  25  27
ENDBRANCH   5  21
TORSDOF 5
ENDMDL
MODEL 9
REMARK VINA RESULT:      -7.0      1.792      2.137
REMARK  Name = 
REMARK  6 active torsions:
REMARK  status: ('A' for Active; 'I' for Inactive)
REMARK    1  A    between atoms: C_1  and  N_2
REMARK    2  A    between atoms: C_9  and  C_11
REMARK    3  A    between atoms: C_15  and  C_16
REMARK    4  A    between atoms: C_20  and  C_21
REMARK    5  A    between atoms: N_23  and  C_24
REMARK    6  A    between atoms: C_27  and  C_28
REMARK                            x       y       z     vdW  Elec       q    Type
REMARK                         _______ _______ _______ _____ _____    ______ ____
ROOT
ATOM      1  C   UNL     1       0.652  12.003  20.049  0.00  0.00    +0.000 A 
ATOM      2  C   UNL     1      -0.672  12.446  20.014  0.00  0.00    +0.000 A 
ATOM      3  C   UNL     1      -0.948  13.744  19.592  0.00  0.00    +0.000 A 
ATOM      4  C   UNL     1       0.092  14.595  19.212  0.00  0.00    +0.000 A 
ATOM      5  C   UNL     1       1.439  14.188  19.282  0.00  0.00    +0.000 A 
ATOM      6  C   UNL     1       1.698  12.877  19.708  0.00  0.00    +0.000 A 
ENDROOT
BRANCH   1  15
ATOM      7  C   UNL     1       3.116   2.595  20.116  0.00  0.00    +0.000 C 
ATOM      8  N   UNL     1       2.724   3.873  19.529  0.00  0.00    +0.000 NA
ATOM      9  C   UNL     1       3.779   4.404  18.633  0.00  0.00    +0.000 C 
ATOM     10  C   UNL     1       3.289   5.643  17.841  0.00  0.00    +0.000 C 
ATOM     11  C   UNL     1       2.593   6.590  18.756  0.00  0.00    +0.000 A 
ATOM     12  N   UNL     1       2.303   7.895  18.411  0.00  0.00    +0.000 NA
ATOM     13  C   UNL     1       1.732   8.486  19.439  0.00  0.00    +0.000 A 
ATOM     14  N   UNL     1       1.343   9.799  19.371  0.00  0.00    +0.000 N 
ATOM     15  C   UNL     1       1.001  10.605  20.432  0.00  0.00    +0.000 C 
ATOM     16  O   UNL     1       1.028  10.326  21.624  0.00  0.00    +0.000 OA
ATOM     17  S   UNL     1       1.454   7.511  20.815  0.00  0.00    +0.000 S 
ATOM     18  C   UNL     1       2.176   6.202  20.011  0.00  0.00    +0.000 A 
ATOM     19  C   UNL     1       2.384   4.847  20.596  0.00  0.00    +0.000 C 
ATOM     20  H   UNL     1       1.500  10.204  18.460  0.00  0.00    +0.000 HD
ENDBRANCH   1  15
BRANCH   5  21
ATOM     21  C   UNL     1       2.528  15.161  18.826  0.00  0.00    +0.000 C 
ATOM     22  C   UNL     1       1.950  16.437  18.190  0.00  0.00    +0.000 C 
ATOM     23  N   UNL     1       1.630  17.314  19.327  0.00  0.00    +0.000 NA
ATOM     24  C   UNL     1       2.643  17.027  20.358  0.00  0.00    +0.000 C 
ATOM     25  C   UNL     1       3.421  15.784  19.918  0.00  0.00    +0.000 C 
ATOM     26  H   UNL     1       0.712  17.039  19.687  0.00  0.00    +0.000 HD
BRANCH  25  27
ATOM     27  C   UNL     1       4.794  16.163  19.357  0.00  0.00    +0.000 C 
ATOM     28  O   UNL     1       4.993  17.266  18.855  0.00  0.00    +0.000 OA
ATOM     29  N   UNL     1       5.729  15.139  19.411  0.00  0.00    +0.000 N 
ATOM     30  H   UNL     1       5.393  14.206  19.618  0.00  0.00    +0.000 HD
BRANCH  29  31
ATOM     31  C   UNL     1       7.096  15.263  19.086  0.00  0.00    +0.000 A 
ATOM     32  C   UNL     1       7.923  16.244  19.645  0.00  0.00    +0.000 A 
ATOM     33  C   UNL     1       9.273  16.335  19.292  0.00  0.00    +0.000 A 
ATOM     34  C   UNL     1       9.818  15.434  18.377  0.00  0.00    +0.000 A 
ATOM     35  C   UNL     1       9.009  14.437  17.827  0.00  0.00    +0.000 A 
ATOM     36  C   UNL     1       7.655  14.347  18.188  0.00  0.00    +0.000 A 
BRANCH  34  37
ATOM     37  C   UNL     1      11.203  15.536  18.012  0.00  0.00    +0.000 C 
ATOM     38  N   UNL     1      12.320  15.620  17.710  0.00  0.00    +0.000 NA
ENDBRANCH  34  37
ENDBRANCH  29  31
ENDBRANCH  25  27
ENDBRANCH   5  21
TORSDOF 5
ENDMDL
