MODEL 1
REMARK VINA RESULT:      -8.1      0.000      0.000
REMARK  Name = 
REMARK  5 active torsions:
REMARK  status: ('A' for Active; 'I' for Inactive)
REMARK    1  A    between atoms: C_2  and  C_3
REMARK    2  A    between atoms: C_3  and  N_4
REMARK    3  A    between atoms: N_9  and  C_10
REMARK    4  A    between atoms: C_10  and  C_11
REMARK    5  A    between atoms: C_11  and  C_12
REMARK                            x       y       z     vdW  Elec       q    Type
REMARK                         _______ _______ _______ _____ _____    ______ ____
ROOT
ATOM      1  N   UNL     1       5.811   4.771  15.732  0.00  0.00    +0.000 N 
ATOM      2  N   UNL     1       5.552   3.846  16.721  0.00  0.00    +0.000 NA
ATOM      3  C   UNL     1       4.744   4.483  17.520  0.00  0.00    +0.000 A 
ATOM      4  C   UNL     1       4.133   3.906  18.767  0.00  0.00    +0.000 A 
ATOM      5  O   UNL     1       4.410   2.752  19.078  0.00  0.00    +0.000 OA
ATOM      6  N   UNL     1       3.259   4.735  19.488  0.00  0.00    +0.000 N 
ATOM      7  C   UNL     1       2.982   6.079  19.062  0.00  0.00    +0.000 A 
ATOM      8  C   UNL     1       2.117   6.922  19.780  0.00  0.00    +0.000 A 
ATOM      9  C   UNL     1       1.861   8.225  19.345  0.00  0.00    +0.000 A 
ATOM     10 CL   UNL     1       0.801   9.234  20.249  0.00  0.00    +0.000 Cl
ATOM     11  C   UNL     1       2.454   8.713  18.189  0.00  0.00    +0.000 A 
ATOM     12  C   UNL     1       3.313   7.895  17.460  0.00  0.00    +0.000 A 
ATOM     13  C   UNL     1       3.584   6.585  17.884  0.00  0.00    +0.000 A 
ATOM     14  N   UNL     1       4.443   5.751  17.161  0.00  0.00    +0.000 N 
ATOM     15  C   UNL     1       5.122   5.968  15.981  0.00  0.00    +0.000 A 
ATOM     16  O   UNL     1       5.131   6.963  15.270  0.00  0.00    +0.000 OA
ENDROOT
BRANCH   1  17
ATOM     17  C   UNL     1       6.645   4.489  14.588  0.00  0.00    +0.000 C 
BRANCH  17  19
ATOM     18  C   UNL     1       6.278   3.433  12.336  0.00  0.00    +0.000 C 
ATOM     19  C   UNL     1       5.854   3.710  13.577  0.00  0.00    +0.000 C 
ENDBRANCH  17  19
ENDBRANCH   1  17
BRANCH   6  20
ATOM     20  C   UNL     1       2.603   4.130  20.650  0.00  0.00    +0.000 C 
BRANCH  20  21
ATOM     21  C   UNL     1       1.114   3.815  20.457  0.00  0.00    +0.000 C 
ATOM     22  C   UNL     1       0.823   2.697  19.471  0.00  0.00    +0.000 C 
ENDBRANCH  20  21
ENDBRANCH   6  20
TORSDOF 4
ENDMDL
MODEL 2
REMARK VINA RESULT:      -7.6      1.024      1.167
REMARK  Name = 
REMARK  5 active torsions:
REMARK  status: ('A' for Active; 'I' for Inactive)
REMARK    1  A    between atoms: C_2  and  C_3
REMARK    2  A    between atoms: C_3  and  N_4
REMARK    3  A    between atoms: N_9  and  C_10
REMARK    4  A    between atoms: C_10  and  C_11
REMARK    5  A    between atoms: C_11  and  C_12
REMARK                            x       y       z     vdW  Elec       q    Type
REMARK                         _______ _______ _______ _____ _____    ______ ____
ROOT
ATOM      1  N   UNL     1       5.836   4.567  15.208  0.00  0.00    +0.000 N 
ATOM      2  N   UNL     1       5.374   3.441  15.856  0.00  0.00    +0.000 NA
ATOM      3  C   UNL     1       4.585   3.927  16.772  0.00  0.00    +0.000 A 
ATOM      4  C   UNL     1       3.797   3.108  17.754  0.00  0.00    +0.000 A 
ATOM      5  O   UNL     1       3.895   1.885  17.713  0.00  0.00    +0.000 OA
ATOM      6  N   UNL     1       2.975   3.809  18.651  0.00  0.00    +0.000 N 
ATOM      7  C   UNL     1       2.911   5.243  18.641  0.00  0.00    +0.000 A 
ATOM      8  C   UNL     1       2.100   5.957  19.540  0.00  0.00    +0.000 A 
ATOM      9  C   UNL     1       2.052   7.353  19.509  0.00  0.00    +0.000 A 
ATOM     10 CL   UNL     1       1.054   8.198  20.626  0.00  0.00    +0.000 Cl
ATOM     11  C   UNL     1       2.804   8.066  18.586  0.00  0.00    +0.000 A 
ATOM     12  C   UNL     1       3.613   7.380  17.684  0.00  0.00    +0.000 A 
ATOM     13  C   UNL     1       3.676   5.978  17.702  0.00  0.00    +0.000 A 
ATOM     14  N   UNL     1       4.482   5.275  16.801  0.00  0.00    +0.000 N 
ATOM     15  C   UNL     1       5.286   5.726  15.776  0.00  0.00    +0.000 A 
ATOM     16  O   UNL     1       5.486   6.873  15.401  0.00  0.00    +0.000 OA
ENDROOT
BRANCH   1  17
ATOM     17  C   UNL     1       6.726   4.512  14.073  0.00  0.00    +0.000 C 
BRANCH  17  19
ATOM     18  C   UNL     1       6.732   3.312  11.863  0.00  0.00    +0.000 C 
ATOM     19  C   UNL     1       6.116   3.653  13.003  0.00  0.00    +0.000 C 
ENDBRANCH  17  19
ENDBRANCH   1  17
BRANCH   6  20
ATOM     20  C   UNL     1       2.145   2.993  19.542  0.00  0.00    +0.000 C 
BRANCH  20  21
ATOM     21  C   UNL     1       2.739   2.756  20.937  0.00  0.00    +0.000 C 
ATOM     22  C   UNL     1       1.722   2.739  22.065  0.00  0.00    +0.000 C 
ENDBRANCH  20  21
ENDBRANCH   6  20
TORSDOF 4
ENDMDL
MODEL 3
REMARK VINA RESULT:      -7.5      3.499      6.354
REMARK  Name = 
REMARK  5 active torsions:
REMARK  status: ('A' for Active; 'I' for Inactive)
REMARK    1  A    between atoms: C_2  and  C_3
REMARK    2  A    between atoms: C_3  and  N_4
REMARK    3  A    between atoms: N_9  and  C_10
REMARK    4  A    between atoms: C_10  and  C_11
REMARK    5  A    between atoms: C_11  and  C_12
REMARK                            x       y       z     vdW  Elec       q    Type
REMARK                         _______ _______ _______ _____ _____    ______ ____
ROOT
ATOM      1  N   UNL     1       2.869   3.285  18.738  0.00  0.00    +0.000 N 
ATOM      2  N   UNL     1       3.786   4.014  19.466  0.00  0.00    +0.000 NA
ATOM      3  C   UNL     1       4.660   4.372  18.569  0.00  0.00    +0.000 A 
ATOM      4  C   UNL     1       5.873   5.218  18.838  0.00  0.00    +0.000 A 
ATOM      5  O   UNL     1       6.079   5.604  19.985  0.00  0.00    +0.000 OA
ATOM      6  N   UNL     1       6.687   5.529  17.737  0.00  0.00    +0.000 N 
ATOM      7  C   UNL     1       6.383   5.040  16.421  0.00  0.00    +0.000 A 
ATOM      8  C   UNL     1       7.196   5.336  15.313  0.00  0.00    +0.000 A 
ATOM      9  C   UNL     1       6.878   4.851  14.042  0.00  0.00    +0.000 A 
ATOM     10 CL   UNL     1       7.896   5.226  12.707  0.00  0.00    +0.000 Cl
ATOM     11  C   UNL     1       5.749   4.068  13.845  0.00  0.00    +0.000 A 
ATOM     12  C   UNL     1       4.928   3.765  14.929  0.00  0.00    +0.000 A 
ATOM     13  C   UNL     1       5.233   4.241  16.213  0.00  0.00    +0.000 A 
ATOM     14  N   UNL     1       4.416   3.946  17.310  0.00  0.00    +0.000 N 
ATOM     15  C   UNL     1       3.238   3.235  17.386  0.00  0.00    +0.000 A 
ATOM     16  O   UNL     1       2.611   2.685  16.490  0.00  0.00    +0.000 OA
ENDROOT
BRANCH   1  17
ATOM     17  C   UNL     1       1.680   2.710  19.321  0.00  0.00    +0.000 C 
BRANCH  17  19
ATOM     18  C   UNL     1       1.563   2.668  21.832  0.00  0.00    +0.000 C 
ATOM     19  C   UNL     1       1.440   3.324  20.669  0.00  0.00    +0.000 C 
ENDBRANCH  17  19
ENDBRANCH   1  17
BRANCH   6  20
ATOM     20  C   UNL     1       7.816   6.427  17.999  0.00  0.00    +0.000 C 
BRANCH  20  21
ATOM     21  C   UNL     1       7.591   7.884  17.575  0.00  0.00    +0.000 C 
ATOM     22  C   UNL     1       8.492   8.892  18.267  0.00  0.00    +0.000 C 
ENDBRANCH  20  21
ENDBRANCH   6  20
TORSDOF 4
ENDMDL
MODEL 4
REMARK VINA RESULT:      -7.3      2.964      5.845
REMARK  Name = 
REMARK  5 active torsions:
REMARK  status: ('A' for Active; 'I' for Inactive)
REMARK    1  A    between atoms: C_2  and  C_3
REMARK    2  A    between atoms: C_3  and  N_4
REMARK    3  A    between atoms: N_9  and  C_10
REMARK    4  A    between atoms: C_10  and  C_11
REMARK    5  A    between atoms: C_11  and  C_12
REMARK                            x       y       z     vdW  Elec       q    Type
REMARK                         _______ _______ _______ _____ _____    ______ ____
ROOT
ATOM      1  N   UNL     1       1.586   8.030  19.960  0.00  0.00    +0.000 N 
ATOM      2  N   UNL     1       1.653   6.804  20.588  0.00  0.00    +0.000 NA
ATOM      3  C   UNL     1       2.463   6.125  19.827  0.00  0.00    +0.000 A 
ATOM      4  C   UNL     1       2.899   4.709  20.080  0.00  0.00    +0.000 A 
ATOM      5  O   UNL     1       2.464   4.127  21.070  0.00  0.00    +0.000 OA
ATOM      6  N   UNL     1       3.803   4.149  19.163  0.00  0.00    +0.000 N 
ATOM      7  C   UNL     1       4.268   4.891  18.025  0.00  0.00    +0.000 A 
ATOM      8  C   UNL     1       5.165   4.338  17.095  0.00  0.00    +0.000 A 
ATOM      9  C   UNL     1       5.606   5.080  15.997  0.00  0.00    +0.000 A 
ATOM     10 CL   UNL     1       6.700   4.374  14.873  0.00  0.00    +0.000 Cl
ATOM     11  C   UNL     1       5.170   6.383  15.803  0.00  0.00    +0.000 A 
ATOM     12  C   UNL     1       4.283   6.952  16.713  0.00  0.00    +0.000 A 
ATOM     13  C   UNL     1       3.827   6.221  17.821  0.00  0.00    +0.000 A 
ATOM     14  N   UNL     1       2.938   6.780  18.744  0.00  0.00    +0.000 N 
ATOM     15  C   UNL     1       2.387   8.042  18.809  0.00  0.00    +0.000 A 
ATOM     16  O   UNL     1       2.553   8.994  18.058  0.00  0.00    +0.000 OA
ENDROOT
BRANCH   1  17
ATOM     17  C   UNL     1       0.820   9.139  20.478  0.00  0.00    +0.000 C 
BRANCH  17  19
ATOM     18  C   UNL     1      -0.223   9.338  22.757  0.00  0.00    +0.000 C 
ATOM     19  C   UNL     1      -0.038   8.663  21.614  0.00  0.00    +0.000 C 
ENDBRANCH  17  19
ENDBRANCH   1  17
BRANCH   6  20
ATOM     20  C   UNL     1       4.287   2.800  19.473  0.00  0.00    +0.000 C 
BRANCH  20  21
ATOM     21  C   UNL     1       3.432   1.662  18.899  0.00  0.00    +0.000 C 
ATOM     22  C   UNL     1       2.414   2.095  17.858  0.00  0.00    +0.000 C 
ENDBRANCH  20  21
ENDBRANCH   6  20
TORSDOF 4
ENDMDL
MODEL 5
REMARK VINA RESULT:      -7.0      2.967      5.641
REMARK  Name = 
REMARK  5 active torsions:
REMARK  status: ('A' for Active; 'I' for Inactive)
REMARK    1  A    between atoms: C_2  and  C_3
REMARK    2  A    between atoms: C_3  and  N_4
REMARK    3  A    between atoms: N_9  and  C_10
REMARK    4  A    between atoms: C_10  and  C_11
REMARK    5  A    between atoms: C_11  and  C_12
REMARK                            x       y       z     vdW  Elec       q    Type
REMARK                         _______ _______ _______ _____ _____    ______ ____
ROOT
ATOM      1  N   UNL     1       1.628   8.556  19.526  0.00  0.00    +0.000 N 
ATOM      2  N   UNL     1       1.606   7.414  20.300  0.00  0.00    +0.000 NA
ATOM      3  C   UNL     1       2.387   6.599  19.649  0.00  0.00    +0.000 A 
ATOM      4  C   UNL     1       2.728   5.202  20.084  0.00  0.00    +0.000 A 
ATOM      5  O   UNL     1       2.237   4.773  21.125  0.00  0.00    +0.000 OA
ATOM      6  N   UNL     1       3.613   4.480  19.268  0.00  0.00    +0.000 N 
ATOM      7  C   UNL     1       4.147   5.048  18.061  0.00  0.00    +0.000 A 
ATOM      8  C   UNL     1       5.027   4.332  17.230  0.00  0.00    +0.000 A 
ATOM      9  C   UNL     1       5.535   4.907  16.063  0.00  0.00    +0.000 A 
ATOM     10 CL   UNL     1       6.605   4.003  15.064  0.00  0.00    +0.000 Cl
ATOM     11  C   UNL     1       5.186   6.200  15.700  0.00  0.00    +0.000 A 
ATOM     12  C   UNL     1       4.318   6.928  16.510  0.00  0.00    +0.000 A 
ATOM     13  C   UNL     1       3.795   6.366  17.685  0.00  0.00    +0.000 A 
ATOM     14  N   UNL     1       2.924   7.087  18.509  0.00  0.00    +0.000 N 
ATOM     15  C   UNL     1       2.452   8.378  18.405  0.00  0.00    +0.000 A 
ATOM     16  O   UNL     1       2.692   9.219  17.549  0.00  0.00    +0.000 OA
ENDROOT
BRANCH   1  17
ATOM     17  C   UNL     1       0.923   9.764  19.884  0.00  0.00    +0.000 C 
BRANCH  17  19
ATOM     18  C   UNL     1      -1.228  10.841  19.154  0.00  0.00    +0.000 C 
ATOM     19  C   UNL     1      -0.248   9.947  18.963  0.00  0.00    +0.000 C 
ENDBRANCH  17  19
ENDBRANCH   1  17
BRANCH   6  20
ATOM     20  C   UNL     1       4.005   3.154  19.752  0.00  0.00    +0.000 C 
BRANCH  20  21
ATOM     21  C   UNL     1       3.356   1.979  19.008  0.00  0.00    +0.000 C 
ATOM     22  C   UNL     1       1.837   1.979  19.025  0.00  0.00    +0.000 C 
ENDBRANCH  20  21
ENDBRANCH   6  20
TORSDOF 4
ENDMDL
MODEL 6
REMARK VINA RESULT:      -6.3      3.083      6.021
REMARK  Name = 
REMARK  5 active torsions:
REMARK  status: ('A' for Active; 'I' for Inactive)
REMARK    1  A    between atoms: C_2  and  C_3
REMARK    2  A    between atoms: C_3  and  N_4
REMARK    3  A    between atoms: N_9  and  C_10
REMARK    4  A    between atoms: C_10  and  C_11
REMARK    5  A    between atoms: C_11  and  C_12
REMARK                            x       y       z     vdW  Elec       q    Type
REMARK                         _______ _______ _______ _____ _____    ______ ____
ROOT
ATOM      1  N   UNL     1       1.511   8.006  20.230  0.00  0.00    +0.000 N 
ATOM      2  N   UNL     1       1.374   6.761  20.808  0.00  0.00    +0.000 NA
ATOM      3  C   UNL     1       2.100   5.996  20.043  0.00  0.00    +0.000 A 
ATOM      4  C   UNL     1       2.312   4.523  20.251  0.00  0.00    +0.000 A 
ATOM      5  O   UNL     1       1.761   3.977  21.203  0.00  0.00    +0.000 OA
ATOM      6  N   UNL     1       3.154   3.867  19.339  0.00  0.00    +0.000 N 
ATOM      7  C   UNL     1       3.764   4.572  18.246  0.00  0.00    +0.000 A 
ATOM      8  C   UNL     1       4.601   3.926  17.321  0.00  0.00    +0.000 A 
ATOM      9  C   UNL     1       5.186   4.633  16.267  0.00  0.00    +0.000 A 
ATOM     10 CL   UNL     1       6.201   3.812  15.147  0.00  0.00    +0.000 Cl
ATOM     11  C   UNL     1       4.955   5.993  16.114  0.00  0.00    +0.000 A 
ATOM     12  C   UNL     1       4.131   6.655  17.021  0.00  0.00    +0.000 A 
ATOM     13  C   UNL     1       3.533   5.960  18.084  0.00  0.00    +0.000 A 
ATOM     14  N   UNL     1       2.705   6.612  19.003  0.00  0.00    +0.000 N 
ATOM     15  C   UNL     1       2.346   7.939  19.104  0.00  0.00    +0.000 A 
ATOM     16  O   UNL     1       2.677   8.882  18.398  0.00  0.00    +0.000 OA
ENDROOT
BRANCH   1  17
ATOM     17  C   UNL     1       0.901   9.197  20.770  0.00  0.00    +0.000 C 
BRANCH  17  19
ATOM     18  C   UNL     1      -0.076   9.616  23.049  0.00  0.00    +0.000 C 
ATOM     19  C   UNL     1       0.892   9.115  22.269  0.00  0.00    +0.000 C 
ENDBRANCH  17  19
ENDBRANCH   1  17
BRANCH   6  20
ATOM     20  C   UNL     1       3.421   2.452  19.606  0.00  0.00    +0.000 C 
BRANCH  20  21
ATOM     21  C   UNL     1       4.554   2.188  20.606  0.00  0.00    +0.000 C 
ATOM     22  C   UNL     1       5.180   0.807  20.507  0.00  0.00    +0.000 C 
ENDBRANCH  20  21
ENDBRANCH   6  20
TORSDOF 4
ENDMDL
MODEL 7
REMARK VINA RESULT:      -6.3      1.510      1.979
REMARK  Name = 
REMARK  5 active torsions:
REMARK  status: ('A' for Active; 'I' for Inactive)
REMARK    1  A    between atoms: C_2  and  C_3
REMARK    2  A    between atoms: C_3  and  N_4
REMARK    3  A    between atoms: N_9  and  C_10
REMARK    4  A    between atoms: C_10  and  C_11
REMARK    5  A    between atoms: C_11  and  C_12
REMARK                            x       y       z     vdW  Elec       q    Type
REMARK                         _______ _______ _______ _____ _____    ______ ____
ROOT
ATOM      1  N   UNL     1       4.785   4.722  16.175  0.00  0.00    +0.000 N 
ATOM      2  N   UNL     1       4.174   3.593  16.677  0.00  0.00    +0.000 NA
ATOM      3  C   UNL     1       3.408   4.064  17.620  0.00  0.00    +0.000 A 
ATOM      4  C   UNL     1       2.494   3.237  18.480  0.00  0.00    +0.000 A 
ATOM      5  O   UNL     1       2.456   2.023  18.302  0.00  0.00    +0.000 OA
ATOM      6  N   UNL     1       1.719   3.925  19.428  0.00  0.00    +0.000 N 
ATOM      7  C   UNL     1       1.817   5.350  19.580  0.00  0.00    +0.000 A 
ATOM      8  C   UNL     1       1.055   6.049  20.532  0.00  0.00    +0.000 A 
ATOM      9  C   UNL     1       1.165   7.436  20.660  0.00  0.00    +0.000 A 
ATOM     10 CL   UNL     1       0.223   8.262  21.838  0.00  0.00    +0.000 Cl
ATOM     11  C   UNL     1       2.029   8.155  19.846  0.00  0.00    +0.000 A 
ATOM     12  C   UNL     1       2.792   7.483  18.894  0.00  0.00    +0.000 A 
ATOM     13  C   UNL     1       2.697   6.090  18.753  0.00  0.00    +0.000 A 
ATOM     14  N   UNL     1       3.456   5.403  17.800  0.00  0.00    +0.000 N 
ATOM     15  C   UNL     1       4.346   5.867  16.857  0.00  0.00    +0.000 A 
ATOM     16  O   UNL     1       4.688   7.019  16.622  0.00  0.00    +0.000 OA
ENDROOT
BRANCH   1  17
ATOM     17  C   UNL     1       5.710   4.691  15.066  0.00  0.00    +0.000 C 
BRANCH  17  19
ATOM     18  C   UNL     1       7.512   4.583  16.816  0.00  0.00    +0.000 C 
ATOM     19  C   UNL     1       7.079   4.340  15.571  0.00  0.00    +0.000 C 
ENDBRANCH  17  19
ENDBRANCH   1  17
BRANCH   6  20
ATOM     20  C   UNL     1       0.768   3.117  20.196  0.00  0.00    +0.000 C 
BRANCH  20  21
ATOM     21  C   UNL     1       1.305   2.588  21.532  0.00  0.00    +0.000 C 
ATOM     22  C   UNL     1       2.814   2.672  21.688  0.00  0.00    +0.000 C 
ENDBRANCH  20  21
ENDBRANCH   6  20
TORSDOF 4
ENDMDL
MODEL 8
REMARK VINA RESULT:      -6.2      1.987      3.822
REMARK  Name = 
REMARK  5 active torsions:
REMARK  status: ('A' for Active; 'I' for Inactive)
REMARK    1  A    between atoms: C_2  and  C_3
REMARK    2  A    between atoms: C_3  and  N_4
REMARK    3  A    between atoms: N_9  and  C_10
REMARK    4  A    between atoms: C_10  and  C_11
REMARK    5  A    between atoms: C_11  and  C_12
REMARK                            x       y       z     vdW  Elec       q    Type
REMARK                         _______ _______ _______ _____ _____    ______ ____
ROOT
ATOM      1  N   UNL     1       5.772   5.054  15.463  0.00  0.00    +0.000 N 
ATOM      2  N   UNL     1       5.272   6.285  15.832  0.00  0.00    +0.000 NA
ATOM      3  C   UNL     1       4.515   6.003  16.855  0.00  0.00    +0.000 A 
ATOM      4  C   UNL     1       3.742   7.012  17.657  0.00  0.00    +0.000 A 
ATOM      5  O   UNL     1       3.808   8.195  17.337  0.00  0.00    +0.000 OA
ATOM      6  N   UNL     1       3.003   6.524  18.747  0.00  0.00    +0.000 N 
ATOM      7  C   UNL     1       2.972   5.123  19.062  0.00  0.00    +0.000 A 
ATOM      8  C   UNL     1       2.228   4.621  20.143  0.00  0.00    +0.000 A 
ATOM      9  C   UNL     1       2.215   3.254  20.431  0.00  0.00    +0.000 A 
ATOM     10 CL   UNL     1       1.290   2.671  21.759  0.00  0.00    +0.000 Cl
ATOM     11  C   UNL     1       2.942   2.361  19.656  0.00  0.00    +0.000 A 
ATOM     12  C   UNL     1       3.688   2.837  18.581  0.00  0.00    +0.000 A 
ATOM     13  C   UNL     1       3.710   4.206  18.275  0.00  0.00    +0.000 A 
ATOM     14  N   UNL     1       4.458   4.698  17.199  0.00  0.00    +0.000 N 
ATOM     15  C   UNL     1       5.283   4.047  16.308  0.00  0.00    +0.000 A 
ATOM     16  O   UNL     1       5.567   2.858  16.248  0.00  0.00    +0.000 OA
ENDROOT
BRANCH   1  17
ATOM     17  C   UNL     1       6.707   4.877  14.377  0.00  0.00    +0.000 C 
BRANCH  17  19
ATOM     18  C   UNL     1       6.713   3.608  12.207  0.00  0.00    +0.000 C 
ATOM     19  C   UNL     1       6.099   3.981  13.338  0.00  0.00    +0.000 C 
ENDBRANCH  17  19
ENDBRANCH   1  17
BRANCH   6  20
ATOM     20  C   UNL     1       2.327   7.529  19.572  0.00  0.00    +0.000 C 
BRANCH  20  21
ATOM     21  C   UNL     1       1.512   8.565  18.787  0.00  0.00    +0.000 C 
ATOM     22  C   UNL     1       0.881   9.653  19.639  0.00  0.00    +0.000 C 
ENDBRANCH  20  21
ENDBRANCH   6  20
TORSDOF 4
ENDMDL
MODEL 9
REMARK VINA RESULT:      -6.2      1.017      1.349
REMARK  Name = 
REMARK  5 active torsions:
REMARK  status: ('A' for Active; 'I' for Inactive)
REMARK    1  A    between atoms: C_2  and  C_3
REMARK    2  A    between atoms: C_3  and  N_4
REMARK    3  A    between atoms: N_9  and  C_10
REMARK    4  A    between atoms: C_10  and  C_11
REMARK    5  A    between atoms: C_11  and  C_12
REMARK                            x       y       z     vdW  Elec       q    Type
REMARK                         _______ _______ _______ _____ _____    ______ ____
ROOT
ATOM      1  N   UNL     1       5.084   4.542  15.955  0.00  0.00    +0.000 N 
ATOM      2  N   UNL     1       4.921   3.521  16.867  0.00  0.00    +0.000 NA
ATOM      3  C   UNL     1       4.227   4.079  17.818  0.00  0.00    +0.000 A 
ATOM      4  C   UNL     1       3.753   3.382  19.062  0.00  0.00    +0.000 A 
ATOM      5  O   UNL     1       4.038   2.198  19.218  0.00  0.00    +0.000 OA
ATOM      6  N   UNL     1       2.989   4.141  19.964  0.00  0.00    +0.000 N 
ATOM      7  C   UNL     1       2.696   5.525  19.714  0.00  0.00    +0.000 A 
ATOM      8  C   UNL     1       1.941   6.297  20.613  0.00  0.00    +0.000 A 
ATOM      9  C   UNL     1       1.667   7.641  20.348  0.00  0.00    +0.000 A 
ATOM     10 CL   UNL     1       0.745   8.562  21.471  0.00  0.00    +0.000 Cl
ATOM     11  C   UNL     1       2.132   8.242  19.186  0.00  0.00    +0.000 A 
ATOM     12  C   UNL     1       2.880   7.495  18.280  0.00  0.00    +0.000 A 
ATOM     13  C   UNL     1       3.168   6.144  18.532  0.00  0.00    +0.000 A 
ATOM     14  N   UNL     1       3.916   5.381  17.629  0.00  0.00    +0.000 N 
ATOM     15  C   UNL     1       4.457   5.713  16.406  0.00  0.00    +0.000 A 
ATOM     16  O   UNL     1       4.406   6.778  15.804  0.00  0.00    +0.000 OA
ENDROOT
BRANCH   1  17
ATOM     17  C   UNL     1       5.771   4.371  14.696  0.00  0.00    +0.000 C 
BRANCH  17  19
ATOM     18  C   UNL     1       7.729   5.288  15.981  0.00  0.00    +0.000 C 
ATOM     19  C   UNL     1       7.186   4.852  14.835  0.00  0.00    +0.000 C 
ENDBRANCH  17  19
ENDBRANCH   1  17
BRANCH   6  20
ATOM     20  C   UNL     1       2.460   3.424  21.127  0.00  0.00    +0.000 C 
BRANCH  20  21
ATOM     21  C   UNL     1       1.019   2.921  20.973  0.00  0.00    +0.000 C 
ATOM     22  C   UNL     1       0.599   2.626  19.543  0.00  0.00    +0.000 C 
ENDBRANCH  20  21
ENDBRANCH   6  20
TORSDOF 4
ENDMDL
