MODEL 1
REMARK VINA RESULT:      -6.5      0.000      0.000
REMARK  Name = 
REMARK  7 active torsions:
REMARK  status: ('A' for Active; 'I' for Inactive)
REMARK    1  A    between atoms: C_1  and  C_2
REMARK    2  A    between atoms: C_2  and  C_3
REMARK    3  A    between atoms: C_3  and  C_4
REMARK    4  A    between atoms: C_4  and  C_5
REMARK    5  A    between atoms: C_8  and  O_9
REMARK    6  A    between atoms: O_9  and  C_10
REMARK    7  A    between atoms: N_17  and  C_18
REMARK                            x       y       z     vdW  Elec       q    Type
REMARK                         _______ _______ _______ _____ _____    ______ ____
ROOT
ATOM      1  C   UNL     1       4.436   3.809  17.630  0.00  0.00    +0.000 C 
ATOM      2  C   UNL     1       5.383   4.086  16.452  0.00  0.00    +0.000 A 
ATOM      3  C   UNL     1       5.009   3.740  15.145  0.00  0.00    +0.000 A 
ATOM      4  C   UNL     1       5.755   4.148  14.033  0.00  0.00    +0.000 A 
ATOM      5  C   UNL     1       6.960   4.825  14.257  0.00  0.00    +0.000 A 
ATOM      6 CL   UNL     1       7.960   5.339  12.938  0.00  0.00    +0.000 Cl
ATOM      7  C   UNL     1       7.397   5.094  15.552  0.00  0.00    +0.000 A 
ATOM      8  C   UNL     1       6.608   4.752  16.657  0.00  0.00    +0.000 A 
ATOM      9  C   UNL     1       7.121   5.001  18.054  0.00  0.00    +0.000 C 
ATOM     10  C   UNL     1       6.037   4.877  19.131  0.00  0.00    +0.000 C 
ATOM     11  N   UNL     1       5.228   3.686  18.871  0.00  0.00    +0.000 NA
ATOM     12  C   UNL     1       4.515   3.219  20.046  0.00  0.00    +0.000 C 
ENDROOT
BRANCH   4  13
ATOM     13  O   UNL     1       5.364   3.960  12.734  0.00  0.00    +0.000 OA
ATOM     14  C   UNL     1       5.807   2.778  12.072  0.00  0.00    +0.000 C 
ENDBRANCH   4  13
BRANCH   1  15
ATOM     15  C   UNL     1       3.268   4.863  17.661  0.00  0.00    +0.000 C 
BRANCH  15  16
ATOM     16  C   UNL     1       1.879   4.210  17.518  0.00  0.00    +0.000 C 
BRANCH  16  18
ATOM     17  C   UNL     1       1.091   2.233  18.804  0.00  0.00    +0.000 C 
ATOM     18  C   UNL     1       1.201   3.760  18.807  0.00  0.00    +0.000 C 
ENDBRANCH  16  18
ENDBRANCH  15  16
ENDBRANCH   1  15
TORSDOF 4
ENDMDL
MODEL 2
REMARK VINA RESULT:      -6.2      3.731      6.178
REMARK  Name = 
REMARK  7 active torsions:
REMARK  status: ('A' for Active; 'I' for Inactive)
REMARK    1  A    between atoms: C_1  and  C_2
REMARK    2  A    between atoms: C_2  and  C_3
REMARK    3  A    between atoms: C_3  and  C_4
REMARK    4  A    between atoms: C_4  and  C_5
REMARK    5  A    between atoms: C_8  and  O_9
REMARK    6  A    between atoms: O_9  and  C_10
REMARK    7  A    between atoms: N_17  and  C_18
REMARK                            x       y       z     vdW  Elec       q    Type
REMARK                         _______ _______ _______ _____ _____    ______ ____
ROOT
ATOM      1  C   UNL     1       5.329   4.355  17.007  0.00  0.00    +0.000 C 
ATOM      2  C   UNL     1       4.268   5.031  17.890  0.00  0.00    +0.000 A 
ATOM      3  C   UNL     1       3.773   4.378  19.029  0.00  0.00    +0.000 A 
ATOM      4  C   UNL     1       2.957   5.034  19.958  0.00  0.00    +0.000 A 
ATOM      5  C   UNL     1       2.546   6.342  19.669  0.00  0.00    +0.000 A 
ATOM      6 CL   UNL     1       1.510   7.216  20.748  0.00  0.00    +0.000 Cl
ATOM      7  C   UNL     1       2.949   6.973  18.494  0.00  0.00    +0.000 A 
ATOM      8  C   UNL     1       3.829   6.340  17.609  0.00  0.00    +0.000 A 
ATOM      9  C   UNL     1       4.212   7.016  16.316  0.00  0.00    +0.000 C 
ATOM     10  C   UNL     1       5.408   6.359  15.617  0.00  0.00    +0.000 C 
ATOM     11  N   UNL     1       5.244   4.905  15.639  0.00  0.00    +0.000 NA
ATOM     12  C   UNL     1       6.034   4.232  14.624  0.00  0.00    +0.000 C 
ENDROOT
BRANCH   4  13
ATOM     13  O   UNL     1       2.561   4.493  21.151  0.00  0.00    +0.000 OA
ATOM     14  C   UNL     1       1.476   3.570  21.134  0.00  0.00    +0.000 C 
ENDBRANCH   4  13
BRANCH   1  15
ATOM     15  C   UNL     1       6.744   4.425  17.691  0.00  0.00    +0.000 C 
BRANCH  15  16
ATOM     16  C   UNL     1       6.784   5.424  18.865  0.00  0.00    +0.000 C 
BRANCH  16  18
ATOM     17  C   UNL     1       7.728   7.473  17.819  0.00  0.00    +0.000 C 
ATOM     18  C   UNL     1       7.954   6.402  18.888  0.00  0.00    +0.000 C 
ENDBRANCH  16  18
ENDBRANCH  15  16
ENDBRANCH   1  15
TORSDOF 4
ENDMDL
MODEL 3
REMARK VINA RESULT:      -6.0      2.564      3.969
REMARK  Name = 
REMARK  7 active torsions:
REMARK  status: ('A' for Active; 'I' for Inactive)
REMARK    1  A    between atoms: C_1  and  C_2
REMARK    2  A    between atoms: C_2  and  C_3
REMARK    3  A    between atoms: C_3  and  C_4
REMARK    4  A    between atoms: C_4  and  C_5
REMARK    5  A    between atoms: C_8  and  O_9
REMARK    6  A    between atoms: O_9  and  C_10
REMARK    7  A    between atoms: N_17  and  C_18
REMARK                            x       y       z     vdW  Elec       q    Type
REMARK                         _______ _______ _______ _____ _____    ______ ____
ROOT
ATOM      1  C   UNL     1       2.336   4.439  18.725  0.00  0.00    +0.000 C 
ATOM      2  C   UNL     1       3.527   4.527  17.757  0.00  0.00    +0.000 A 
ATOM      3  C   UNL     1       4.039   5.775  17.375  0.00  0.00    +0.000 A 
ATOM      4  C   UNL     1       5.233   5.893  16.654  0.00  0.00    +0.000 A 
ATOM      5  C   UNL     1       5.861   4.718  16.220  0.00  0.00    +0.000 A 
ATOM      6 CL   UNL     1       7.327   4.773  15.297  0.00  0.00    +0.000 Cl
ATOM      7  C   UNL     1       5.316   3.469  16.507  0.00  0.00    +0.000 A 
ATOM      8  C   UNL     1       4.163   3.358  17.295  0.00  0.00    +0.000 A 
ATOM      9  C   UNL     1       3.556   2.001  17.551  0.00  0.00    +0.000 C 
ATOM     10  C   UNL     1       2.509   2.005  18.671  0.00  0.00    +0.000 C 
ATOM     11  N   UNL     1       1.627   3.161  18.507  0.00  0.00    +0.000 NA
ATOM     12  C   UNL     1       0.357   3.005  19.193  0.00  0.00    +0.000 C 
ENDROOT
BRANCH   4  13
ATOM     13  O   UNL     1       5.850   7.083  16.376  0.00  0.00    +0.000 OA
ATOM     14  C   UNL     1       6.832   7.552  17.297  0.00  0.00    +0.000 C 
ENDBRANCH   4  13
BRANCH   1  15
ATOM     15  C   UNL     1       2.800   4.726  20.200  0.00  0.00    +0.000 C 
BRANCH  15  16
ATOM     16  C   UNL     1       1.972   5.839  20.874  0.00  0.00    +0.000 C 
BRANCH  16  18
ATOM     17  C   UNL     1       1.216   8.200  21.063  0.00  0.00    +0.000 C 
ATOM     18  C   UNL     1       1.965   7.197  20.183  0.00  0.00    +0.000 C 
ENDBRANCH  16  18
ENDBRANCH  15  16
ENDBRANCH   1  15
TORSDOF 4
ENDMDL
MODEL 4
REMARK VINA RESULT:      -5.9      4.142      6.247
REMARK  Name = 
REMARK  7 active torsions:
REMARK  status: ('A' for Active; 'I' for Inactive)
REMARK    1  A    between atoms: C_1  and  C_2
REMARK    2  A    between atoms: C_2  and  C_3
REMARK    3  A    between atoms: C_3  and  C_4
REMARK    4  A    between atoms: C_4  and  C_5
REMARK    5  A    between atoms: C_8  and  O_9
REMARK    6  A    between atoms: O_9  and  C_10
REMARK    7  A    between atoms: N_17  and  C_18
REMARK                            x       y       z     vdW  Elec       q    Type
REMARK                         _______ _______ _______ _____ _____    ______ ____
ROOT
ATOM      1  C   UNL     1       2.633   6.732  17.985  0.00  0.00    +0.000 C 
ATOM      2  C   UNL     1       2.276   5.559  18.911  0.00  0.00    +0.000 A 
ATOM      3  C   UNL     1       2.393   4.237  18.457  0.00  0.00    +0.000 A 
ATOM      4  C   UNL     1       2.263   3.145  19.324  0.00  0.00    +0.000 A 
ATOM      5  C   UNL     1       1.900   3.397  20.653  0.00  0.00    +0.000 A 
ATOM      6 CL   UNL     1       1.688   2.103  21.786  0.00  0.00    +0.000 Cl
ATOM      7  C   UNL     1       1.685   4.699  21.100  0.00  0.00    +0.000 A 
ATOM      8  C   UNL     1       1.892   5.789  20.247  0.00  0.00    +0.000 A 
ATOM      9  C   UNL     1       1.602   7.188  20.731  0.00  0.00    +0.000 C 
ATOM     10  C   UNL     1       2.172   8.279  19.817  0.00  0.00    +0.000 C 
ATOM     11  N   UNL     1       1.895   7.936  18.421  0.00  0.00    +0.000 NA
ATOM     12  C   UNL     1       1.955   9.083  17.534  0.00  0.00    +0.000 C 
ENDROOT
BRANCH   4  13
ATOM     13  O   UNL     1       2.505   1.846  18.966  0.00  0.00    +0.000 OA
ATOM     14  C   UNL     1       3.621   1.588  18.119  0.00  0.00    +0.000 C 
ENDBRANCH   4  13
BRANCH   1  15
ATOM     15  C   UNL     1       4.194   6.887  17.866  0.00  0.00    +0.000 C 
BRANCH  15  16
ATOM     16  C   UNL     1       4.704   6.652  16.430  0.00  0.00    +0.000 C 
BRANCH  16  18
ATOM     17  C   UNL     1       5.877   4.674  17.373  0.00  0.00    +0.000 C 
ATOM     18  C   UNL     1       5.233   5.259  16.114  0.00  0.00    +0.000 C 
ENDBRANCH  16  18
ENDBRANCH  15  16
ENDBRANCH   1  15
TORSDOF 4
ENDMDL
MODEL 5
REMARK VINA RESULT:      -5.8      3.942      5.828
REMARK  Name = 
REMARK  7 active torsions:
REMARK  status: ('A' for Active; 'I' for Inactive)
REMARK    1  A    between atoms: C_1  and  C_2
REMARK    2  A    between atoms: C_2  and  C_3
REMARK    3  A    between atoms: C_3  and  C_4
REMARK    4  A    between atoms: C_4  and  C_5
REMARK    5  A    between atoms: C_8  and  O_9
REMARK    6  A    between atoms: O_9  and  C_10
REMARK    7  A    between atoms: N_17  and  C_18
REMARK                            x       y       z     vdW  Elec       q    Type
REMARK                         _______ _______ _______ _____ _____    ______ ____
ROOT
ATOM      1  C   UNL     1       4.579   6.411  17.976  0.00  0.00    +0.000 C 
ATOM      2  C   UNL     1       3.736   5.141  18.179  0.00  0.00    +0.000 A 
ATOM      3  C   UNL     1       2.870   5.035  19.277  0.00  0.00    +0.000 A 
ATOM      4  C   UNL     1       1.950   3.985  19.391  0.00  0.00    +0.000 A 
ATOM      5  C   UNL     1       1.986   2.968  18.429  0.00  0.00    +0.000 A 
ATOM      6 CL   UNL     1       0.905   1.617  18.511  0.00  0.00    +0.000 Cl
ATOM      7  C   UNL     1       2.906   3.007  17.383  0.00  0.00    +0.000 A 
ATOM      8  C   UNL     1       3.769   4.099  17.233  0.00  0.00    +0.000 A 
ATOM      9  C   UNL     1       4.795   4.099  16.127  0.00  0.00    +0.000 C 
ATOM     10  C   UNL     1       5.436   5.472  15.892  0.00  0.00    +0.000 C 
ATOM     11  N   UNL     1       5.778   6.074  17.182  0.00  0.00    +0.000 NA
ATOM     12  C   UNL     1       6.788   7.111  17.071  0.00  0.00    +0.000 C 
ENDROOT
BRANCH   4  13
ATOM     13  O   UNL     1       0.990   3.906  20.363  0.00  0.00    +0.000 OA
ATOM     14  C   UNL     1       1.289   3.147  21.531  0.00  0.00    +0.000 C 
ENDBRANCH   4  13
BRANCH   1  15
ATOM     15  C   UNL     1       3.690   7.582  17.418  0.00  0.00    +0.000 C 
BRANCH  15  16
ATOM     16  C   UNL     1       2.558   7.979  18.387  0.00  0.00    +0.000 C 
BRANCH  16  18
ATOM     17  C   UNL     1       0.905   9.696  19.096  0.00  0.00    +0.000 C 
ATOM     18  C   UNL     1       1.572   9.029  17.890  0.00  0.00    +0.000 C 
ENDBRANCH  16  18
ENDBRANCH  15  16
ENDBRANCH   1  15
TORSDOF 4
ENDMDL
MODEL 6
REMARK VINA RESULT:      -5.8      3.528      5.897
REMARK  Name = 
REMARK  7 active torsions:
REMARK  status: ('A' for Active; 'I' for Inactive)
REMARK    1  A    between atoms: C_1  and  C_2
REMARK    2  A    between atoms: C_2  and  C_3
REMARK    3  A    between atoms: C_3  and  C_4
REMARK    4  A    between atoms: C_4  and  C_5
REMARK    5  A    between atoms: C_8  and  O_9
REMARK    6  A    between atoms: O_9  and  C_10
REMARK    7  A    between atoms: N_17  and  C_18
REMARK                            x       y       z     vdW  Elec       q    Type
REMARK                         _______ _______ _______ _____ _____    ______ ____
ROOT
ATOM      1  C   UNL     1       6.027   4.327  16.511  0.00  0.00    +0.000 C 
ATOM      2  C   UNL     1       4.870   4.633  17.476  0.00  0.00    +0.000 A 
ATOM      3  C   UNL     1       4.518   3.712  18.474  0.00  0.00    +0.000 A 
ATOM      4  C   UNL     1       3.606   4.036  19.486  0.00  0.00    +0.000 A 
ATOM      5  C   UNL     1       2.959   5.276  19.421  0.00  0.00    +0.000 A 
ATOM      6 CL   UNL     1       1.793   5.744  20.614  0.00  0.00    +0.000 Cl
ATOM      7  C   UNL     1       3.224   6.165  18.382  0.00  0.00    +0.000 A 
ATOM      8  C   UNL     1       4.194   5.867  17.418  0.00  0.00    +0.000 A 
ATOM      9  C   UNL     1       4.431   6.817  16.270  0.00  0.00    +0.000 C 
ATOM     10  C   UNL     1       5.718   6.523  15.492  0.00  0.00    +0.000 C 
ATOM     11  N   UNL     1       5.825   5.082  15.258  0.00  0.00    +0.000 NA
ATOM     12  C   UNL     1       6.713   4.752  14.158  0.00  0.00    +0.000 C 
ENDROOT
BRANCH   4  13
ATOM     13  O   UNL     1       3.332   3.232  20.560  0.00  0.00    +0.000 OA
ATOM     14  C   UNL     1       4.137   2.071  20.742  0.00  0.00    +0.000 C 
ENDBRANCH   4  13
BRANCH   1  15
ATOM     15  C   UNL     1       7.413   4.535  17.225  0.00  0.00    +0.000 C 
BRANCH  15  16
ATOM     16  C   UNL     1       7.264   4.813  18.735  0.00  0.00    +0.000 C 
BRANCH  16  18
ATOM     17  C   UNL     1       7.866   7.147  18.126  0.00  0.00    +0.000 C 
ATOM     18  C   UNL     1       7.874   6.111  19.252  0.00  0.00    +0.000 C 
ENDBRANCH  16  18
ENDBRANCH  15  16
ENDBRANCH   1  15
TORSDOF 4
ENDMDL
MODEL 7
REMARK VINA RESULT:      -5.8      3.073      4.387
REMARK  Name = 
REMARK  7 active torsions:
REMARK  status: ('A' for Active; 'I' for Inactive)
REMARK    1  A    between atoms: C_1  and  C_2
REMARK    2  A    between atoms: C_2  and  C_3
REMARK    3  A    between atoms: C_3  and  C_4
REMARK    4  A    between atoms: C_4  and  C_5
REMARK    5  A    between atoms: C_8  and  O_9
REMARK    6  A    between atoms: O_9  and  C_10
REMARK    7  A    between atoms: N_17  and  C_18
REMARK                            x       y       z     vdW  Elec       q    Type
REMARK                         _______ _______ _______ _____ _____    ______ ____
ROOT
ATOM      1  C   UNL     1       2.575   6.526  20.117  0.00  0.00    +0.000 C 
ATOM      2  C   UNL     1       3.546   6.412  18.931  0.00  0.00    +0.000 A 
ATOM      3  C   UNL     1       4.584   5.469  18.954  0.00  0.00    +0.000 A 
ATOM      4  C   UNL     1       5.365   5.204  17.822  0.00  0.00    +0.000 A 
ATOM      5  C   UNL     1       5.159   5.988  16.679  0.00  0.00    +0.000 A 
ATOM      6 CL   UNL     1       6.101   5.749  15.245  0.00  0.00    +0.000 Cl
ATOM      7  C   UNL     1       4.197   6.996  16.669  0.00  0.00    +0.000 A 
ATOM      8  C   UNL     1       3.368   7.202  17.778  0.00  0.00    +0.000 A 
ATOM      9  C   UNL     1       2.369   8.332  17.770  0.00  0.00    +0.000 C 
ATOM     10  C   UNL     1       1.332   8.235  18.896  0.00  0.00    +0.000 C 
ATOM     11  N   UNL     1       2.005   7.889  20.148  0.00  0.00    +0.000 NA
ATOM     12  C   UNL     1       1.227   8.234  21.323  0.00  0.00    +0.000 C 
ENDROOT
BRANCH   4  13
ATOM     13  O   UNL     1       6.294   4.202  17.745  0.00  0.00    +0.000 OA
ATOM     14  C   UNL     1       7.664   4.553  17.915  0.00  0.00    +0.000 C 
ENDBRANCH   4  13
BRANCH   1  15
ATOM     15  C   UNL     1       1.535   5.346  20.095  0.00  0.00    +0.000 C 
BRANCH  15  16
ATOM     16  C   UNL     1       1.872   4.242  21.118  0.00  0.00    +0.000 C 
BRANCH  16  18
ATOM     17  C   UNL     1       0.866   2.827  19.338  0.00  0.00    +0.000 C 
ATOM     18  C   UNL     1       1.457   2.823  20.750  0.00  0.00    +0.000 C 
ENDBRANCH  16  18
ENDBRANCH  15  16
ENDBRANCH   1  15
TORSDOF 4
ENDMDL
MODEL 8
REMARK VINA RESULT:      -5.8      1.077      1.581
REMARK  Name = 
REMARK  7 active torsions:
REMARK  status: ('A' for Active; 'I' for Inactive)
REMARK    1  A    between atoms: C_1  and  C_2
REMARK    2  A    between atoms: C_2  and  C_3
REMARK    3  A    between atoms: C_3  and  C_4
REMARK    4  A    between atoms: C_4  and  C_5
REMARK    5  A    between atoms: C_8  and  O_9
REMARK    6  A    between atoms: O_9  and  C_10
REMARK    7  A    between atoms: N_17  and  C_18
REMARK                            x       y       z     vdW  Elec       q    Type
REMARK                         _______ _______ _______ _____ _____    ______ ____
ROOT
ATOM      1  C   UNL     1       4.403   3.692  17.544  0.00  0.00    +0.000 C 
ATOM      2  C   UNL     1       5.399   4.033  16.425  0.00  0.00    +0.000 A 
ATOM      3  C   UNL     1       5.114   3.693  15.095  0.00  0.00    +0.000 A 
ATOM      4  C   UNL     1       5.899   4.155  14.031  0.00  0.00    +0.000 A 
ATOM      5  C   UNL     1       7.057   4.884  14.333  0.00  0.00    +0.000 A 
ATOM      6 CL   UNL     1       8.102   5.466  13.080  0.00  0.00    +0.000 Cl
ATOM      7  C   UNL     1       7.409   5.149  15.654  0.00  0.00    +0.000 A 
ATOM      8  C   UNL     1       6.578   4.751  16.708  0.00  0.00    +0.000 A 
ATOM      9  C   UNL     1       7.001   4.999  18.134  0.00  0.00    +0.000 C 
ATOM     10  C   UNL     1       5.867   4.806  19.148  0.00  0.00    +0.000 C 
ATOM     11  N   UNL     1       5.131   3.583  18.826  0.00  0.00    +0.000 NA
ATOM     12  C   UNL     1       4.377   3.063  19.951  0.00  0.00    +0.000 C 
ENDROOT
BRANCH   4  13
ATOM     13  O   UNL     1       5.590   3.972  12.710  0.00  0.00    +0.000 OA
ATOM     14  C   UNL     1       5.983   2.746  12.100  0.00  0.00    +0.000 C 
ENDBRANCH   4  13
BRANCH   1  15
ATOM     15  C   UNL     1       3.187   4.689  17.526  0.00  0.00    +0.000 C 
BRANCH  15  16
ATOM     16  C   UNL     1       3.632   6.165  17.593  0.00  0.00    +0.000 C 
BRANCH  16  18
ATOM     17  C   UNL     1       2.448   6.830  19.676  0.00  0.00    +0.000 C 
ATOM     18  C   UNL     1       2.635   7.150  18.191  0.00  0.00    +0.000 C 
ENDBRANCH  16  18
ENDBRANCH  15  16
ENDBRANCH   1  15
TORSDOF 4
ENDMDL
MODEL 9
REMARK VINA RESULT:      -5.7      2.953      5.209
REMARK  Name = 
REMARK  7 active torsions:
REMARK  status: ('A' for Active; 'I' for Inactive)
REMARK    1  A    between atoms: C_1  and  C_2
REMARK    2  A    between atoms: C_2  and  C_3
REMARK    3  A    between atoms: C_3  and  C_4
REMARK    4  A    between atoms: C_4  and  C_5
REMARK    5  A    between atoms: C_8  and  O_9
REMARK    6  A    between atoms: O_9  and  C_10
REMARK    7  A    between atoms: N_17  and  C_18
REMARK                            x       y       z     vdW  Elec       q    Type
REMARK                         _______ _______ _______ _____ _____    ______ ____
ROOT
ATOM      1  C   UNL     1       6.239   6.364  16.945  0.00  0.00    +0.000 C 
ATOM      2  C   UNL     1       5.317   5.397  17.706  0.00  0.00    +0.000 A 
ATOM      3  C   UNL     1       4.098   4.992  17.144  0.00  0.00    +0.000 A 
ATOM      4  C   UNL     1       3.327   3.971  17.714  0.00  0.00    +0.000 A 
ATOM      5  C   UNL     1       3.748   3.428  18.934  0.00  0.00    +0.000 A 
ATOM      6 CL   UNL     1       2.838   2.182  19.724  0.00  0.00    +0.000 Cl
ATOM      7  C   UNL     1       4.907   3.885  19.557  0.00  0.00    +0.000 A 
ATOM      8  C   UNL     1       5.714   4.851  18.943  0.00  0.00    +0.000 A 
ATOM      9  C   UNL     1       6.936   5.373  19.655  0.00  0.00    +0.000 C 
ATOM     10  C   UNL     1       7.878   6.170  18.744  0.00  0.00    +0.000 C 
ATOM     11  N   UNL     1       7.092   7.083  17.914  0.00  0.00    +0.000 NA
ATOM     12  C   UNL     1       7.877   8.184  17.386  0.00  0.00    +0.000 C 
ENDROOT
BRANCH   4  13
ATOM     13  O   UNL     1       2.205   3.441  17.136  0.00  0.00    +0.000 OA
ATOM     14  C   UNL     1       0.955   4.064  17.421  0.00  0.00    +0.000 C 
ENDBRANCH   4  13
BRANCH   1  15
ATOM     15  C   UNL     1       6.995   5.613  15.788  0.00  0.00    +0.000 C 
BRANCH  15  16
ATOM     16  C   UNL     1       6.053   5.196  14.640  0.00  0.00    +0.000 C 
BRANCH  16  18
ATOM     17  C   UNL     1       6.106   3.594  12.740  0.00  0.00    +0.000 C 
ATOM     18  C   UNL     1       6.048   3.719  14.264  0.00  0.00    +0.000 C 
ENDBRANCH  16  18
ENDBRANCH  15  16
ENDBRANCH   1  15
TORSDOF 4
ENDMDL
