MODEL 1
REMARK VINA RESULT:      -6.3      0.000      0.000
REMARK  Name = 
REMARK  9 active torsions:
REMARK  status: ('A' for Active; 'I' for Inactive)
REMARK    1  A    between atoms: C_1  and  O_2
REMARK    2  A    between atoms: O_2  and  C_3
REMARK    3  A    between atoms: C_6  and  N_7
REMARK    4  A    between atoms: N_10  and  C_11
REMARK    5  A    between atoms: C_11  and  C_12
REMARK    6  A    between atoms: C_11  and  C_17
REMARK    7  A    between atoms: C_17  and  C_18
REMARK    8  A    between atoms: C_17  and  N_19
REMARK    9  A    between atoms: C_20  and  C_22
REMARK                            x       y       z     vdW  Elec       q    Type
REMARK                         _______ _______ _______ _____ _____    ______ ____
ROOT
ATOM      1  C   UNL     1      -1.289  11.755  21.602  0.00  0.00    +0.000 C 
ENDROOT
BRANCH   1   5
ATOM      2  N   UNL     1       0.655   8.968  20.310  0.00  0.00    +0.000 N 
ATOM      3  C   UNL     1      -0.071   8.860  21.583  0.00  0.00    +0.000 C 
ATOM      4  C   UNL     1       0.264  10.040  22.535  0.00  0.00    +0.000 C 
ATOM      5  N   UNL     1       0.136  11.411  21.935  0.00  0.00    +0.000 NA
ATOM      6  C   UNL     1       1.053  11.363  20.767  0.00  0.00    +0.000 C 
ATOM      7  C   UNL     1       0.699  10.303  19.696  0.00  0.00    +0.000 C 
BRANCH   2  11
ATOM      8  C   UNL     1       3.325   6.027  18.889  0.00  0.00    +0.000 A 
ATOM      9  C   UNL     1       3.086   7.183  18.155  0.00  0.00    +0.000 A 
ATOM     10  C   UNL     1       2.203   8.152  18.634  0.00  0.00    +0.000 A 
ATOM     11  C   UNL     1       1.514   7.991  19.847  0.00  0.00    +0.000 A 
ATOM     12  C   UNL     1       1.745   6.801  20.550  0.00  0.00    +0.000 A 
ATOM     13  C   UNL     1       2.635   5.831  20.082  0.00  0.00    +0.000 A 
BRANCH   8  15
ATOM     14  C   UNL     1       5.516   5.667  18.109  0.00  0.00    +0.000 C 
ATOM     15  O   UNL     1       4.211   5.145  18.335  0.00  0.00    +0.000 OA
ENDBRANCH   8  15
ENDBRANCH   2  11
ENDBRANCH   1   5
BRANCH   1  16
ATOM     16  C   UNL     1      -1.833  12.753  22.668  0.00  0.00    +0.000 A 
ATOM     17  C   UNL     1      -1.165  13.814  23.262  0.00  0.00    +0.000 A 
ATOM     18  C   UNL     1      -1.966  14.516  24.211  0.00  0.00    +0.000 A 
ATOM     19  C   UNL     1      -3.211  13.948  24.349  0.00  0.00    +0.000 A 
ATOM     20  S   UNL     1      -3.451  12.663  23.254  0.00  0.00    +0.000 S 
ENDBRANCH   1  16
BRANCH   1  21
ATOM     21  C   UNL     1      -1.655  12.333  20.143  0.00  0.00    +0.000 C 
ATOM     22  C   UNL     1      -3.116  12.271  19.688  0.00  0.00    +0.000 C 
BRANCH  21  23
ATOM     23  N   UNL     1      -1.221  13.742  19.990  0.00  0.00    +0.000 N 
ATOM     24  C   UNL     1      -0.397  14.143  18.967  0.00  0.00    +0.000 C 
ATOM     25  O   UNL     1       0.014  13.425  18.063  0.00  0.00    +0.000 OA
ATOM     26  H   UNL     1      -1.415  14.402  20.734  0.00  0.00    +0.000 HD
BRANCH  24  27
ATOM     27  C   UNL     1       0.028  15.615  19.016  0.00  0.00    +0.000 C 
ATOM     28  O   UNL     1      -0.665  16.435  18.415  0.00  0.00    +0.000 OA
ATOM     29  N   UNL     1       1.157  15.922  19.759  0.00  0.00    +0.000 N 
ATOM     30  C   UNL     1       2.055  14.947  20.384  0.00  0.00    +0.000 C 
ATOM     31  C   UNL     1       2.067  15.126  21.905  0.00  0.00    +0.000 C 
ATOM     32  O   UNL     1       2.380  16.486  22.258  0.00  0.00    +0.000 OA
ATOM     33  C   UNL     1       1.418  17.396  21.693  0.00  0.00    +0.000 C 
ATOM     34  C   UNL     1       1.410  17.304  20.161  0.00  0.00    +0.000 C 
ENDBRANCH  24  27
ENDBRANCH  21  23
ENDBRANCH   1  21
TORSDOF 7
ENDMDL
MODEL 2
REMARK VINA RESULT:      -6.3      3.235      5.407
REMARK  Name = 
REMARK  9 active torsions:
REMARK  status: ('A' for Active; 'I' for Inactive)
REMARK    1  A    between atoms: C_1  and  O_2
REMARK    2  A    between atoms: O_2  and  C_3
REMARK    3  A    between atoms: C_6  and  N_7
REMARK    4  A    between atoms: N_10  and  C_11
REMARK    5  A    between atoms: C_11  and  C_12
REMARK    6  A    between atoms: C_11  and  C_17
REMARK    7  A    between atoms: C_17  and  C_18
REMARK    8  A    between atoms: C_17  and  N_19
REMARK    9  A    between atoms: C_20  and  C_22
REMARK                            x       y       z     vdW  Elec       q    Type
REMARK                         _______ _______ _______ _____ _____    ______ ____
ROOT
ATOM      1  C   UNL     1       0.115  12.104  20.823  0.00  0.00    +0.000 C 
ENDROOT
BRANCH   1   5
ATOM      2  N   UNL     1       1.532   8.857  20.007  0.00  0.00    +0.000 N 
ATOM      3  C   UNL     1       1.865  10.051  19.216  0.00  0.00    +0.000 C 
ATOM      4  C   UNL     1       0.590  10.802  18.749  0.00  0.00    +0.000 C 
ATOM      5  N   UNL     1      -0.410  11.109  19.827  0.00  0.00    +0.000 NA
ATOM      6  C   UNL     1      -0.730   9.774  20.392  0.00  0.00    +0.000 C 
ATOM      7  C   UNL     1       0.470   9.017  21.011  0.00  0.00    +0.000 C 
BRANCH   2  11
ATOM      8  C   UNL     1       2.702   4.945  18.949  0.00  0.00    +0.000 A 
ATOM      9  C   UNL     1       2.174   5.212  20.206  0.00  0.00    +0.000 A 
ATOM     10  C   UNL     1       1.788   6.509  20.547  0.00  0.00    +0.000 A 
ATOM     11  C   UNL     1       1.934   7.584  19.655  0.00  0.00    +0.000 A 
ATOM     12  C   UNL     1       2.501   7.295  18.407  0.00  0.00    +0.000 A 
ATOM     13  C   UNL     1       2.881   5.997  18.055  0.00  0.00    +0.000 A 
BRANCH   8  15
ATOM     14  C   UNL     1       3.694   3.405  17.471  0.00  0.00    +0.000 C 
ATOM     15  O   UNL     1       3.042   3.642  18.714  0.00  0.00    +0.000 OA
ENDBRANCH   8  15
ENDBRANCH   2  11
ENDBRANCH   1   5
BRANCH   1  16
ATOM     16  C   UNL     1       0.757  13.301  20.058  0.00  0.00    +0.000 A 
ATOM     17  C   UNL     1       2.078  13.724  20.091  0.00  0.00    +0.000 A 
ATOM     18  C   UNL     1       2.317  14.867  19.273  0.00  0.00    +0.000 A 
ATOM     19  C   UNL     1       1.165  15.314  18.669  0.00  0.00    +0.000 A 
ATOM     20  S   UNL     1      -0.161  14.290  18.986  0.00  0.00    +0.000 S 
ENDBRANCH   1  16
BRANCH   1  21
ATOM     21  C   UNL     1      -0.866  12.703  21.954  0.00  0.00    +0.000 C 
ATOM     22  C   UNL     1      -0.463  14.012  22.639  0.00  0.00    +0.000 C 
BRANCH  21  23
ATOM     23  N   UNL     1      -2.239  12.899  21.435  0.00  0.00    +0.000 N 
ATOM     24  C   UNL     1      -3.347  12.472  22.127  0.00  0.00    +0.000 C 
ATOM     25  O   UNL     1      -3.334  11.952  23.237  0.00  0.00    +0.000 OA
ATOM     26  H   UNL     1      -2.367  13.223  20.483  0.00  0.00    +0.000 HD
BRANCH  24  27
ATOM     27  C   UNL     1      -4.682  12.671  21.400  0.00  0.00    +0.000 C 
ATOM     28  O   UNL     1      -4.720  12.446  20.192  0.00  0.00    +0.000 OA
ATOM     29  N   UNL     1      -5.766  13.068  22.169  0.00  0.00    +0.000 N 
ATOM     30  C   UNL     1      -5.711  13.449  23.583  0.00  0.00    +0.000 C 
ATOM     31  C   UNL     1      -6.568  12.499  24.427  0.00  0.00    +0.000 C 
ATOM     32  O   UNL     1      -7.911  12.429  23.913  0.00  0.00    +0.000 OA
ATOM     33  C   UNL     1      -7.916  11.967  22.551  0.00  0.00    +0.000 C 
ATOM     34  C   UNL     1      -7.122  12.919  21.645  0.00  0.00    +0.000 C 
ENDBRANCH  24  27
ENDBRANCH  21  23
ENDBRANCH   1  21
TORSDOF 7
ENDMDL
MODEL 3
REMARK VINA RESULT:      -6.3      0.579      1.014
REMARK  Name = 
REMARK  9 active torsions:
REMARK  status: ('A' for Active; 'I' for Inactive)
REMARK    1  A    between atoms: C_1  and  O_2
REMARK    2  A    between atoms: O_2  and  C_3
REMARK    3  A    between atoms: C_6  and  N_7
REMARK    4  A    between atoms: N_10  and  C_11
REMARK    5  A    between atoms: C_11  and  C_12
REMARK    6  A    between atoms: C_11  and  C_17
REMARK    7  A    between atoms: C_17  and  C_18
REMARK    8  A    between atoms: C_17  and  N_19
REMARK    9  A    between atoms: C_20  and  C_22
REMARK                            x       y       z     vdW  Elec       q    Type
REMARK                         _______ _______ _______ _____ _____    ______ ____
ROOT
ATOM      1  C   UNL     1      -1.049  11.751  21.237  0.00  0.00    +0.000 C 
ENDROOT
BRANCH   1   5
ATOM      2  N   UNL     1       0.971   9.061  19.859  0.00  0.00    +0.000 N 
ATOM      3  C   UNL     1       0.286   8.909  21.151  0.00  0.00    +0.000 C 
ATOM      4  C   UNL     1       0.599  10.092  22.107  0.00  0.00    +0.000 C 
ATOM      5  N   UNL     1       0.398  11.462  21.526  0.00  0.00    +0.000 NA
ATOM      6  C   UNL     1       1.282  11.465  20.334  0.00  0.00    +0.000 C 
ATOM      7  C   UNL     1       0.943  10.403  19.260  0.00  0.00    +0.000 C 
BRANCH   2  11
ATOM      8  C   UNL     1       3.630   6.155  18.346  0.00  0.00    +0.000 A 
ATOM      9  C   UNL     1       3.007   5.976  19.576  0.00  0.00    +0.000 A 
ATOM     10  C   UNL     1       2.127   6.941  20.068  0.00  0.00    +0.000 A 
ATOM     11  C   UNL     1       1.856   8.125  19.362  0.00  0.00    +0.000 A 
ATOM     12  C   UNL     1       2.523   8.298  18.142  0.00  0.00    +0.000 A 
ATOM     13  C   UNL     1       3.397   7.332  17.638  0.00  0.00    +0.000 A 
BRANCH   8  15
ATOM     14  C   UNL     1       4.479   4.009  18.807  0.00  0.00    +0.000 C 
ATOM     15  O   UNL     1       4.467   5.148  17.953  0.00  0.00    +0.000 OA
ENDBRANCH   8  15
ENDBRANCH   2  11
ENDBRANCH   1   5
BRANCH   1  16
ATOM     16  C   UNL     1      -1.618  12.672  22.358  0.00  0.00    +0.000 A 
ATOM     17  C   UNL     1      -0.956  13.669  23.060  0.00  0.00    +0.000 A 
ATOM     18  C   UNL     1      -1.781  14.309  24.031  0.00  0.00    +0.000 A 
ATOM     19  C   UNL     1      -3.041  13.758  24.075  0.00  0.00    +0.000 A 
ATOM     20  S   UNL     1      -3.259  12.568  22.873  0.00  0.00    +0.000 S 
ENDBRANCH   1  16
BRANCH   1  21
ATOM     21  C   UNL     1      -1.474  12.375  19.813  0.00  0.00    +0.000 C 
ATOM     22  C   UNL     1      -2.924  12.201  19.353  0.00  0.00    +0.000 C 
BRANCH  21  23
ATOM     23  N   UNL     1      -1.177  13.825  19.744  0.00  0.00    +0.000 N 
ATOM     24  C   UNL     1      -0.257  14.338  18.862  0.00  0.00    +0.000 C 
ATOM     25  O   UNL     1       0.359  13.692  18.022  0.00  0.00    +0.000 OA
ATOM     26  H   UNL     1      -1.548  14.441  20.457  0.00  0.00    +0.000 HD
BRANCH  24  27
ATOM     27  C   UNL     1      -0.005  15.845  18.990  0.00  0.00    +0.000 C 
ATOM     28  O   UNL     1      -0.769  16.608  18.404  0.00  0.00    +0.000 OA
ATOM     29  N   UNL     1       1.060  16.241  19.784  0.00  0.00    +0.000 N 
ATOM     30  C   UNL     1       2.046  15.345  20.394  0.00  0.00    +0.000 C 
ATOM     31  C   UNL     1       1.993  15.451  21.921  0.00  0.00    +0.000 C 
ATOM     32  O   UNL     1       2.138  16.819  22.345  0.00  0.00    +0.000 OA
ATOM     33  C   UNL     1       1.095  17.641  21.789  0.00  0.00    +0.000 C 
ATOM     34  C   UNL     1       1.141  17.622  20.255  0.00  0.00    +0.000 C 
ENDBRANCH  24  27
ENDBRANCH  21  23
ENDBRANCH   1  21
TORSDOF 7
ENDMDL
MODEL 4
REMARK VINA RESULT:      -6.1      3.292      5.430
REMARK  Name = 
REMARK  9 active torsions:
REMARK  status: ('A' for Active; 'I' for Inactive)
REMARK    1  A    between atoms: C_1  and  O_2
REMARK    2  A    between atoms: O_2  and  C_3
REMARK    3  A    between atoms: C_6  and  N_7
REMARK    4  A    between atoms: N_10  and  C_11
REMARK    5  A    between atoms: C_11  and  C_12
REMARK    6  A    between atoms: C_11  and  C_17
REMARK    7  A    between atoms: C_17  and  C_18
REMARK    8  A    between atoms: C_17  and  N_19
REMARK    9  A    between atoms: C_20  and  C_22
REMARK                            x       y       z     vdW  Elec       q    Type
REMARK                         _______ _______ _______ _____ _____    ______ ____
ROOT
ATOM      1  C   UNL     1      -0.086  12.838  20.850  0.00  0.00    +0.000 C 
ENDROOT
BRANCH   1   5
ATOM      2  N   UNL     1       1.342   9.613  19.971  0.00  0.00    +0.000 N 
ATOM      3  C   UNL     1       1.654  10.818  19.190  0.00  0.00    +0.000 C 
ATOM      4  C   UNL     1       0.365  11.566  18.752  0.00  0.00    +0.000 C 
ATOM      5  N   UNL     1      -0.620  11.852  19.850  0.00  0.00    +0.000 NA
ATOM      6  C   UNL     1      -0.920  10.507  20.403  0.00  0.00    +0.000 C 
ATOM      7  C   UNL     1       0.295   9.752  20.994  0.00  0.00    +0.000 C 
BRANCH   2  11
ATOM      8  C   UNL     1       2.638   5.770  18.809  0.00  0.00    +0.000 A 
ATOM      9  C   UNL     1       2.659   6.829  17.909  0.00  0.00    +0.000 A 
ATOM     10  C   UNL     1       2.230   8.097  18.302  0.00  0.00    +0.000 A 
ATOM     11  C   UNL     1       1.748   8.347  19.597  0.00  0.00    +0.000 A 
ATOM     12  C   UNL     1       1.703   7.256  20.475  0.00  0.00    +0.000 A 
ATOM     13  C   UNL     1       2.140   5.985  20.092  0.00  0.00    +0.000 A 
BRANCH   8  15
ATOM     14  C   UNL     1       2.346   3.435  18.759  0.00  0.00    +0.000 C 
ATOM     15  O   UNL     1       3.085   4.572  18.325  0.00  0.00    +0.000 OA
ENDBRANCH   8  15
ENDBRANCH   2  11
ENDBRANCH   1   5
BRANCH   1  16
ATOM     16  C   UNL     1       0.692  13.959  20.095  0.00  0.00    +0.000 A 
ATOM     17  C   UNL     1       0.216  14.810  19.109  0.00  0.00    +0.000 A 
ATOM     18  C   UNL     1       1.209  15.711  18.624  0.00  0.00    +0.000 A 
ATOM     19  C   UNL     1       2.429  15.498  19.222  0.00  0.00    +0.000 A 
ATOM     20  S   UNL     1       2.343  14.309  20.442  0.00  0.00    +0.000 S 
ENDBRANCH   1  16
BRANCH   1  21
ATOM     21  C   UNL     1      -1.089  13.544  21.896  0.00  0.00    +0.000 C 
ATOM     22  C   UNL     1      -0.800  14.989  22.311  0.00  0.00    +0.000 C 
BRANCH  21  23
ATOM     23  N   UNL     1      -2.489  13.512  21.413  0.00  0.00    +0.000 N 
ATOM     24  C   UNL     1      -3.435  12.689  21.975  0.00  0.00    +0.000 C 
ATOM     25  O   UNL     1      -3.255  11.957  22.941  0.00  0.00    +0.000 OA
ATOM     26  H   UNL     1      -2.729  13.998  20.556  0.00  0.00    +0.000 HD
BRANCH  24  27
ATOM     27  C   UNL     1      -4.807  12.715  21.291  0.00  0.00    +0.000 C 
ATOM     28  O   UNL     1      -4.863  12.416  20.100  0.00  0.00    +0.000 OA
ATOM     29  N   UNL     1      -5.898  13.052  22.077  0.00  0.00    +0.000 N 
ATOM     30  C   UNL     1      -5.834  13.520  23.465  0.00  0.00    +0.000 C 
ATOM     31  C   UNL     1      -6.565  12.545  24.393  0.00  0.00    +0.000 C 
ATOM     32  O   UNL     1      -7.911  12.316  23.938  0.00  0.00    +0.000 OA
ATOM     33  C   UNL     1      -7.916  11.774  22.604  0.00  0.00    +0.000 C 
ATOM     34  C   UNL     1      -7.250  12.743  21.617  0.00  0.00    +0.000 C 
ENDBRANCH  24  27
ENDBRANCH  21  23
ENDBRANCH   1  21
TORSDOF 7
ENDMDL
MODEL 5
REMARK VINA RESULT:      -6.1      3.327      5.473
REMARK  Name = 
REMARK  9 active torsions:
REMARK  status: ('A' for Active; 'I' for Inactive)
REMARK    1  A    between atoms: C_1  and  O_2
REMARK    2  A    between atoms: O_2  and  C_3
REMARK    3  A    between atoms: C_6  and  N_7
REMARK    4  A    between atoms: N_10  and  C_11
REMARK    5  A    between atoms: C_11  and  C_12
REMARK    6  A    between atoms: C_11  and  C_17
REMARK    7  A    between atoms: C_17  and  C_18
REMARK    8  A    between atoms: C_17  and  N_19
REMARK    9  A    between atoms: C_20  and  C_22
REMARK                            x       y       z     vdW  Elec       q    Type
REMARK                         _______ _______ _______ _____ _____    ______ ____
ROOT
ATOM      1  C   UNL     1      -1.233  14.003  21.512  0.00  0.00    +0.000 C 
ENDROOT
BRANCH   1   5
ATOM      2  N   UNL     1       0.589  11.147  20.192  0.00  0.00    +0.000 N 
ATOM      3  C   UNL     1       0.604  12.443  19.498  0.00  0.00    +0.000 C 
ATOM      4  C   UNL     1      -0.833  12.985  19.269  0.00  0.00    +0.000 C 
ATOM      5  N   UNL     1      -1.714  13.014  20.486  0.00  0.00    +0.000 NA
ATOM      6  C   UNL     1      -1.721  11.601  20.941  0.00  0.00    +0.000 C 
ATOM      7  C   UNL     1      -0.336  11.027  21.328  0.00  0.00    +0.000 C 
BRANCH   2  11
ATOM      8  C   UNL     1       2.253   7.614  18.596  0.00  0.00    +0.000 A 
ATOM      9  C   UNL     1       1.905   7.691  19.940  0.00  0.00    +0.000 A 
ATOM     10  C   UNL     1       1.353   8.863  20.459  0.00  0.00    +0.000 A 
ATOM     11  C   UNL     1       1.150  10.002  19.663  0.00  0.00    +0.000 A 
ATOM     12  C   UNL     1       1.542   9.911  18.321  0.00  0.00    +0.000 A 
ATOM     13  C   UNL     1       2.086   8.738  17.791  0.00  0.00    +0.000 A 
BRANCH   8  15
ATOM     14  C   UNL     1       3.344   5.626  19.224  0.00  0.00    +0.000 C 
ATOM     15  O   UNL     1       2.779   6.420  18.188  0.00  0.00    +0.000 OA
ENDBRANCH   8  15
ENDBRANCH   2  11
ENDBRANCH   1   5
BRANCH   1  16
ATOM     16  C   UNL     1      -1.371  15.444  20.934  0.00  0.00    +0.000 A 
ATOM     17  C   UNL     1      -2.530  16.097  20.540  0.00  0.00    +0.000 A 
ATOM     18  C   UNL     1      -2.288  17.410  20.042  0.00  0.00    +0.000 A 
ATOM     19  C   UNL     1      -0.946  17.714  20.029  0.00  0.00    +0.000 A 
ATOM     20  S   UNL     1      -0.005  16.474  20.727  0.00  0.00    +0.000 S 
ENDBRANCH   1  16
BRANCH   1  21
ATOM     21  C   UNL     1      -1.869  13.996  22.993  0.00  0.00    +0.000 C 
ATOM     22  C   UNL     1      -1.391  15.056  23.989  0.00  0.00    +0.000 C 
BRANCH  21  23
ATOM     23  N   UNL     1      -3.347  14.086  22.952  0.00  0.00    +0.000 N 
ATOM     24  C   UNL     1      -4.151  13.037  23.326  0.00  0.00    +0.000 C 
ATOM     25  O   UNL     1      -3.759  11.966  23.776  0.00  0.00    +0.000 OA
ATOM     26  H   UNL     1      -3.782  14.884  22.502  0.00  0.00    +0.000 HD
BRANCH  24  27
ATOM     27  C   UNL     1      -5.654  13.270  23.131  0.00  0.00    +0.000 C 
ATOM     28  O   UNL     1      -6.289  13.750  24.069  0.00  0.00    +0.000 OA
ATOM     29  N   UNL     1      -6.188  12.944  21.895  0.00  0.00    +0.000 N 
ATOM     30  C   UNL     1      -5.471  12.268  20.810  0.00  0.00    +0.000 C 
ATOM     31  C   UNL     1      -5.399  13.167  19.573  0.00  0.00    +0.000 C 
ATOM     32  O   UNL     1      -6.712  13.614  19.187  0.00  0.00    +0.000 OA
ATOM     33  C   UNL     1      -7.338  14.347  20.254  0.00  0.00    +0.000 C 
ATOM     34  C   UNL     1      -7.494  13.470  21.505  0.00  0.00    +0.000 C 
ENDBRANCH  24  27
ENDBRANCH  21  23
ENDBRANCH   1  21
TORSDOF 7
ENDMDL
MODEL 6
REMARK VINA RESULT:      -6.0      2.848      4.667
REMARK  Name = 
REMARK  9 active torsions:
REMARK  status: ('A' for Active; 'I' for Inactive)
REMARK    1  A    between atoms: C_1  and  O_2
REMARK    2  A    between atoms: O_2  and  C_3
REMARK    3  A    between atoms: C_6  and  N_7
REMARK    4  A    between atoms: N_10  and  C_11
REMARK    5  A    between atoms: C_11  and  C_12
REMARK    6  A    between atoms: C_11  and  C_17
REMARK    7  A    between atoms: C_17  and  C_18
REMARK    8  A    between atoms: C_17  and  N_19
REMARK    9  A    between atoms: C_20  and  C_22
REMARK                            x       y       z     vdW  Elec       q    Type
REMARK                         _______ _______ _______ _____ _____    ______ ____
ROOT
ATOM      1  C   UNL     1      -0.714  12.093  20.439  0.00  0.00    +0.000 C 
ENDROOT
BRANCH   1   5
ATOM      2  N   UNL     1       1.161   9.109  19.544  0.00  0.00    +0.000 N 
ATOM      3  C   UNL     1       0.587   9.270  20.888  0.00  0.00    +0.000 C 
ATOM      4  C   UNL     1       0.989  10.628  21.524  0.00  0.00    +0.000 C 
ATOM      5  N   UNL     1       0.750  11.838  20.667  0.00  0.00    +0.000 NA
ATOM      6  C   UNL     1       1.529  11.550  19.436  0.00  0.00    +0.000 C 
ATOM      7  C   UNL     1       1.091  10.283  18.662  0.00  0.00    +0.000 C 
BRANCH   2  11
ATOM      8  C   UNL     1       3.655   5.870  18.503  0.00  0.00    +0.000 A 
ATOM      9  C   UNL     1       2.949   5.867  19.700  0.00  0.00    +0.000 A 
ATOM     10  C   UNL     1       2.125   6.941  20.036  0.00  0.00    +0.000 A 
ATOM     11  C   UNL     1       1.993   8.063  19.200  0.00  0.00    +0.000 A 
ATOM     12  C   UNL     1       2.742   8.058  18.016  0.00  0.00    +0.000 A 
ATOM     13  C   UNL     1       3.561   6.981  17.668  0.00  0.00    +0.000 A 
BRANCH   8  15
ATOM     14  C   UNL     1       3.906   3.546  18.780  0.00  0.00    +0.000 C 
ATOM     15  O   UNL     1       4.427   4.767  18.267  0.00  0.00    +0.000 OA
ENDBRANCH   8  15
ENDBRANCH   2  11
ENDBRANCH   1   5
BRANCH   1  16
ATOM     16  C   UNL     1      -1.372  12.522  21.785  0.00  0.00    +0.000 A 
ATOM     17  C   UNL     1      -2.414  11.904  22.460  0.00  0.00    +0.000 A 
ATOM     18  C   UNL     1      -2.776  12.577  23.664  0.00  0.00    +0.000 A 
ATOM     19  C   UNL     1      -2.029  13.715  23.858  0.00  0.00    +0.000 A 
ATOM     20  S   UNL     1      -0.823  13.898  22.666  0.00  0.00    +0.000 S 
ENDBRANCH   1  16
BRANCH   1  21
ATOM     21  C   UNL     1      -1.180  13.135  19.301  0.00  0.00    +0.000 C 
ATOM     22  C   UNL     1      -0.323  13.255  18.038  0.00  0.00    +0.000 C 
BRANCH  21  23
ATOM     23  N   UNL     1      -2.566  12.865  18.850  0.00  0.00    +0.000 N 
ATOM     24  C   UNL     1      -2.979  11.609  18.476  0.00  0.00    +0.000 C 
ATOM     25  O   UNL     1      -2.295  10.593  18.524  0.00  0.00    +0.000 OA
ATOM     26  H   UNL     1      -3.189  13.645  18.673  0.00  0.00    +0.000 HD
BRANCH  24  27
ATOM     27  C   UNL     1      -4.416  11.529  17.949  0.00  0.00    +0.000 C 
ATOM     28  O   UNL     1      -4.607  10.939  16.887  0.00  0.00    +0.000 OA
ATOM     29  N   UNL     1      -5.407  12.109  18.725  0.00  0.00    +0.000 N 
ATOM     30  C   UNL     1      -5.182  12.912  19.930  0.00  0.00    +0.000 C 
ATOM     31  C   UNL     1      -5.829  12.244  21.147  0.00  0.00    +0.000 C 
ATOM     32  O   UNL     1      -7.222  11.974  20.903  0.00  0.00    +0.000 OA
ATOM     33  C   UNL     1      -7.384  11.111  19.762  0.00  0.00    +0.000 C 
ATOM     34  C   UNL     1      -6.807  11.761  18.496  0.00  0.00    +0.000 C 
ENDBRANCH  24  27
ENDBRANCH  21  23
ENDBRANCH   1  21
TORSDOF 7
ENDMDL
MODEL 7
REMARK VINA RESULT:      -6.0      1.075      1.105
REMARK  Name = 
REMARK  9 active torsions:
REMARK  status: ('A' for Active; 'I' for Inactive)
REMARK    1  A    between atoms: C_1  and  O_2
REMARK    2  A    between atoms: O_2  and  C_3
REMARK    3  A    between atoms: C_6  and  N_7
REMARK    4  A    between atoms: N_10  and  C_11
REMARK    5  A    between atoms: C_11  and  C_12
REMARK    6  A    between atoms: C_11  and  C_17
REMARK    7  A    between atoms: C_17  and  C_18
REMARK    8  A    between atoms: C_17  and  N_19
REMARK    9  A    between atoms: C_20  and  C_22
REMARK                            x       y       z     vdW  Elec       q    Type
REMARK                         _______ _______ _______ _____ _____    ______ ____
ROOT
ATOM      1  C   UNL     1      -1.165  11.862  21.342  0.00  0.00    +0.000 C 
ENDROOT
BRANCH   1   5
ATOM      2  N   UNL     1       0.848   9.207  19.889  0.00  0.00    +0.000 N 
ATOM      3  C   UNL     1       0.152   9.017  21.170  0.00  0.00    +0.000 C 
ATOM      4  C   UNL     1       0.466  10.164  22.167  0.00  0.00    +0.000 C 
ATOM      5  N   UNL     1       0.278  11.555  21.632  0.00  0.00    +0.000 NA
ATOM      6  C   UNL     1       1.171  11.592  20.446  0.00  0.00    +0.000 C 
ATOM      7  C   UNL     1       0.832  10.569  19.335  0.00  0.00    +0.000 C 
BRANCH   2  11
ATOM      8  C   UNL     1       3.587   6.429  18.284  0.00  0.00    +0.000 A 
ATOM      9  C   UNL     1       3.251   7.581  17.583  0.00  0.00    +0.000 A 
ATOM     10  C   UNL     1       2.346   8.495  18.122  0.00  0.00    +0.000 A 
ATOM     11  C   UNL     1       1.730   8.282  19.367  0.00  0.00    +0.000 A 
ATOM     12  C   UNL     1       2.058   7.097  20.037  0.00  0.00    +0.000 A 
ATOM     13  C   UNL     1       2.972   6.181  19.509  0.00  0.00    +0.000 A 
BRANCH   8  15
ATOM     14  C   UNL     1       5.817   6.107  17.602  0.00  0.00    +0.000 C 
ATOM     15  O   UNL     1       4.488   5.603  17.671  0.00  0.00    +0.000 OA
ENDBRANCH   8  15
ENDBRANCH   2  11
ENDBRANCH   1   5
BRANCH   1  16
ATOM     16  C   UNL     1      -1.724  12.787  22.466  0.00  0.00    +0.000 A 
ATOM     17  C   UNL     1      -1.066  13.809  23.134  0.00  0.00    +0.000 A 
ATOM     18  C   UNL     1      -1.878  14.444  24.119  0.00  0.00    +0.000 A 
ATOM     19  C   UNL     1      -3.123  13.865  24.207  0.00  0.00    +0.000 A 
ATOM     20  S   UNL     1      -3.347  12.653  23.029  0.00  0.00    +0.000 S 
ENDBRANCH   1  16
BRANCH   1  21
ATOM     21  C   UNL     1      -1.581  12.497  19.920  0.00  0.00    +0.000 C 
ATOM     22  C   UNL     1      -2.941  12.116  19.329  0.00  0.00    +0.000 C 
BRANCH  21  23
ATOM     23  N   UNL     1      -1.529  13.978  19.948  0.00  0.00    +0.000 N 
ATOM     24  C   UNL     1      -0.629  14.689  19.193  0.00  0.00    +0.000 C 
ATOM     25  O   UNL     1       0.167  14.207  18.395  0.00  0.00    +0.000 OA
ATOM     26  H   UNL     1      -2.068  14.478  20.646  0.00  0.00    +0.000 HD
BRANCH  24  27
ATOM     27  C   UNL     1      -0.651  16.206  19.416  0.00  0.00    +0.000 C 
ATOM     28  O   UNL     1      -1.677  16.706  19.874  0.00  0.00    +0.000 OA
ATOM     29  N   UNL     1       0.505  16.907  19.106  0.00  0.00    +0.000 N 
ATOM     30  C   UNL     1       1.691  16.344  18.454  0.00  0.00    +0.000 C 
ATOM     31  C   UNL     1       2.910  16.452  19.375  0.00  0.00    +0.000 C 
ATOM     32  O   UNL     1       3.100  17.810  19.816  0.00  0.00    +0.000 OA
ATOM     33  C   UNL     1       1.942  18.285  20.526  0.00  0.00    +0.000 C 
ATOM     34  C   UNL     1       0.698  18.258  19.626  0.00  0.00    +0.000 C 
ENDBRANCH  24  27
ENDBRANCH  21  23
ENDBRANCH   1  21
TORSDOF 7
ENDMDL
MODEL 8
REMARK VINA RESULT:      -5.9      3.072      5.010
REMARK  Name = 
REMARK  9 active torsions:
REMARK  status: ('A' for Active; 'I' for Inactive)
REMARK    1  A    between atoms: C_1  and  O_2
REMARK    2  A    between atoms: O_2  and  C_3
REMARK    3  A    between atoms: C_6  and  N_7
REMARK    4  A    between atoms: N_10  and  C_11
REMARK    5  A    between atoms: C_11  and  C_12
REMARK    6  A    between atoms: C_11  and  C_17
REMARK    7  A    between atoms: C_17  and  C_18
REMARK    8  A    between atoms: C_17  and  N_19
REMARK    9  A    between atoms: C_20  and  C_22
REMARK                            x       y       z     vdW  Elec       q    Type
REMARK                         _______ _______ _______ _____ _____    ______ ____
ROOT
ATOM      1  C   UNL     1      -0.095  12.497  20.929  0.00  0.00    +0.000 C 
ENDROOT
BRANCH   1   5
ATOM      2  N   UNL     1       1.346   9.265  20.095  0.00  0.00    +0.000 N 
ATOM      3  C   UNL     1       1.729  10.479  19.360  0.00  0.00    +0.000 C 
ATOM      4  C   UNL     1       0.485  11.253  18.846  0.00  0.00    +0.000 C 
ATOM      5  N   UNL     1      -0.571  11.535  19.876  0.00  0.00    +0.000 NA
ATOM      6  C   UNL     1      -0.928  10.186  20.384  0.00  0.00    +0.000 C 
ATOM      7  C   UNL     1       0.232   9.403  21.044  0.00  0.00    +0.000 C 
BRANCH   2  11
ATOM      8  C   UNL     1       2.667   5.423  18.959  0.00  0.00    +0.000 A 
ATOM      9  C   UNL     1       2.770   6.497  18.082  0.00  0.00    +0.000 A 
ATOM     10  C   UNL     1       2.332   7.765  18.467  0.00  0.00    +0.000 A 
ATOM     11  C   UNL     1       1.760   8.000  19.728  0.00  0.00    +0.000 A 
ATOM     12  C   UNL     1       1.635   6.894  20.579  0.00  0.00    +0.000 A 
ATOM     13  C   UNL     1       2.080   5.624  20.205  0.00  0.00    +0.000 A 
BRANCH   8  15
ATOM     14  C   UNL     1       3.981   4.317  17.348  0.00  0.00    +0.000 C 
ATOM     15  O   UNL     1       3.130   4.226  18.486  0.00  0.00    +0.000 OA
ENDBRANCH   8  15
ENDBRANCH   2  11
ENDBRANCH   1   5
BRANCH   1  16
ATOM     16  C   UNL     1       0.498  13.760  20.234  0.00  0.00    +0.000 A 
ATOM     17  C   UNL     1       1.769  14.296  20.380  0.00  0.00    +0.000 A 
ATOM     18  C   UNL     1       1.970  15.472  19.600  0.00  0.00    +0.000 A 
ATOM     19  C   UNL     1       0.835  15.829  18.910  0.00  0.00    +0.000 A 
ATOM     20  S   UNL     1      -0.416  14.687  19.105  0.00  0.00    +0.000 S 
ENDBRANCH   1  16
BRANCH   1  21
ATOM     21  C   UNL     1      -1.107  12.990  22.083  0.00  0.00    +0.000 C 
ATOM     22  C   UNL     1      -0.734  14.240  22.885  0.00  0.00    +0.000 C 
BRANCH  21  23
ATOM     23  N   UNL     1      -2.470  13.216  21.551  0.00  0.00    +0.000 N 
ATOM     24  C   UNL     1      -3.589  12.724  22.179  0.00  0.00    +0.000 C 
ATOM     25  O   UNL     1      -3.596  12.114  23.242  0.00  0.00    +0.000 OA
ATOM     26  H   UNL     1      -2.581  13.618  20.627  0.00  0.00    +0.000 HD
BRANCH  24  27
ATOM     27  C   UNL     1      -4.910  12.972  21.441  0.00  0.00    +0.000 C 
ATOM     28  O   UNL     1      -5.281  12.128  20.627  0.00  0.00    +0.000 OA
ATOM     29  N   UNL     1      -5.608  14.124  21.766  0.00  0.00    +0.000 N 
ATOM     30  C   UNL     1      -5.125  15.191  22.647  0.00  0.00    +0.000 C 
ATOM     31  C   UNL     1      -6.039  15.334  23.867  0.00  0.00    +0.000 C 
ATOM     32  O   UNL     1      -7.409  15.515  23.463  0.00  0.00    +0.000 OA
ATOM     33  C   UNL     1      -7.862  14.399  22.674  0.00  0.00    +0.000 C 
ATOM     34  C   UNL     1      -7.017  14.248  21.401  0.00  0.00    +0.000 C 
ENDBRANCH  24  27
ENDBRANCH  21  23
ENDBRANCH   1  21
TORSDOF 7
ENDMDL
MODEL 9
REMARK VINA RESULT:      -5.9      3.151      5.216
REMARK  Name = 
REMARK  9 active torsions:
REMARK  status: ('A' for Active; 'I' for Inactive)
REMARK    1  A    between atoms: C_1  and  O_2
REMARK    2  A    between atoms: O_2  and  C_3
REMARK    3  A    between atoms: C_6  and  N_7
REMARK    4  A    between atoms: N_10  and  C_11
REMARK    5  A    between atoms: C_11  and  C_12
REMARK    6  A    between atoms: C_11  and  C_17
REMARK    7  A    between atoms: C_17  and  C_18
REMARK    8  A    between atoms: C_17  and  N_19
REMARK    9  A    between atoms: C_20  and  C_22
REMARK                            x       y       z     vdW  Elec       q    Type
REMARK                         _______ _______ _______ _____ _____    ______ ____
ROOT
ATOM      1  C   UNL     1      -0.115  11.867  21.579  0.00  0.00    +0.000 C 
ENDROOT
BRANCH   1   5
ATOM      2  N   UNL     1       1.394   8.770  20.418  0.00  0.00    +0.000 N 
ATOM      3  C   UNL     1       1.001   9.824  19.472  0.00  0.00    +0.000 C 
ATOM      4  C   UNL     1      -0.469  10.272  19.693  0.00  0.00    +0.000 C 
ATOM      5  N   UNL     1      -0.829  10.631  21.107  0.00  0.00    +0.000 NA
ATOM      6  C   UNL     1      -0.505   9.398  21.868  0.00  0.00    +0.000 C 
ATOM      7  C   UNL     1       0.980   8.963  21.816  0.00  0.00    +0.000 C 
BRANCH   2  11
ATOM      8  C   UNL     1       2.822   4.997  19.186  0.00  0.00    +0.000 A 
ATOM      9  C   UNL     1       2.960   6.110  18.366  0.00  0.00    +0.000 A 
ATOM     10  C   UNL     1       2.487   7.356  18.782  0.00  0.00    +0.000 A 
ATOM     11  C   UNL     1       1.843   7.527  20.019  0.00  0.00    +0.000 A 
ATOM     12  C   UNL     1       1.684   6.383  20.811  0.00  0.00    +0.000 A 
ATOM     13  C   UNL     1       2.165   5.135  20.406  0.00  0.00    +0.000 A 
BRANCH   8  15
ATOM     14  C   UNL     1       2.669   2.649  19.140  0.00  0.00    +0.000 C 
ATOM     15  O   UNL     1       3.326   3.827  18.687  0.00  0.00    +0.000 OA
ENDBRANCH   8  15
ENDBRANCH   2  11
ENDBRANCH   1   5
BRANCH   1  16
ATOM     16  C   UNL     1       0.162  12.793  20.356  0.00  0.00    +0.000 A 
ATOM     17  C   UNL     1      -0.757  13.323  19.462  0.00  0.00    +0.000 A 
ATOM     18  C   UNL     1      -0.151  14.122  18.448  0.00  0.00    +0.000 A 
ATOM     19  C   UNL     1       1.219  14.148  18.568  0.00  0.00    +0.000 A 
ATOM     20  S   UNL     1       1.754  13.322  19.960  0.00  0.00    +0.000 S 
ENDBRANCH   1  16
BRANCH   1  21
ATOM     21  C   UNL     1      -0.760  12.768  22.751  0.00  0.00    +0.000 C 
ATOM     22  C   UNL     1      -0.551  14.283  22.694  0.00  0.00    +0.000 C 
BRANCH  21  23
ATOM     23  N   UNL     1      -2.219  12.543  22.869  0.00  0.00    +0.000 N 
ATOM     24  C   UNL     1      -2.984  13.204  23.800  0.00  0.00    +0.000 C 
ATOM     25  O   UNL     1      -2.577  14.064  24.573  0.00  0.00    +0.000 OA
ATOM     26  H   UNL     1      -2.647  11.782  22.354  0.00  0.00    +0.000 HD
BRANCH  24  27
ATOM     27  C   UNL     1      -4.457  12.782  23.847  0.00  0.00    +0.000 C 
ATOM     28  O   UNL     1      -4.761  11.828  24.562  0.00  0.00    +0.000 OA
ATOM     29  N   UNL     1      -5.352  13.527  23.095  0.00  0.00    +0.000 N 
ATOM     30  C   UNL     1      -4.991  14.591  22.153  0.00  0.00    +0.000 C 
ATOM     31  C   UNL     1      -5.592  15.927  22.598  0.00  0.00    +0.000 C 
ATOM     32  O   UNL     1      -7.013  15.809  22.797  0.00  0.00    +0.000 OA
ATOM     33  C   UNL     1      -7.310  14.814  23.794  0.00  0.00    +0.000 C 
ATOM     34  C   UNL     1      -6.784  13.436  23.368  0.00  0.00    +0.000 C 
ENDBRANCH  24  27
ENDBRANCH  21  23
ENDBRANCH   1  21
TORSDOF 7
ENDMDL
