MODEL 1
REMARK VINA RESULT:      -6.6      0.000      0.000
REMARK  Name = 
REMARK  7 active torsions:
REMARK  status: ('A' for Active; 'I' for Inactive)
REMARK    1  A    between atoms: C_1  and  O_2
REMARK    2  A    between atoms: O_2  and  C_3
REMARK    3  A    between atoms: C_11  and  O_12
REMARK    4  A    between atoms: O_12  and  C_13
REMARK    5  A    between atoms: C_13  and  C_14
REMARK    6  A    between atoms: C_20  and  O_21
REMARK    7  A    between atoms: O_21  and  C_22
REMARK                            x       y       z     vdW  Elec       q    Type
REMARK                         _______ _______ _______ _____ _____    ______ ____
ROOT
ATOM      1  C   UNL     1       0.622  10.482  20.930  0.00  0.00    +0.000 A 
ATOM      2  C   UNL     1      -0.405  11.308  21.396  0.00  0.00    +0.000 A 
ATOM      3  C   UNL     1      -1.564  11.634  20.653  0.00  0.00    +0.000 A 
ATOM      4  C   UNL     1      -2.606  12.419  21.222  0.00  0.00    +0.000 A 
ATOM      5  C   UNL     1      -3.775  12.685  20.492  0.00  0.00    +0.000 A 
ATOM      6  C   UNL     1      -3.915  12.184  19.169  0.00  0.00    +0.000 A 
ATOM      7  C   UNL     1      -5.115  12.400  18.457  0.00  0.00    +0.000 A 
ATOM      8  C   UNL     1      -5.321  11.953  17.160  0.00  0.00    +0.000 A 
ATOM      9  C   UNL     1      -4.299  11.311  16.491  0.00  0.00    +0.000 A 
ATOM     10  C   UNL     1      -3.101  11.050  17.184  0.00  0.00    +0.000 A 
ATOM     11  C   UNL     1      -2.871  11.445  18.549  0.00  0.00    +0.000 A 
ATOM     12  C   UNL     1      -1.679  11.135  19.326  0.00  0.00    +0.000 A 
ATOM     13  C   UNL     1      -0.595  10.321  18.854  0.00  0.00    +0.000 A 
ATOM     14  C   UNL     1       0.534   9.979  19.635  0.00  0.00    +0.000 A 
ATOM     15  C   UNL     1      -4.921  13.489  21.101  0.00  0.00    +0.000 C 
ATOM     16  N   UNL     1      -4.825  13.945  22.476  0.00  0.00    +0.000 NA
ATOM     17  C   UNL     1      -4.786  15.385  22.642  0.00  0.00    +0.000 C 
ATOM     18  C   UNL     1      -4.298  15.590  24.063  0.00  0.00    +0.000 C 
ATOM     19  C   UNL     1      -3.642  14.278  24.477  0.00  0.00    +0.000 C 
ATOM     20  C   UNL     1      -3.810  13.318  23.297  0.00  0.00    +0.000 C 
ATOM     21  C   UNL     1      -2.473  13.037  22.602  0.00  0.00    +0.000 C 
ENDROOT
BRANCH   1  23
ATOM     22  C   UNL     1       1.487   9.198  22.784  0.00  0.00    +0.000 C 
ATOM     23  O   UNL     1       1.587  10.288  21.882  0.00  0.00    +0.000 OA
ENDBRANCH   1  23
BRANCH  14  24
ATOM     24  O   UNL     1       1.555   9.177  19.207  0.00  0.00    +0.000 OA
ATOM     25  C   UNL     1       1.859   9.117  17.824  0.00  0.00    +0.000 C 
ENDBRANCH  14  24
BRANCH   9  26
ATOM     26  O   UNL     1      -4.390  10.883  15.189  0.00  0.00    +0.000 OA
BRANCH  26  27
ATOM     27  C   UNL     1      -3.225  10.207  14.677  0.00  0.00    +0.000 C 
BRANCH  27  28
ATOM     28  C   UNL     1      -3.402   9.811  13.269  0.00  0.00    +0.000 C 
ATOM     29  N   UNL     1      -3.496   9.553  12.141  0.00  0.00    +0.000 NA
ENDBRANCH  27  28
ENDBRANCH  26  27
ENDBRANCH   9  26
TORSDOF 5
ENDMDL
MODEL 2
REMARK VINA RESULT:      -6.6      0.961      1.165
REMARK  Name = 
REMARK  7 active torsions:
REMARK  status: ('A' for Active; 'I' for Inactive)
REMARK    1  A    between atoms: C_1  and  O_2
REMARK    2  A    between atoms: O_2  and  C_3
REMARK    3  A    between atoms: C_11  and  O_12
REMARK    4  A    between atoms: O_12  and  C_13
REMARK    5  A    between atoms: C_13  and  C_14
REMARK    6  A    between atoms: C_20  and  O_21
REMARK    7  A    between atoms: O_21  and  C_22
REMARK                            x       y       z     vdW  Elec       q    Type
REMARK                         _______ _______ _______ _____ _____    ______ ____
ROOT
ATOM      1  C   UNL     1       0.845   9.884  20.796  0.00  0.00    +0.000 A 
ATOM      2  C   UNL     1      -0.223  10.749  21.054  0.00  0.00    +0.000 A 
ATOM      3  C   UNL     1      -1.237  11.062  20.118  0.00  0.00    +0.000 A 
ATOM      4  C   UNL     1      -2.337  11.891  20.477  0.00  0.00    +0.000 A 
ATOM      5  C   UNL     1      -3.366  12.144  19.556  0.00  0.00    +0.000 A 
ATOM      6  C   UNL     1      -3.303  11.586  18.249  0.00  0.00    +0.000 A 
ATOM      7  C   UNL     1      -4.366  11.791  17.344  0.00  0.00    +0.000 A 
ATOM      8  C   UNL     1      -4.370  11.289  16.051  0.00  0.00    +0.000 A 
ATOM      9  C   UNL     1      -3.270  10.599  15.584  0.00  0.00    +0.000 A 
ATOM     10  C   UNL     1      -2.207  10.347  16.474  0.00  0.00    +0.000 A 
ATOM     11  C   UNL     1      -2.191  10.801  17.840  0.00  0.00    +0.000 A 
ATOM     12  C   UNL     1      -1.149  10.505  18.812  0.00  0.00    +0.000 A 
ATOM     13  C   UNL     1      -0.024   9.650  18.559  0.00  0.00    +0.000 A 
ATOM     14  C   UNL     1       0.955   9.324  19.527  0.00  0.00    +0.000 A 
ATOM     15  C   UNL     1      -4.574  12.996  19.936  0.00  0.00    +0.000 C 
ATOM     16  N   UNL     1      -4.691  13.512  21.287  0.00  0.00    +0.000 NA
ATOM     17  C   UNL     1      -4.643  14.958  21.396  0.00  0.00    +0.000 C 
ATOM     18  C   UNL     1      -4.386  15.219  22.868  0.00  0.00    +0.000 C 
ATOM     19  C   UNL     1      -3.839  13.915  23.439  0.00  0.00    +0.000 C 
ATOM     20  C   UNL     1      -3.838  12.906  22.288  0.00  0.00    +0.000 C 
ATOM     21  C   UNL     1      -2.414  12.569  21.833  0.00  0.00    +0.000 C 
ENDROOT
BRANCH   1  23
ATOM     22  C   UNL     1       1.080   9.227  23.109  0.00  0.00    +0.000 C 
ATOM     23  O   UNL     1       1.638   9.717  21.900  0.00  0.00    +0.000 OA
ENDBRANCH   1  23
BRANCH  14  24
ATOM     24  O   UNL     1       2.011   8.485  19.304  0.00  0.00    +0.000 OA
ATOM     25  C   UNL     1       2.515   8.334  17.989  0.00  0.00    +0.000 C 
ENDBRANCH  14  24
BRANCH   9  26
ATOM     26  O   UNL     1      -3.160  10.113  14.304  0.00  0.00    +0.000 OA
BRANCH  26  27
ATOM     27  C   UNL     1      -4.407   9.911  13.610  0.00  0.00    +0.000 C 
BRANCH  27  28
ATOM     28  C   UNL     1      -4.198   9.717  12.164  0.00  0.00    +0.000 C 
ATOM     29  N   UNL     1      -4.059   9.497  11.033  0.00  0.00    +0.000 NA
ENDBRANCH  27  28
ENDBRANCH  26  27
ENDBRANCH   9  26
TORSDOF 5
ENDMDL
MODEL 3
REMARK VINA RESULT:      -6.4      2.042      2.227
REMARK  Name = 
REMARK  7 active torsions:
REMARK  status: ('A' for Active; 'I' for Inactive)
REMARK    1  A    between atoms: C_1  and  O_2
REMARK    2  A    between atoms: O_2  and  C_3
REMARK    3  A    between atoms: C_11  and  O_12
REMARK    4  A    between atoms: O_12  and  C_13
REMARK    5  A    between atoms: C_13  and  C_14
REMARK    6  A    between atoms: C_20  and  O_21
REMARK    7  A    between atoms: O_21  and  C_22
REMARK                            x       y       z     vdW  Elec       q    Type
REMARK                         _______ _______ _______ _____ _____    ______ ____
ROOT
ATOM      1  C   UNL     1       0.963  13.225  20.642  0.00  0.00    +0.000 A 
ATOM      2  C   UNL     1      -0.367  13.254  21.071  0.00  0.00    +0.000 A 
ATOM      3  C   UNL     1      -1.465  12.824  20.289  0.00  0.00    +0.000 A 
ATOM      4  C   UNL     1      -2.785  12.809  20.821  0.00  0.00    +0.000 A 
ATOM      5  C   UNL     1      -3.855  12.324  20.052  0.00  0.00    +0.000 A 
ATOM      6  C   UNL     1      -3.626  11.862  18.728  0.00  0.00    +0.000 A 
ATOM      7  C   UNL     1      -4.691  11.318  17.977  0.00  0.00    +0.000 A 
ATOM      8  C   UNL     1      -4.547  10.858  16.676  0.00  0.00    +0.000 A 
ATOM      9  C   UNL     1      -3.326  10.977  16.043  0.00  0.00    +0.000 A 
ATOM     10  C   UNL     1      -2.234  11.483  16.776  0.00  0.00    +0.000 A 
ATOM     11  C   UNL     1      -2.330  11.916  18.145  0.00  0.00    +0.000 A 
ATOM     12  C   UNL     1      -1.216  12.378  18.961  0.00  0.00    +0.000 A 
ATOM     13  C   UNL     1       0.152  12.393  18.529  0.00  0.00    +0.000 A 
ATOM     14  C   UNL     1       1.235  12.792  19.347  0.00  0.00    +0.000 A 
ATOM     15  C   UNL     1      -5.270  12.261  20.621  0.00  0.00    +0.000 C 
ATOM     16  N   UNL     1      -5.510  12.660  21.995  0.00  0.00    +0.000 NA
ATOM     17  C   UNL     1      -6.355  13.828  22.156  0.00  0.00    +0.000 C 
ATOM     18  C   UNL     1      -6.132  14.264  23.591  0.00  0.00    +0.000 C 
ATOM     19  C   UNL     1      -4.827  13.610  24.032  0.00  0.00    +0.000 C 
ATOM     20  C   UNL     1      -4.346  12.763  22.851  0.00  0.00    +0.000 C 
ATOM     21  C   UNL     1      -3.093  13.360  22.202  0.00  0.00    +0.000 C 
ENDROOT
BRANCH   1  23
ATOM     22  C   UNL     1       2.180  15.010  21.725  0.00  0.00    +0.000 C 
ATOM     23  O   UNL     1       1.821  13.641  21.626  0.00  0.00    +0.000 OA
ENDBRANCH   1  23
BRANCH  14  24
ATOM     24  O   UNL     1       2.545  12.778  18.956  0.00  0.00    +0.000 OA
ATOM     25  C   UNL     1       3.061  13.871  18.217  0.00  0.00    +0.000 C 
ENDBRANCH  14  24
BRANCH   9  26
ATOM     26  O   UNL     1      -3.102  10.601  14.741  0.00  0.00    +0.000 OA
BRANCH  26  27
ATOM     27  C   UNL     1      -4.155   9.830  14.130  0.00  0.00    +0.000 C 
BRANCH  27  28
ATOM     28  C   UNL     1      -3.960   9.703  12.675  0.00  0.00    +0.000 C 
ATOM     29  N   UNL     1      -3.841   9.666  11.521  0.00  0.00    +0.000 NA
ENDBRANCH  27  28
ENDBRANCH  26  27
ENDBRANCH   9  26
TORSDOF 5
ENDMDL
MODEL 4
REMARK VINA RESULT:      -6.2      2.033      5.483
REMARK  Name = 
REMARK  7 active torsions:
REMARK  status: ('A' for Active; 'I' for Inactive)
REMARK    1  A    between atoms: C_1  and  O_2
REMARK    2  A    between atoms: O_2  and  C_3
REMARK    3  A    between atoms: C_11  and  O_12
REMARK    4  A    between atoms: O_12  and  C_13
REMARK    5  A    between atoms: C_13  and  C_14
REMARK    6  A    between atoms: C_20  and  O_21
REMARK    7  A    between atoms: O_21  and  C_22
REMARK                            x       y       z     vdW  Elec       q    Type
REMARK                         _______ _______ _______ _____ _____    ______ ____
ROOT
ATOM      1  C   UNL     1      -4.778  11.823  17.163  0.00  0.00    +0.000 A 
ATOM      2  C   UNL     1      -4.527  12.370  18.425  0.00  0.00    +0.000 A 
ATOM      3  C   UNL     1      -3.391  12.068  19.212  0.00  0.00    +0.000 A 
ATOM      4  C   UNL     1      -3.162  12.722  20.455  0.00  0.00    +0.000 A 
ATOM      5  C   UNL     1      -2.000  12.455  21.195  0.00  0.00    +0.000 A 
ATOM      6  C   UNL     1      -1.052  11.511  20.714  0.00  0.00    +0.000 A 
ATOM      7  C   UNL     1       0.144  11.287  21.428  0.00  0.00    +0.000 A 
ATOM      8  C   UNL     1       1.110  10.375  21.027  0.00  0.00    +0.000 A 
ATOM      9  C   UNL     1       0.888   9.596  19.910  0.00  0.00    +0.000 A 
ATOM     10  C   UNL     1      -0.280   9.820  19.155  0.00  0.00    +0.000 A 
ATOM     11  C   UNL     1      -1.277  10.797  19.505  0.00  0.00    +0.000 A 
ATOM     12  C   UNL     1      -2.462  11.110  18.719  0.00  0.00    +0.000 A 
ATOM     13  C   UNL     1      -2.759  10.534  17.438  0.00  0.00    +0.000 A 
ATOM     14  C   UNL     1      -3.884  10.884  16.656  0.00  0.00    +0.000 A 
ATOM     15  C   UNL     1      -1.717  13.179  22.509  0.00  0.00    +0.000 C 
ATOM     16  N   UNL     1      -2.637  14.199  22.979  0.00  0.00    +0.000 NA
ATOM     17  C   UNL     1      -3.316  13.885  24.222  0.00  0.00    +0.000 C 
ATOM     18  C   UNL     1      -4.466  14.871  24.285  0.00  0.00    +0.000 C 
ATOM     19  C   UNL     1      -4.662  15.383  22.863  0.00  0.00    +0.000 C 
ATOM     20  C   UNL     1      -3.581  14.715  22.010  0.00  0.00    +0.000 C 
ATOM     21  C   UNL     1      -4.177  13.683  21.047  0.00  0.00    +0.000 C 
ENDROOT
BRANCH   1  23
ATOM     22  C   UNL     1      -7.006  12.719  17.432  0.00  0.00    +0.000 C 
ATOM     23  O   UNL     1      -5.917  12.340  16.605  0.00  0.00    +0.000 OA
ENDBRANCH   1  23
BRANCH  14  24
ATOM     24  O   UNL     1      -4.158  10.366  15.421  0.00  0.00    +0.000 OA
ATOM     25  C   UNL     1      -3.096  10.139  14.511  0.00  0.00    +0.000 C 
ENDBRANCH  14  24
BRANCH   9  26
ATOM     26  O   UNL     1       1.759   8.630  19.468  0.00  0.00    +0.000 OA
BRANCH  26  27
ATOM     27  C   UNL     1       2.074   8.676  18.063  0.00  0.00    +0.000 C 
BRANCH  27  28
ATOM     28  C   UNL     1       3.162   7.743  17.719  0.00  0.00    +0.000 C 
ATOM     29  N   UNL     1       3.968   6.963  17.423  0.00  0.00    +0.000 NA
ENDBRANCH  27  28
ENDBRANCH  26  27
ENDBRANCH   9  26
TORSDOF 5
ENDMDL
MODEL 5
REMARK VINA RESULT:      -6.2      5.514     10.545
REMARK  Name = 
REMARK  7 active torsions:
REMARK  status: ('A' for Active; 'I' for Inactive)
REMARK    1  A    between atoms: C_1  and  O_2
REMARK    2  A    between atoms: O_2  and  C_3
REMARK    3  A    between atoms: C_11  and  O_12
REMARK    4  A    between atoms: O_12  and  C_13
REMARK    5  A    between atoms: C_13  and  C_14
REMARK    6  A    between atoms: C_20  and  O_21
REMARK    7  A    between atoms: O_21  and  C_22
REMARK                            x       y       z     vdW  Elec       q    Type
REMARK                         _______ _______ _______ _____ _____    ______ ____
ROOT
ATOM      1  C   UNL     1       3.334   2.939  20.716  0.00  0.00    +0.000 A 
ATOM      2  C   UNL     1       3.923   3.430  19.548  0.00  0.00    +0.000 A 
ATOM      3  C   UNL     1       3.659   4.707  18.999  0.00  0.00    +0.000 A 
ATOM      4  C   UNL     1       4.356   5.171  17.848  0.00  0.00    +0.000 A 
ATOM      5  C   UNL     1       4.125   6.463  17.350  0.00  0.00    +0.000 A 
ATOM      6  C   UNL     1       3.176   7.309  17.985  0.00  0.00    +0.000 A 
ATOM      7  C   UNL     1       2.989   8.629  17.521  0.00  0.00    +0.000 A 
ATOM      8  C   UNL     1       2.074   9.509  18.082  0.00  0.00    +0.000 A 
ATOM      9  C   UNL     1       1.258   9.080  19.109  0.00  0.00    +0.000 A 
ATOM     10  C   UNL     1       1.444   7.780  19.618  0.00  0.00    +0.000 A 
ATOM     11  C   UNL     1       2.422   6.858  19.102  0.00  0.00    +0.000 A 
ATOM     12  C   UNL     1       2.696   5.534  19.641  0.00  0.00    +0.000 A 
ATOM     13  C   UNL     1       2.076   4.994  20.818  0.00  0.00    +0.000 A 
ATOM     14  C   UNL     1       2.389   3.728  21.366  0.00  0.00    +0.000 A 
ATOM     15  C   UNL     1       4.894   6.992  16.142  0.00  0.00    +0.000 C 
ATOM     16  N   UNL     1       5.918   6.169  15.526  0.00  0.00    +0.000 NA
ATOM     17  C   UNL     1       5.637   5.760  14.163  0.00  0.00    +0.000 C 
ATOM     18  C   UNL     1       6.612   4.630  13.897  0.00  0.00    +0.000 C 
ATOM     19  C   UNL     1       7.076   4.142  15.265  0.00  0.00    +0.000 C 
ATOM     20  C   UNL     1       6.393   5.040  16.299  0.00  0.00    +0.000 C 
ATOM     21  C   UNL     1       5.324   4.279  17.090  0.00  0.00    +0.000 C 
ENDROOT
BRANCH   1  23
ATOM     22  C   UNL     1       5.171   1.371  20.766  0.00  0.00    +0.000 C 
ATOM     23  O   UNL     1       3.821   1.702  21.048  0.00  0.00    +0.000 OA
ENDBRANCH   1  23
BRANCH  14  24
ATOM     24  O   UNL     1       1.828   3.220  22.504  0.00  0.00    +0.000 OA
ATOM     25  C   UNL     1       0.947   2.114  22.411  0.00  0.00    +0.000 C 
ENDBRANCH  14  24
BRANCH   9  26
ATOM     26  O   UNL     1       0.287   9.860  19.689  0.00  0.00    +0.000 OA
BRANCH  26  27
ATOM     27  C   UNL     1       0.756  10.803  20.672  0.00  0.00    +0.000 C 
BRANCH  27  28
ATOM     28  C   UNL     1       0.432  10.366  22.042  0.00  0.00    +0.000 C 
ATOM     29  N   UNL     1       0.217   9.963  23.108  0.00  0.00    +0.000 NA
ENDBRANCH  27  28
ENDBRANCH  26  27
ENDBRANCH   9  26
TORSDOF 5
ENDMDL
MODEL 6
REMARK VINA RESULT:      -6.2      3.388      7.186
REMARK  Name = 
REMARK  7 active torsions:
REMARK  status: ('A' for Active; 'I' for Inactive)
REMARK    1  A    between atoms: C_1  and  O_2
REMARK    2  A    between atoms: O_2  and  C_3
REMARK    3  A    between atoms: C_11  and  O_12
REMARK    4  A    between atoms: O_12  and  C_13
REMARK    5  A    between atoms: C_13  and  C_14
REMARK    6  A    between atoms: C_20  and  O_21
REMARK    7  A    between atoms: O_21  and  C_22
REMARK                            x       y       z     vdW  Elec       q    Type
REMARK                         _______ _______ _______ _____ _____    ______ ____
ROOT
ATOM      1  C   UNL     1      -3.084  11.463  17.159  0.00  0.00    +0.000 A 
ATOM      2  C   UNL     1      -1.884  11.982  17.650  0.00  0.00    +0.000 A 
ATOM      3  C   UNL     1      -1.710  12.481  18.962  0.00  0.00    +0.000 A 
ATOM      4  C   UNL     1      -0.436  12.924  19.418  0.00  0.00    +0.000 A 
ATOM      5  C   UNL     1      -0.268  13.361  20.741  0.00  0.00    +0.000 A 
ATOM      6  C   UNL     1      -1.378  13.382  21.630  0.00  0.00    +0.000 A 
ATOM      7  C   UNL     1      -1.195  13.763  22.976  0.00  0.00    +0.000 A 
ATOM      8  C   UNL     1      -2.231  13.819  23.898  0.00  0.00    +0.000 A 
ATOM      9  C   UNL     1      -3.521  13.545  23.490  0.00  0.00    +0.000 A 
ATOM     10  C   UNL     1      -3.731  13.127  22.161  0.00  0.00    +0.000 A 
ATOM     11  C   UNL     1      -2.675  13.001  21.191  0.00  0.00    +0.000 A 
ATOM     12  C   UNL     1      -2.836  12.506  19.831  0.00  0.00    +0.000 A 
ATOM     13  C   UNL     1      -4.068  12.003  19.293  0.00  0.00    +0.000 A 
ATOM     14  C   UNL     1      -4.202  11.473  17.988  0.00  0.00    +0.000 A 
ATOM     15  C   UNL     1       1.099  13.799  21.260  0.00  0.00    +0.000 C 
ATOM     16  N   UNL     1       2.258  13.716  20.389  0.00  0.00    +0.000 NA
ATOM     17  C   UNL     1       2.865  14.990  20.054  0.00  0.00    +0.000 C 
ATOM     18  C   UNL     1       3.758  14.684  18.867  0.00  0.00    +0.000 C 
ATOM     19  C   UNL     1       3.262  13.360  18.296  0.00  0.00    +0.000 C 
ATOM     20  C   UNL     1       2.116  12.900  19.201  0.00  0.00    +0.000 C 
ATOM     21  C   UNL     1       0.762  12.991  18.489  0.00  0.00    +0.000 C 
ENDROOT
BRANCH   1  23
ATOM     22  C   UNL     1      -2.824   9.602  15.640  0.00  0.00    +0.000 C 
ATOM     23  O   UNL     1      -2.947  10.995  15.879  0.00  0.00    +0.000 OA
ENDBRANCH   1  23
BRANCH  14  24
ATOM     24  O   UNL     1      -5.363  10.961  17.479  0.00  0.00    +0.000 OA
ATOM     25  C   UNL     1      -6.592  11.253  18.119  0.00  0.00    +0.000 C 
ENDBRANCH  14  24
BRANCH   9  26
ATOM     26  O   UNL     1      -4.616  13.627  24.315  0.00  0.00    +0.000 OA
BRANCH  26  27
ATOM     27  C   UNL     1      -5.356  12.403  24.485  0.00  0.00    +0.000 C 
BRANCH  27  28
ATOM     28  C   UNL     1      -6.794  12.597  24.229  0.00  0.00    +0.000 C 
ATOM     29  N   UNL     1      -7.908  12.798  23.976  0.00  0.00    +0.000 NA
ENDBRANCH  27  28
ENDBRANCH  26  27
ENDBRANCH   9  26
TORSDOF 5
ENDMDL
MODEL 7
REMARK VINA RESULT:      -6.2      2.435      5.732
REMARK  Name = 
REMARK  7 active torsions:
REMARK  status: ('A' for Active; 'I' for Inactive)
REMARK    1  A    between atoms: C_1  and  O_2
REMARK    2  A    between atoms: O_2  and  C_3
REMARK    3  A    between atoms: C_11  and  O_12
REMARK    4  A    between atoms: O_12  and  C_13
REMARK    5  A    between atoms: C_13  and  C_14
REMARK    6  A    between atoms: C_20  and  O_21
REMARK    7  A    between atoms: O_21  and  C_22
REMARK                            x       y       z     vdW  Elec       q    Type
REMARK                         _______ _______ _______ _____ _____    ______ ____
ROOT
ATOM      1  C   UNL     1      -4.631  11.607  16.802  0.00  0.00    +0.000 A 
ATOM      2  C   UNL     1      -4.234  12.005  18.081  0.00  0.00    +0.000 A 
ATOM      3  C   UNL     1      -2.993  11.667  18.670  0.00  0.00    +0.000 A 
ATOM      4  C   UNL     1      -2.624  12.173  19.948  0.00  0.00    +0.000 A 
ATOM      5  C   UNL     1      -1.365  11.877  20.493  0.00  0.00    +0.000 A 
ATOM      6  C   UNL     1      -0.457  11.050  19.776  0.00  0.00    +0.000 A 
ATOM      7  C   UNL     1       0.831  10.802  20.297  0.00  0.00    +0.000 A 
ATOM      8  C   UNL     1       1.766   9.997  19.661  0.00  0.00    +0.000 A 
ATOM      9  C   UNL     1       1.425   9.353  18.489  0.00  0.00    +0.000 A 
ATOM     10  C   UNL     1       0.159   9.607  17.925  0.00  0.00    +0.000 A 
ATOM     11  C   UNL     1      -0.815  10.481  18.524  0.00  0.00    +0.000 A 
ATOM     12  C   UNL     1      -2.105  10.827  17.943  0.00  0.00    +0.000 A 
ATOM     13  C   UNL     1      -2.549  10.400  16.647  0.00  0.00    +0.000 A 
ATOM     14  C   UNL     1      -3.780  10.786  16.067  0.00  0.00    +0.000 A 
ATOM     15  C   UNL     1      -0.935  12.445  21.843  0.00  0.00    +0.000 C 
ATOM     16  N   UNL     1      -1.819  13.350  22.555  0.00  0.00    +0.000 NA
ATOM     17  C   UNL     1      -2.315  12.850  23.823  0.00  0.00    +0.000 C 
ATOM     18  C   UNL     1      -3.481  13.759  24.160  0.00  0.00    +0.000 C 
ATOM     19  C   UNL     1      -3.882  14.433  22.853  0.00  0.00    +0.000 C 
ATOM     20  C   UNL     1      -2.901  13.933  21.789  0.00  0.00    +0.000 C 
ATOM     21  C   UNL     1      -3.584  12.999  20.785  0.00  0.00    +0.000 C 
ENDROOT
BRANCH   1  23
ATOM     22  C   UNL     1      -6.604  12.855  17.425  0.00  0.00    +0.000 C 
ATOM     23  O   UNL     1      -5.852  12.129  16.465  0.00  0.00    +0.000 OA
ENDBRANCH   1  23
BRANCH  14  24
ATOM     24  O   UNL     1      -4.198  10.411  14.820  0.00  0.00    +0.000 OA
ATOM     25  C   UNL     1      -3.244   9.966  13.872  0.00  0.00    +0.000 C 
ENDBRANCH  14  24
BRANCH   9  26
ATOM     26  O   UNL     1       2.263   8.495  17.818  0.00  0.00    +0.000 OA
BRANCH  26  27
ATOM     27  C   UNL     1       2.558   7.261  18.500  0.00  0.00    +0.000 C 
BRANCH  27  28
ATOM     28  C   UNL     1       3.688   6.552  17.873  0.00  0.00    +0.000 C 
ATOM     29  N   UNL     1       4.598   5.972  17.446  0.00  0.00    +0.000 NA
ENDBRANCH  27  28
ENDBRANCH  26  27
ENDBRANCH   9  26
TORSDOF 5
ENDMDL
MODEL 8
REMARK VINA RESULT:      -6.2      6.015      9.155
REMARK  Name = 
REMARK  7 active torsions:
REMARK  status: ('A' for Active; 'I' for Inactive)
REMARK    1  A    between atoms: C_1  and  O_2
REMARK    2  A    between atoms: O_2  and  C_3
REMARK    3  A    between atoms: C_11  and  O_12
REMARK    4  A    between atoms: O_12  and  C_13
REMARK    5  A    between atoms: C_13  and  C_14
REMARK    6  A    between atoms: C_20  and  O_21
REMARK    7  A    between atoms: O_21  and  C_22
REMARK                            x       y       z     vdW  Elec       q    Type
REMARK                         _______ _______ _______ _____ _____    ______ ____
ROOT
ATOM      1  C   UNL     1       3.053   3.068  21.103  0.00  0.00    +0.000 A 
ATOM      2  C   UNL     1       2.613   4.382  20.925  0.00  0.00    +0.000 A 
ATOM      3  C   UNL     1       2.991   5.208  19.840  0.00  0.00    +0.000 A 
ATOM      4  C   UNL     1       2.441   6.512  19.683  0.00  0.00    +0.000 A 
ATOM      5  C   UNL     1       2.781   7.296  18.569  0.00  0.00    +0.000 A 
ATOM      6  C   UNL     1       3.694   6.797  17.601  0.00  0.00    +0.000 A 
ATOM      7  C   UNL     1       3.989   7.561  16.451  0.00  0.00    +0.000 A 
ATOM      8  C   UNL     1       4.878   7.146  15.470  0.00  0.00    +0.000 A 
ATOM      9  C   UNL     1       5.561   5.957  15.629  0.00  0.00    +0.000 A 
ATOM     10  C   UNL     1       5.264   5.155  16.748  0.00  0.00    +0.000 A 
ATOM     11  C   UNL     1       4.306   5.524  17.757  0.00  0.00    +0.000 A 
ATOM     12  C   UNL     1       3.916   4.696  18.890  0.00  0.00    +0.000 A 
ATOM     13  C   UNL     1       4.384   3.358  19.113  0.00  0.00    +0.000 A 
ATOM     14  C   UNL     1       3.959   2.540  20.187  0.00  0.00    +0.000 A 
ATOM     15  C   UNL     1       2.169   8.679  18.361  0.00  0.00    +0.000 C 
ATOM     16  N   UNL     1       1.179   9.174  19.301  0.00  0.00    +0.000 NA
ATOM     17  C   UNL     1       1.584  10.345  20.056  0.00  0.00    +0.000 C 
ATOM     18  C   UNL     1       0.592  10.419  21.201  0.00  0.00    +0.000 C 
ATOM     19  C   UNL     1      -0.035   9.034  21.306  0.00  0.00    +0.000 C 
ATOM     20  C   UNL     1       0.575   8.195  20.180  0.00  0.00    +0.000 C 
ATOM     21  C   UNL     1       1.519   7.119  20.725  0.00  0.00    +0.000 C 
ENDROOT
BRANCH   1  23
ATOM     22  C   UNL     1       1.068   2.369  22.290  0.00  0.00    +0.000 C 
ATOM     23  O   UNL     1       2.479   2.486  22.203  0.00  0.00    +0.000 OA
ENDBRANCH   1  23
BRANCH  14  24
ATOM     24  O   UNL     1       4.373   1.253  20.389  0.00  0.00    +0.000 OA
ATOM     25  C   UNL     1       5.450   1.001  21.274  0.00  0.00    +0.000 C 
ENDBRANCH  14  24
BRANCH   9  26
ATOM     26  O   UNL     1       6.499   5.492  14.740  0.00  0.00    +0.000 OA
BRANCH  26  27
ATOM     27  C   UNL     1       6.526   4.062  14.561  0.00  0.00    +0.000 C 
BRANCH  27  28
ATOM     28  C   UNL     1       6.159   3.680  13.186  0.00  0.00    +0.000 C 
ATOM     29  N   UNL     1       5.861   3.311  12.127  0.00  0.00    +0.000 NA
ENDBRANCH  27  28
ENDBRANCH  26  27
ENDBRANCH   9  26
TORSDOF 5
ENDMDL
MODEL 9
REMARK VINA RESULT:      -6.1      4.272      5.599
REMARK  Name = 
REMARK  7 active torsions:
REMARK  status: ('A' for Active; 'I' for Inactive)
REMARK    1  A    between atoms: C_1  and  O_2
REMARK    2  A    between atoms: O_2  and  C_3
REMARK    3  A    between atoms: C_11  and  O_12
REMARK    4  A    between atoms: O_12  and  C_13
REMARK    5  A    between atoms: C_13  and  C_14
REMARK    6  A    between atoms: C_20  and  O_21
REMARK    7  A    between atoms: O_21  and  C_22
REMARK                            x       y       z     vdW  Elec       q    Type
REMARK                         _______ _______ _______ _____ _____    ______ ____
ROOT
ATOM      1  C   UNL     1       0.775  15.227  19.052  0.00  0.00    +0.000 A 
ATOM      2  C   UNL     1      -0.252  15.085  19.988  0.00  0.00    +0.000 A 
ATOM      3  C   UNL     1      -0.493  13.907  20.734  0.00  0.00    +0.000 A 
ATOM      4  C   UNL     1      -1.511  13.861  21.728  0.00  0.00    +0.000 A 
ATOM      5  C   UNL     1      -1.698  12.703  22.500  0.00  0.00    +0.000 A 
ATOM      6  C   UNL     1      -0.881  11.561  22.277  0.00  0.00    +0.000 A 
ATOM      7  C   UNL     1      -1.029  10.419  23.094  0.00  0.00    +0.000 A 
ATOM      8  C   UNL     1      -0.277   9.265  22.929  0.00  0.00    +0.000 A 
ATOM      9  C   UNL     1       0.628   9.184  21.891  0.00  0.00    +0.000 A 
ATOM     10  C   UNL     1       0.824  10.319  21.079  0.00  0.00    +0.000 A 
ATOM     11  C   UNL     1       0.106  11.553  21.254  0.00  0.00    +0.000 A 
ATOM     12  C   UNL     1       0.326  12.771  20.486  0.00  0.00    +0.000 A 
ATOM     13  C   UNL     1       1.350  12.927  19.493  0.00  0.00    +0.000 A 
ATOM     14  C   UNL     1       1.593  14.131  18.791  0.00  0.00    +0.000 A 
ATOM     15  C   UNL     1      -2.756  12.650  23.599  0.00  0.00    +0.000 C 
ATOM     16  N   UNL     1      -3.549  13.830  23.889  0.00  0.00    +0.000 NA
ATOM     17  C   UNL     1      -4.968  13.696  23.621  0.00  0.00    +0.000 C 
ATOM     18  C   UNL     1      -5.491  15.119  23.617  0.00  0.00    +0.000 C 
ATOM     19  C   UNL     1      -4.273  16.015  23.418  0.00  0.00    +0.000 C 
ATOM     20  C   UNL     1      -3.057  15.086  23.362  0.00  0.00    +0.000 C 
ATOM     21  C   UNL     1      -2.457  15.027  21.953  0.00  0.00    +0.000 C 
ENDROOT
BRANCH   1  23
ATOM     22  C   UNL     1      -0.389  17.128  18.119  0.00  0.00    +0.000 C 
ATOM     23  O   UNL     1       0.812  16.493  18.529  0.00  0.00    +0.000 OA
ENDBRANCH   1  23
BRANCH  14  24
ATOM     24  O   UNL     1       2.587  14.300  17.868  0.00  0.00    +0.000 OA
ATOM     25  C   UNL     1       3.898  14.612  18.306  0.00  0.00    +0.000 C 
ENDBRANCH  14  24
BRANCH   9  26
ATOM     26  O   UNL     1       1.375   8.065  21.616  0.00  0.00    +0.000 OA
BRANCH  26  27
ATOM     27  C   UNL     1       1.783   7.915  20.242  0.00  0.00    +0.000 C 
BRANCH  27  28
ATOM     28  C   UNL     1       2.263   6.550  19.963  0.00  0.00    +0.000 C 
ATOM     29  N   UNL     1       2.631   5.488  19.674  0.00  0.00    +0.000 NA
ENDBRANCH  27  28
ENDBRANCH  26  27
ENDBRANCH   9  26
TORSDOF 5
ENDMDL
