MODEL 1
REMARK VINA RESULT:      -7.7      0.000      0.000
REMARK  Name = 
REMARK  4 active torsions:
REMARK  status: ('A' for Active; 'I' for Inactive)
REMARK    1  A    between atoms: C_2  and  O_3
REMARK    2  A    between atoms: C_2  and  C_4
REMARK    3  A    between atoms: C_9  and  N_10
REMARK    4  A    between atoms: C_11  and  C_13
REMARK                            x       y       z     vdW  Elec       q    Type
REMARK                         _______ _______ _______ _____ _____    ______ ____
ROOT
ATOM      1  C   UNL     1       2.173   4.802  19.118  0.00  0.00    +0.000 A 
ATOM      2  C   UNL     1       1.166   4.394  20.007  0.00  0.00    +0.000 A 
ATOM      3  C   UNL     1       0.755   3.061  20.049  0.00  0.00    +0.000 A 
ATOM      4  C   UNL     1       1.342   2.127  19.198  0.00  0.00    +0.000 A 
ATOM      5  C   UNL     1       2.344   2.522  18.311  0.00  0.00    +0.000 A 
ATOM      6  C   UNL     1       2.779   3.854  18.276  0.00  0.00    +0.000 A 
ENDROOT
BRANCH   6   7
ATOM      7  N   UNL     1       3.872   4.136  17.417  0.00  0.00    +0.000 N 
ATOM      8  C   UNL     1       5.155   4.128  17.956  0.00  0.00    +0.000 C 
ATOM      9  O   UNL     1       5.379   3.708  19.090  0.00  0.00    +0.000 OA
ATOM     10  H   UNL     1       3.852   3.644  16.526  0.00  0.00    +0.000 HD
BRANCH   8  11
ATOM     11  C   UNL     1       6.255   4.499  16.953  0.00  0.00    +0.000 C 
ATOM     12  C   UNL     1       5.911   5.780  16.183  0.00  0.00    +0.000 C 
ATOM     13  C   UNL     1       5.990   7.021  17.071  0.00  0.00    +0.000 C 
ATOM     14  C   UNL     1       7.359   7.153  17.733  0.00  0.00    +0.000 C 
ATOM     15  C   UNL     1       7.758   5.889  18.487  0.00  0.00    +0.000 C 
ATOM     16  C   UNL     1       7.634   4.637  17.624  0.00  0.00    +0.000 C 
ENDBRANCH   8  11
ENDBRANCH   6   7
BRANCH   1  18
ATOM     17  O   UNL     1       2.748   6.876  18.118  0.00  0.00    +0.000 OA
ATOM     18  C   UNL     1       2.519   6.243  19.134  0.00  0.00    +0.000 C 
BRANCH  18  19
ATOM     19  O   UNL     1       2.593   6.782  20.369  0.00  0.00    +0.000 OA
ATOM     20  H   UNL     1       1.717   6.868  20.812  0.00  0.00    +0.000 HD
ENDBRANCH  18  19
ENDBRANCH   1  18
TORSDOF 4
ENDMDL
MODEL 2
REMARK VINA RESULT:      -7.6      1.996      5.461
REMARK  Name = 
REMARK  4 active torsions:
REMARK  status: ('A' for Active; 'I' for Inactive)
REMARK    1  A    between atoms: C_2  and  O_3
REMARK    2  A    between atoms: C_2  and  C_4
REMARK    3  A    between atoms: C_9  and  N_10
REMARK    4  A    between atoms: C_11  and  C_13
REMARK                            x       y       z     vdW  Elec       q    Type
REMARK                         _______ _______ _______ _____ _____    ______ ____
ROOT
ATOM      1  C   UNL     1       6.043   4.619  17.540  0.00  0.00    +0.000 A 
ATOM      2  C   UNL     1       7.261   4.630  16.840  0.00  0.00    +0.000 A 
ATOM      3  C   UNL     1       7.277   4.722  15.447  0.00  0.00    +0.000 A 
ATOM      4  C   UNL     1       6.077   4.796  14.743  0.00  0.00    +0.000 A 
ATOM      5  C   UNL     1       4.861   4.786  15.430  0.00  0.00    +0.000 A 
ATOM      6  C   UNL     1       4.836   4.715  16.829  0.00  0.00    +0.000 A 
ENDROOT
BRANCH   6   7
ATOM      7  N   UNL     1       3.559   4.817  17.440  0.00  0.00    +0.000 N 
ATOM      8  C   UNL     1       2.832   3.650  17.652  0.00  0.00    +0.000 C 
ATOM      9  O   UNL     1       3.335   2.537  17.498  0.00  0.00    +0.000 OA
ATOM     10  H   UNL     1       3.527   5.416  18.262  0.00  0.00    +0.000 HD
BRANCH   8  11
ATOM     11  C   UNL     1       1.446   3.881  18.266  0.00  0.00    +0.000 C 
ATOM     12  C   UNL     1       0.890   2.603  18.907  0.00  0.00    +0.000 C 
ATOM     13  C   UNL     1       1.642   2.230  20.185  0.00  0.00    +0.000 C 
ATOM     14  C   UNL     1       1.638   3.373  21.195  0.00  0.00    +0.000 C 
ATOM     15  C   UNL     1       2.154   4.676  20.592  0.00  0.00    +0.000 C 
ATOM     16  C   UNL     1       1.445   5.031  19.289  0.00  0.00    +0.000 C 
ENDBRANCH   8  11
ENDBRANCH   6   7
BRANCH   1  18
ATOM     17  O   UNL     1       6.750   5.287  19.705  0.00  0.00    +0.000 OA
ATOM     18  C   UNL     1       6.135   4.492  19.014  0.00  0.00    +0.000 C 
BRANCH  18  19
ATOM     19  O   UNL     1       5.513   3.407  19.517  0.00  0.00    +0.000 OA
ATOM     20  H   UNL     1       5.737   3.229  20.460  0.00  0.00    +0.000 HD
ENDBRANCH  18  19
ENDBRANCH   1  18
TORSDOF 4
ENDMDL
MODEL 3
REMARK VINA RESULT:      -7.5      1.490      1.669
REMARK  Name = 
REMARK  4 active torsions:
REMARK  status: ('A' for Active; 'I' for Inactive)
REMARK    1  A    between atoms: C_2  and  O_3
REMARK    2  A    between atoms: C_2  and  C_4
REMARK    3  A    between atoms: C_9  and  N_10
REMARK    4  A    between atoms: C_11  and  C_13
REMARK                            x       y       z     vdW  Elec       q    Type
REMARK                         _______ _______ _______ _____ _____    ______ ____
ROOT
ATOM      1  C   UNL     1       2.163   3.891  19.228  0.00  0.00    +0.000 A 
ATOM      2  C   UNL     1       1.155   3.805  20.202  0.00  0.00    +0.000 A 
ATOM      3  C   UNL     1       1.368   3.091  21.382  0.00  0.00    +0.000 A 
ATOM      4  C   UNL     1       2.587   2.452  21.595  0.00  0.00    +0.000 A 
ATOM      5  C   UNL     1       3.596   2.532  20.633  0.00  0.00    +0.000 A 
ATOM      6  C   UNL     1       3.399   3.264  19.454  0.00  0.00    +0.000 A 
ENDROOT
BRANCH   6   7
ATOM      7  N   UNL     1       4.517   3.373  18.588  0.00  0.00    +0.000 N 
ATOM      8  C   UNL     1       5.341   4.488  18.709  0.00  0.00    +0.000 C 
ATOM      9  O   UNL     1       5.236   5.271  19.652  0.00  0.00    +0.000 OA
ATOM     10  H   UNL     1       5.071   2.524  18.499  0.00  0.00    +0.000 HD
BRANCH   8  11
ATOM     11  C   UNL     1       6.486   4.532  17.689  0.00  0.00    +0.000 C 
ATOM     12  C   UNL     1       6.145   5.430  16.493  0.00  0.00    +0.000 C 
ATOM     13  C   UNL     1       6.129   6.909  16.874  0.00  0.00    +0.000 C 
ATOM     14  C   UNL     1       7.449   7.344  17.503  0.00  0.00    +0.000 C 
ATOM     15  C   UNL     1       7.846   6.458  18.679  0.00  0.00    +0.000 C 
ATOM     16  C   UNL     1       7.816   4.975  18.323  0.00  0.00    +0.000 C 
ENDBRANCH   8  11
ENDBRANCH   6   7
BRANCH   1  18
ATOM     17  O   UNL     1       1.021   4.249  17.178  0.00  0.00    +0.000 OA
ATOM     18  C   UNL     1       1.826   4.651  18.001  0.00  0.00    +0.000 C 
BRANCH  18  19
ATOM     19  O   UNL     1       2.513   5.803  17.856  0.00  0.00    +0.000 OA
ATOM     20  H   UNL     1       3.082   6.021  18.630  0.00  0.00    +0.000 HD
ENDBRANCH  18  19
ENDBRANCH   1  18
TORSDOF 4
ENDMDL
MODEL 4
REMARK VINA RESULT:      -7.4      1.573      3.025
REMARK  Name = 
REMARK  4 active torsions:
REMARK  status: ('A' for Active; 'I' for Inactive)
REMARK    1  A    between atoms: C_2  and  O_3
REMARK    2  A    between atoms: C_2  and  C_4
REMARK    3  A    between atoms: C_9  and  N_10
REMARK    4  A    between atoms: C_11  and  C_13
REMARK                            x       y       z     vdW  Elec       q    Type
REMARK                         _______ _______ _______ _____ _____    ______ ____
ROOT
ATOM      1  C   UNL     1       2.491   3.625  18.825  0.00  0.00    +0.000 A 
ATOM      2  C   UNL     1       1.574   3.106  19.753  0.00  0.00    +0.000 A 
ATOM      3  C   UNL     1       1.020   3.927  20.736  0.00  0.00    +0.000 A 
ATOM      4  C   UNL     1       1.382   5.270  20.804  0.00  0.00    +0.000 A 
ATOM      5  C   UNL     1       2.292   5.796  19.885  0.00  0.00    +0.000 A 
ATOM      6  C   UNL     1       2.838   4.984  18.881  0.00  0.00    +0.000 A 
ENDROOT
BRANCH   6   7
ATOM      7  N   UNL     1       3.671   5.633  17.932  0.00  0.00    +0.000 N 
ATOM      8  C   UNL     1       5.018   5.799  18.239  0.00  0.00    +0.000 C 
ATOM      9  O   UNL     1       5.535   5.244  19.208  0.00  0.00    +0.000 OA
ATOM     10  H   UNL     1       3.556   5.309  16.974  0.00  0.00    +0.000 HD
BRANCH   8  11
ATOM     11  C   UNL     1       5.812   6.560  17.169  0.00  0.00    +0.000 C 
ATOM     12  C   UNL     1       7.292   6.156  17.169  0.00  0.00    +0.000 C 
ATOM     13  C   UNL     1       7.499   4.740  16.636  0.00  0.00    +0.000 C 
ATOM     14  C   UNL     1       6.904   4.570  15.241  0.00  0.00    +0.000 C 
ATOM     15  C   UNL     1       5.439   4.989  15.185  0.00  0.00    +0.000 C 
ATOM     16  C   UNL     1       5.214   6.383  15.762  0.00  0.00    +0.000 C 
ENDBRANCH   8  11
ENDBRANCH   6   7
BRANCH   1  18
ATOM     17  O   UNL     1       2.330   1.994  17.107  0.00  0.00    +0.000 OA
ATOM     18  C   UNL     1       3.040   2.664  17.838  0.00  0.00    +0.000 C 
BRANCH  18  19
ATOM     19  O   UNL     1       4.385   2.570  17.845  0.00  0.00    +0.000 OA
ATOM     20  H   UNL     1       4.823   3.246  18.413  0.00  0.00    +0.000 HD
ENDBRANCH  18  19
ENDBRANCH   1  18
TORSDOF 4
ENDMDL
MODEL 5
REMARK VINA RESULT:      -7.3      1.110      1.993
REMARK  Name = 
REMARK  4 active torsions:
REMARK  status: ('A' for Active; 'I' for Inactive)
REMARK    1  A    between atoms: C_2  and  O_3
REMARK    2  A    between atoms: C_2  and  C_4
REMARK    3  A    between atoms: C_9  and  N_10
REMARK    4  A    between atoms: C_11  and  C_13
REMARK                            x       y       z     vdW  Elec       q    Type
REMARK                         _______ _______ _______ _____ _____    ______ ____
ROOT
ATOM      1  C   UNL     1       1.972   5.380  19.695  0.00  0.00    +0.000 A 
ATOM      2  C   UNL     1       1.175   4.596  20.544  0.00  0.00    +0.000 A 
ATOM      3  C   UNL     1       1.040   3.224  20.324  0.00  0.00    +0.000 A 
ATOM      4  C   UNL     1       1.695   2.627  19.250  0.00  0.00    +0.000 A 
ATOM      5  C   UNL     1       2.490   3.397  18.399  0.00  0.00    +0.000 A 
ATOM      6  C   UNL     1       2.649   4.772  18.624  0.00  0.00    +0.000 A 
ENDROOT
BRANCH   6   7
ATOM      7  N   UNL     1       3.558   5.447  17.771  0.00  0.00    +0.000 N 
ATOM      8  C   UNL     1       4.851   5.676  18.230  0.00  0.00    +0.000 C 
ATOM      9  O   UNL     1       5.274   5.153  19.261  0.00  0.00    +0.000 OA
ATOM     10  H   UNL     1       3.571   5.110  16.810  0.00  0.00    +0.000 HD
BRANCH   8  11
ATOM     11  C   UNL     1       5.732   6.461  17.250  0.00  0.00    +0.000 C 
ATOM     12  C   UNL     1       7.204   6.042  17.351  0.00  0.00    +0.000 C 
ATOM     13  C   UNL     1       7.441   4.640  16.791  0.00  0.00    +0.000 C 
ATOM     14  C   UNL     1       6.955   4.520  15.349  0.00  0.00    +0.000 C 
ATOM     15  C   UNL     1       5.502   4.957  15.194  0.00  0.00    +0.000 C 
ATOM     16  C   UNL     1       5.243   6.335  15.795  0.00  0.00    +0.000 C 
ENDBRANCH   8  11
ENDBRANCH   6   7
BRANCH   1  18
ATOM     17  O   UNL     1       2.245   7.673  19.147  0.00  0.00    +0.000 OA
ATOM     18  C   UNL     1       2.028   6.829  20.000  0.00  0.00    +0.000 C 
BRANCH  18  19
ATOM     19  O   UNL     1       1.856   7.129  21.304  0.00  0.00    +0.000 OA
ATOM     20  H   UNL     1       2.628   7.590  21.705  0.00  0.00    +0.000 HD
ENDBRANCH  18  19
ENDBRANCH   1  18
TORSDOF 4
ENDMDL
MODEL 6
REMARK VINA RESULT:      -7.3      1.867      5.708
REMARK  Name = 
REMARK  4 active torsions:
REMARK  status: ('A' for Active; 'I' for Inactive)
REMARK    1  A    between atoms: C_2  and  O_3
REMARK    2  A    between atoms: C_2  and  C_4
REMARK    3  A    between atoms: C_9  and  N_10
REMARK    4  A    between atoms: C_11  and  C_13
REMARK                            x       y       z     vdW  Elec       q    Type
REMARK                         _______ _______ _______ _____ _____    ______ ____
ROOT
ATOM      1  C   UNL     1       6.068   5.307  17.074  0.00  0.00    +0.000 A 
ATOM      2  C   UNL     1       6.896   6.374  16.687  0.00  0.00    +0.000 A 
ATOM      3  C   UNL     1       7.778   6.953  17.600  0.00  0.00    +0.000 A 
ATOM      4  C   UNL     1       7.837   6.476  18.907  0.00  0.00    +0.000 A 
ATOM      5  C   UNL     1       7.019   5.415  19.302  0.00  0.00    +0.000 A 
ATOM      6  C   UNL     1       6.144   4.813  18.386  0.00  0.00    +0.000 A 
ENDROOT
BRANCH   6   7
ATOM      7  N   UNL     1       5.432   3.678  18.851  0.00  0.00    +0.000 N 
ATOM      8  C   UNL     1       4.280   3.881  19.605  0.00  0.00    +0.000 C 
ATOM      9  O   UNL     1       3.769   4.995  19.718  0.00  0.00    +0.000 OA
ATOM     10  H   UNL     1       5.282   2.953  18.152  0.00  0.00    +0.000 HD
BRANCH   8  11
ATOM     11  C   UNL     1       3.622   2.588  20.101  0.00  0.00    +0.000 C 
ATOM     12  C   UNL     1       2.529   2.871  21.140  0.00  0.00    +0.000 C 
ATOM     13  C   UNL     1       1.298   3.521  20.512  0.00  0.00    +0.000 C 
ATOM     14  C   UNL     1       0.737   2.680  19.369  0.00  0.00    +0.000 C 
ATOM     15  C   UNL     1       1.797   2.346  18.325  0.00  0.00    +0.000 C 
ATOM     16  C   UNL     1       3.052   1.743  18.948  0.00  0.00    +0.000 C 
ENDBRANCH   8  11
ENDBRANCH   6   7
BRANCH   1  18
ATOM     17  O   UNL     1       4.189   4.080  16.304  0.00  0.00    +0.000 OA
ATOM     18  C   UNL     1       5.149   4.781  16.037  0.00  0.00    +0.000 C 
BRANCH  18  19
ATOM     19  O   UNL     1       5.488   5.114  14.774  0.00  0.00    +0.000 OA
ATOM     20  H   UNL     1       6.461   5.113  14.616  0.00  0.00    +0.000 HD
ENDBRANCH  18  19
ENDBRANCH   1  18
TORSDOF 4
ENDMDL
MODEL 7
REMARK VINA RESULT:      -7.3      1.595      3.134
REMARK  Name = 
REMARK  4 active torsions:
REMARK  status: ('A' for Active; 'I' for Inactive)
REMARK    1  A    between atoms: C_2  and  O_3
REMARK    2  A    between atoms: C_2  and  C_4
REMARK    3  A    between atoms: C_9  and  N_10
REMARK    4  A    between atoms: C_11  and  C_13
REMARK                            x       y       z     vdW  Elec       q    Type
REMARK                         _______ _______ _______ _____ _____    ______ ____
ROOT
ATOM      1  C   UNL     1       3.148   3.121  19.597  0.00  0.00    +0.000 A 
ATOM      2  C   UNL     1       2.233   2.566  20.507  0.00  0.00    +0.000 A 
ATOM      3  C   UNL     1       1.163   3.323  20.986  0.00  0.00    +0.000 A 
ATOM      4  C   UNL     1       1.002   4.641  20.566  0.00  0.00    +0.000 A 
ATOM      5  C   UNL     1       1.906   5.202  19.662  0.00  0.00    +0.000 A 
ATOM      6  C   UNL     1       2.972   4.444  19.158  0.00  0.00    +0.000 A 
ENDROOT
BRANCH   6   7
ATOM      7  N   UNL     1       3.773   5.067  18.167  0.00  0.00    +0.000 N 
ATOM      8  C   UNL     1       4.970   5.658  18.558  0.00  0.00    +0.000 C 
ATOM      9  O   UNL     1       5.434   5.495  19.686  0.00  0.00    +0.000 OA
ATOM     10  H   UNL     1       3.902   4.519  17.318  0.00  0.00    +0.000 HD
BRANCH   8  11
ATOM     11  C   UNL     1       5.728   6.349  17.417  0.00  0.00    +0.000 C 
ATOM     12  C   UNL     1       7.224   6.012  17.446  0.00  0.00    +0.000 C 
ATOM     13  C   UNL     1       7.492   4.562  17.047  0.00  0.00    +0.000 C 
ATOM     14  C   UNL     1       6.902   4.236  15.678  0.00  0.00    +0.000 C 
ATOM     15  C   UNL     1       5.420   4.584  15.592  0.00  0.00    +0.000 C 
ATOM     16  C   UNL     1       5.135   6.015  16.037  0.00  0.00    +0.000 C 
ENDBRANCH   8  11
ENDBRANCH   6   7
BRANCH   1  18
ATOM     17  O   UNL     1       5.054   1.753  19.957  0.00  0.00    +0.000 OA
ATOM     18  C   UNL     1       4.263   2.243  19.169  0.00  0.00    +0.000 C 
BRANCH  18  19
ATOM     19  O   UNL     1       4.347   2.064  17.835  0.00  0.00    +0.000 OA
ATOM     20  H   UNL     1       3.945   1.219  17.527  0.00  0.00    +0.000 HD
ENDBRANCH  18  19
ENDBRANCH   1  18
TORSDOF 4
ENDMDL
MODEL 8
REMARK VINA RESULT:      -7.3      1.777      3.044
REMARK  Name = 
REMARK  4 active torsions:
REMARK  status: ('A' for Active; 'I' for Inactive)
REMARK    1  A    between atoms: C_2  and  O_3
REMARK    2  A    between atoms: C_2  and  C_4
REMARK    3  A    between atoms: C_9  and  N_10
REMARK    4  A    between atoms: C_11  and  C_13
REMARK                            x       y       z     vdW  Elec       q    Type
REMARK                         _______ _______ _______ _____ _____    ______ ____
ROOT
ATOM      1  C   UNL     1       2.534   3.017  19.067  0.00  0.00    +0.000 A 
ATOM      2  C   UNL     1       1.718   2.289  19.947  0.00  0.00    +0.000 A 
ATOM      3  C   UNL     1       1.337   2.833  21.175  0.00  0.00    +0.000 A 
ATOM      4  C   UNL     1       1.773   4.107  21.534  0.00  0.00    +0.000 A 
ATOM      5  C   UNL     1       2.584   4.839  20.665  0.00  0.00    +0.000 A 
ATOM      6  C   UNL     1       2.955   4.309  19.421  0.00  0.00    +0.000 A 
ENDROOT
BRANCH   6   7
ATOM      7  N   UNL     1       3.692   5.169  18.567  0.00  0.00    +0.000 N 
ATOM      8  C   UNL     1       5.080   5.165  18.661  0.00  0.00    +0.000 C 
ATOM      9  O   UNL     1       5.682   4.317  19.319  0.00  0.00    +0.000 OA
ATOM     10  H   UNL     1       3.396   5.156  17.593  0.00  0.00    +0.000 HD
BRANCH   8  11
ATOM     11  C   UNL     1       5.771   6.170  17.731  0.00  0.00    +0.000 C 
ATOM     12  C   UNL     1       7.270   5.876  17.594  0.00  0.00    +0.000 C 
ATOM     13  C   UNL     1       7.534   4.607  16.785  0.00  0.00    +0.000 C 
ATOM     14  C   UNL     1       6.878   4.670  15.409  0.00  0.00    +0.000 C 
ATOM     15  C   UNL     1       5.390   4.991  15.493  0.00  0.00    +0.000 C 
ATOM     16  C   UNL     1       5.113   6.229  16.341  0.00  0.00    +0.000 C 
ENDBRANCH   8  11
ENDBRANCH   6   7
BRANCH   1  18
ATOM     17  O   UNL     1       3.615   1.350  17.768  0.00  0.00    +0.000 OA
ATOM     18  C   UNL     1       2.902   2.339  17.801  0.00  0.00    +0.000 C 
BRANCH  18  19
ATOM     19  O   UNL     1       2.412   2.930  16.692  0.00  0.00    +0.000 OA
ATOM     20  H   UNL     1       2.258   3.897  16.798  0.00  0.00    +0.000 HD
ENDBRANCH  18  19
ENDBRANCH   1  18
TORSDOF 4
ENDMDL
MODEL 9
REMARK VINA RESULT:      -7.3      1.721      5.658
REMARK  Name = 
REMARK  4 active torsions:
REMARK  status: ('A' for Active; 'I' for Inactive)
REMARK    1  A    between atoms: C_2  and  O_3
REMARK    2  A    between atoms: C_2  and  C_4
REMARK    3  A    between atoms: C_9  and  N_10
REMARK    4  A    between atoms: C_11  and  C_13
REMARK                            x       y       z     vdW  Elec       q    Type
REMARK                         _______ _______ _______ _____ _____    ______ ____
ROOT
ATOM      1  C   UNL     1       6.219   5.829  17.028  0.00  0.00    +0.000 A 
ATOM      2  C   UNL     1       7.287   6.735  17.138  0.00  0.00    +0.000 A 
ATOM      3  C   UNL     1       8.012   6.834  18.326  0.00  0.00    +0.000 A 
ATOM      4  C   UNL     1       7.673   6.035  19.415  0.00  0.00    +0.000 A 
ATOM      5  C   UNL     1       6.614   5.131  19.315  0.00  0.00    +0.000 A 
ATOM      6  C   UNL     1       5.892   5.009  18.120  0.00  0.00    +0.000 A 
ENDROOT
BRANCH   6   7
ATOM      7  N   UNL     1       4.905   3.991  18.083  0.00  0.00    +0.000 N 
ATOM      8  C   UNL     1       3.590   4.334  18.383  0.00  0.00    +0.000 C 
ATOM      9  O   UNL     1       3.236   5.507  18.493  0.00  0.00    +0.000 OA
ATOM     10  H   UNL     1       4.943   3.390  17.262  0.00  0.00    +0.000 HD
BRANCH   8  11
ATOM     11  C   UNL     1       2.616   3.148  18.367  0.00  0.00    +0.000 C 
ATOM     12  C   UNL     1       3.043   2.052  19.352  0.00  0.00    +0.000 C 
ATOM     13  C   UNL     1       2.850   2.481  20.805  0.00  0.00    +0.000 C 
ATOM     14  C   UNL     1       1.411   2.908  21.080  0.00  0.00    +0.000 C 
ATOM     15  C   UNL     1       0.931   3.977  20.104  0.00  0.00    +0.000 C 
ATOM     16  C   UNL     1       1.166   3.580  18.650  0.00  0.00    +0.000 C 
ENDBRANCH   8  11
ENDBRANCH   6   7
BRANCH   1  18
ATOM     17  O   UNL     1       5.099   6.838  15.195  0.00  0.00    +0.000 OA
ATOM     18  C   UNL     1       5.497   5.820  15.733  0.00  0.00    +0.000 C 
BRANCH  18  19
ATOM     19  O   UNL     1       5.289   4.588  15.223  0.00  0.00    +0.000 OA
ATOM     20  H   UNL     1       4.801   4.596  14.367  0.00  0.00    +0.000 HD
ENDBRANCH  18  19
ENDBRANCH   1  18
TORSDOF 4
ENDMDL
