MODEL 1
REMARK VINA RESULT:      -8.3      0.000      0.000
REMARK  Name = 
REMARK  7 active torsions:
REMARK  status: ('A' for Active; 'I' for Inactive)
REMARK    1  A    between atoms: C_1  and  O_2
REMARK    2  A    between atoms: O_2  and  C_3
REMARK    3  A    between atoms: C_6  and  C_7
REMARK    4  A    between atoms: C_10  and  O_11
REMARK    5  A    between atoms: C_12  and  N_13
REMARK    6  A    between atoms: C_14  and  C_16
REMARK    7  A    between atoms: C_19  and  N_20
REMARK                            x       y       z     vdW  Elec       q    Type
REMARK                         _______ _______ _______ _____ _____    ______ ____
ROOT
ATOM      1  C   UNL     1       4.501   3.628  19.116  0.00  0.00    +0.000 A 
ATOM      2  N   UNL     1       4.565   2.336  19.597  0.00  0.00    +0.000 N 
ATOM      3  N   UNL     1       3.805   2.100  20.681  0.00  0.00    +0.000 NA
ATOM      4  C   UNL     1       3.291   3.295  20.930  0.00  0.00    +0.000 A 
ATOM      5  C   UNL     1       3.661   4.285  20.003  0.00  0.00    +0.000 A 
ATOM      6  H   UNL     1       5.132   1.575  19.237  0.00  0.00    +0.000 HD
ENDROOT
BRANCH   1  10
ATOM      7  C   UNL     1       6.954   5.038  15.891  0.00  0.00    +0.000 A 
ATOM      8  C   UNL     1       5.753   4.381  15.627  0.00  0.00    +0.000 A 
ATOM      9  C   UNL     1       4.935   3.935  16.670  0.00  0.00    +0.000 A 
ATOM     10  C   UNL     1       5.326   4.113  18.005  0.00  0.00    +0.000 A 
ATOM     11  C   UNL     1       6.562   4.730  18.252  0.00  0.00    +0.000 A 
ATOM     12  C   UNL     1       7.366   5.200  17.210  0.00  0.00    +0.000 A 
BRANCH   7  14
ATOM     13  C   UNL     1       7.260   4.846  13.559  0.00  0.00    +0.000 C 
ATOM     14  O   UNL     1       7.663   5.434  14.792  0.00  0.00    +0.000 OA
ENDBRANCH   7  14
ENDBRANCH   1  10
BRANCH   5  15
ATOM     15  N   UNL     1       3.291   5.614  19.910  0.00  0.00    +0.000 N 
ATOM     16  C   UNL     1       2.474   6.064  18.890  0.00  0.00    +0.000 C 
ATOM     17  O   UNL     1       2.010   5.363  17.994  0.00  0.00    +0.000 OA
ATOM     18  H   UNL     1       3.364   6.142  20.765  0.00  0.00    +0.000 HD
BRANCH  16  19
ATOM     19  C   UNL     1       2.074   7.505  18.944  0.00  0.00    +0.000 A 
ATOM     20  C   UNL     1       1.567   7.984  20.163  0.00  0.00    +0.000 A 
ATOM     21  C   UNL     1       1.109   9.300  20.281  0.00  0.00    +0.000 A 
ATOM     22  C   UNL     1       1.169  10.150  19.174  0.00  0.00    +0.000 A 
ATOM     23  C   UNL     1       1.716   9.703  17.963  0.00  0.00    +0.000 A 
ATOM     24  C   UNL     1       2.173   8.383  17.852  0.00  0.00    +0.000 A 
BRANCH  22  25
ATOM     25  N   UNL     1       0.646  11.519  19.275  0.00  0.00    +0.000 N 
ATOM     26  O   UNL     1      -0.470  11.746  18.789  0.00  0.00    +0.000 OA
ATOM     27  O   UNL     1       1.358  12.365  19.834  0.00  0.00    +0.000 OA
ENDBRANCH  22  25
ENDBRANCH  16  19
ENDBRANCH   5  15
BRANCH   4  28
ATOM     28  O   UNL     1       2.416   3.336  21.932  0.00  0.00    +0.000 OA
ATOM     29  H   UNL     1       2.906   2.998  22.700  0.00  0.00    +0.000 HD
ENDBRANCH   4  28
TORSDOF 6
ENDMDL
MODEL 2
REMARK VINA RESULT:      -8.2      2.213      7.057
REMARK  Name = 
REMARK  7 active torsions:
REMARK  status: ('A' for Active; 'I' for Inactive)
REMARK    1  A    between atoms: C_1  and  O_2
REMARK    2  A    between atoms: O_2  and  C_3
REMARK    3  A    between atoms: C_6  and  C_7
REMARK    4  A    between atoms: C_10  and  O_11
REMARK    5  A    between atoms: C_12  and  N_13
REMARK    6  A    between atoms: C_14  and  C_16
REMARK    7  A    between atoms: C_19  and  N_20
REMARK                            x       y       z     vdW  Elec       q    Type
REMARK                         _______ _______ _______ _____ _____    ______ ____
ROOT
ATOM      1  C   UNL     1       2.492   5.587  20.132  0.00  0.00    +0.000 A 
ATOM      2  N   UNL     1       2.033   5.029  21.308  0.00  0.00    +0.000 N 
ATOM      3  N   UNL     1       2.394   3.749  21.504  0.00  0.00    +0.000 NA
ATOM      4  C   UNL     1       3.051   3.468  20.388  0.00  0.00    +0.000 A 
ATOM      5  C   UNL     1       3.166   4.552  19.500  0.00  0.00    +0.000 A 
ATOM      6  H   UNL     1       1.448   5.472  22.009  0.00  0.00    +0.000 HD
ENDROOT
BRANCH   1  10
ATOM      7  C   UNL     1       1.435   9.550  18.877  0.00  0.00    +0.000 A 
ATOM      8  C   UNL     1       2.082   8.683  17.998  0.00  0.00    +0.000 A 
ATOM      9  C   UNL     1       2.414   7.382  18.390  0.00  0.00    +0.000 A 
ATOM     10  C   UNL     1       2.129   6.936  19.688  0.00  0.00    +0.000 A 
ATOM     11  C   UNL     1       1.522   7.838  20.575  0.00  0.00    +0.000 A 
ATOM     12  C   UNL     1       1.166   9.129  20.176  0.00  0.00    +0.000 A 
BRANCH   7  14
ATOM     13  C   UNL     1       1.099  11.839  19.345  0.00  0.00    +0.000 C 
ATOM     14  O   UNL     1       1.155  10.793  18.380  0.00  0.00    +0.000 OA
ENDBRANCH   7  14
ENDBRANCH   1  10
BRANCH   5  15
ATOM     15  N   UNL     1       3.810   4.652  18.281  0.00  0.00    +0.000 N 
ATOM     16  C   UNL     1       5.165   4.411  18.161  0.00  0.00    +0.000 C 
ATOM     17  O   UNL     1       5.913   4.098  19.085  0.00  0.00    +0.000 OA
ATOM     18  H   UNL     1       3.213   4.580  17.471  0.00  0.00    +0.000 HD
BRANCH  16  19
ATOM     19  C   UNL     1       5.733   4.468  16.777  0.00  0.00    +0.000 A 
ATOM     20  C   UNL     1       7.041   4.963  16.641  0.00  0.00    +0.000 A 
ATOM     21  C   UNL     1       7.623   5.111  15.379  0.00  0.00    +0.000 A 
ATOM     22  C   UNL     1       6.896   4.751  14.240  0.00  0.00    +0.000 A 
ATOM     23  C   UNL     1       5.608   4.213  14.361  0.00  0.00    +0.000 A 
ATOM     24  C   UNL     1       5.031   4.066  15.629  0.00  0.00    +0.000 A 
BRANCH  22  25
ATOM     25  N   UNL     1       7.481   4.950  12.908  0.00  0.00    +0.000 N 
ATOM     26  O   UNL     1       8.288   5.878  12.766  0.00  0.00    +0.000 OA
ATOM     27  O   UNL     1       7.124   4.180  12.005  0.00  0.00    +0.000 OA
ENDBRANCH  22  25
ENDBRANCH  16  19
ENDBRANCH   5  15
BRANCH   4  28
ATOM     28  O   UNL     1       3.598   2.256  20.344  0.00  0.00    +0.000 OA
ATOM     29  H   UNL     1       4.195   2.228  21.111  0.00  0.00    +0.000 HD
ENDBRANCH   4  28
TORSDOF 6
ENDMDL
MODEL 3
REMARK VINA RESULT:      -8.1      1.326      1.370
REMARK  Name = 
REMARK  7 active torsions:
REMARK  status: ('A' for Active; 'I' for Inactive)
REMARK    1  A    between atoms: C_1  and  O_2
REMARK    2  A    between atoms: O_2  and  C_3
REMARK    3  A    between atoms: C_6  and  C_7
REMARK    4  A    between atoms: C_10  and  O_11
REMARK    5  A    between atoms: C_12  and  N_13
REMARK    6  A    between atoms: C_14  and  C_16
REMARK    7  A    between atoms: C_19  and  N_20
REMARK                            x       y       z     vdW  Elec       q    Type
REMARK                         _______ _______ _______ _____ _____    ______ ____
ROOT
ATOM      1  C   UNL     1       4.059   3.280  17.493  0.00  0.00    +0.000 A 
ATOM      2  N   UNL     1       4.076   1.944  17.841  0.00  0.00    +0.000 N 
ATOM      3  N   UNL     1       3.103   1.570  18.691  0.00  0.00    +0.000 NA
ATOM      4  C   UNL     1       2.490   2.718  18.939  0.00  0.00    +0.000 A 
ATOM      5  C   UNL     1       3.011   3.814  18.228  0.00  0.00    +0.000 A 
ATOM      6  H   UNL     1       4.744   1.242  17.542  0.00  0.00    +0.000 HD
ENDROOT
BRANCH   1  10
ATOM      7  C   UNL     1       7.103   5.094  15.076  0.00  0.00    +0.000 A 
ATOM      8  C   UNL     1       5.986   4.511  14.481  0.00  0.00    +0.000 A 
ATOM      9  C   UNL     1       4.978   3.934  15.259  0.00  0.00    +0.000 A 
ATOM     10  C   UNL     1       5.088   3.904  16.657  0.00  0.00    +0.000 A 
ATOM     11  C   UNL     1       6.243   4.451  17.237  0.00  0.00    +0.000 A 
ATOM     12  C   UNL     1       7.238   5.052  16.461  0.00  0.00    +0.000 A 
BRANCH   7  14
ATOM     13  C   UNL     1       7.887   5.230  12.854  0.00  0.00    +0.000 C 
ATOM     14  O   UNL     1       8.018   5.632  14.214  0.00  0.00    +0.000 OA
ENDBRANCH   7  14
ENDBRANCH   1  10
BRANCH   5  15
ATOM     15  N   UNL     1       2.608   5.136  18.191  0.00  0.00    +0.000 N 
ATOM     16  C   UNL     1       2.494   5.886  19.346  0.00  0.00    +0.000 C 
ATOM     17  O   UNL     1       2.726   5.476  20.482  0.00  0.00    +0.000 OA
ATOM     18  H   UNL     1       2.724   5.597  17.302  0.00  0.00    +0.000 HD
BRANCH  16  19
ATOM     19  C   UNL     1       2.132   7.328  19.172  0.00  0.00    +0.000 A 
ATOM     20  C   UNL     1       1.557   7.981  20.275  0.00  0.00    +0.000 A 
ATOM     21  C   UNL     1       1.129   9.309  20.177  0.00  0.00    +0.000 A 
ATOM     22  C   UNL     1       1.287   9.995  18.970  0.00  0.00    +0.000 A 
ATOM     23  C   UNL     1       1.901   9.373  17.874  0.00  0.00    +0.000 A 
ATOM     24  C   UNL     1       2.328   8.042  17.979  0.00  0.00    +0.000 A 
BRANCH  22  25
ATOM     25  N   UNL     1       0.796  11.373  18.844  0.00  0.00    +0.000 N 
ATOM     26  O   UNL     1      -0.412  11.574  19.029  0.00  0.00    +0.000 OA
ATOM     27  O   UNL     1       1.620  12.251  18.551  0.00  0.00    +0.000 OA
ENDBRANCH  22  25
ENDBRANCH  16  19
ENDBRANCH   5  15
BRANCH   4  28
ATOM     28  O   UNL     1       1.412   2.627  19.713  0.00  0.00    +0.000 OA
ATOM     29  H   UNL     1       1.005   1.779  19.469  0.00  0.00    +0.000 HD
ENDBRANCH   4  28
TORSDOF 6
ENDMDL
MODEL 4
REMARK VINA RESULT:      -8.1      1.893      2.483
REMARK  Name = 
REMARK  7 active torsions:
REMARK  status: ('A' for Active; 'I' for Inactive)
REMARK    1  A    between atoms: C_1  and  O_2
REMARK    2  A    between atoms: O_2  and  C_3
REMARK    3  A    between atoms: C_6  and  C_7
REMARK    4  A    between atoms: C_10  and  O_11
REMARK    5  A    between atoms: C_12  and  N_13
REMARK    6  A    between atoms: C_14  and  C_16
REMARK    7  A    between atoms: C_19  and  N_20
REMARK                            x       y       z     vdW  Elec       q    Type
REMARK                         _______ _______ _______ _____ _____    ______ ____
ROOT
ATOM      1  C   UNL     1       4.813   4.393  19.111  0.00  0.00    +0.000 A 
ATOM      2  N   UNL     1       5.038   3.041  18.950  0.00  0.00    +0.000 N 
ATOM      3  N   UNL     1       4.121   2.244  19.528  0.00  0.00    +0.000 NA
ATOM      4  C   UNL     1       3.325   3.118  20.126  0.00  0.00    +0.000 A 
ATOM      5  C   UNL     1       3.676   4.461  19.904  0.00  0.00    +0.000 A 
ATOM      6  H   UNL     1       5.817   2.602  18.472  0.00  0.00    +0.000 HD
ENDROOT
BRANCH   1  10
ATOM      7  C   UNL     1       7.574   7.379  17.749  0.00  0.00    +0.000 A 
ATOM      8  C   UNL     1       6.337   7.228  17.125  0.00  0.00    +0.000 A 
ATOM      9  C   UNL     1       5.420   6.271  17.573  0.00  0.00    +0.000 A 
ATOM     10  C   UNL     1       5.744   5.423  18.642  0.00  0.00    +0.000 A 
ATOM     11  C   UNL     1       7.013   5.556  19.226  0.00  0.00    +0.000 A 
ATOM     12  C   UNL     1       7.918   6.530  18.796  0.00  0.00    +0.000 A 
BRANCH   7  14
ATOM     13  C   UNL     1       8.472   9.548  17.996  0.00  0.00    +0.000 C 
ATOM     14  O   UNL     1       8.382   8.351  17.229  0.00  0.00    +0.000 OA
ENDBRANCH   7  14
ENDBRANCH   1  10
BRANCH   5  15
ATOM     15  N   UNL     1       3.065   5.631  20.317  0.00  0.00    +0.000 N 
ATOM     16  C   UNL     1       2.351   6.419  19.435  0.00  0.00    +0.000 C 
ATOM     17  O   UNL     1       2.190   6.178  18.241  0.00  0.00    +0.000 OA
ATOM     18  H   UNL     1       2.890   5.699  21.307  0.00  0.00    +0.000 HD
BRANCH  16  19
ATOM     19  C   UNL     1       1.665   7.615  20.017  0.00  0.00    +0.000 A 
ATOM     20  C   UNL     1       1.545   8.748  19.194  0.00  0.00    +0.000 A 
ATOM     21  C   UNL     1       0.977   9.930  19.680  0.00  0.00    +0.000 A 
ATOM     22  C   UNL     1       0.514   9.978  20.998  0.00  0.00    +0.000 A 
ATOM     23  C   UNL     1       0.582   8.844  21.817  0.00  0.00    +0.000 A 
ATOM     24  C   UNL     1       1.153   7.662  21.324  0.00  0.00    +0.000 A 
BRANCH  22  25
ATOM     25  N   UNL     1      -0.039  11.229  21.531  0.00  0.00    +0.000 N 
ATOM     26  O   UNL     1      -0.328  12.123  20.723  0.00  0.00    +0.000 OA
ATOM     27  O   UNL     1      -0.176  11.318  22.759  0.00  0.00    +0.000 OA
ENDBRANCH  22  25
ENDBRANCH  16  19
ENDBRANCH   5  15
BRANCH   4  28
ATOM     28  O   UNL     1       2.260   2.593  20.726  0.00  0.00    +0.000 OA
ATOM     29  H   UNL     1       1.887   3.324  21.247  0.00  0.00    +0.000 HD
ENDBRANCH   4  28
TORSDOF 6
ENDMDL
MODEL 5
REMARK VINA RESULT:      -8.1      1.326      1.738
REMARK  Name = 
REMARK  7 active torsions:
REMARK  status: ('A' for Active; 'I' for Inactive)
REMARK    1  A    between atoms: C_1  and  O_2
REMARK    2  A    between atoms: O_2  and  C_3
REMARK    3  A    between atoms: C_6  and  C_7
REMARK    4  A    between atoms: C_10  and  O_11
REMARK    5  A    between atoms: C_12  and  N_13
REMARK    6  A    between atoms: C_14  and  C_16
REMARK    7  A    between atoms: C_19  and  N_20
REMARK                            x       y       z     vdW  Elec       q    Type
REMARK                         _______ _______ _______ _____ _____    ______ ____
ROOT
ATOM      1  C   UNL     1       4.073   3.250  17.511  0.00  0.00    +0.000 A 
ATOM      2  N   UNL     1       4.080   1.919  17.875  0.00  0.00    +0.000 N 
ATOM      3  N   UNL     1       3.108   1.563  18.734  0.00  0.00    +0.000 NA
ATOM      4  C   UNL     1       2.506   2.719  18.971  0.00  0.00    +0.000 A 
ATOM      5  C   UNL     1       3.032   3.802  18.244  0.00  0.00    +0.000 A 
ATOM      6  H   UNL     1       4.741   1.207  17.582  0.00  0.00    +0.000 HD
ENDROOT
BRANCH   1  10
ATOM      7  C   UNL     1       7.059   5.021  14.992  0.00  0.00    +0.000 A 
ATOM      8  C   UNL     1       7.024   5.314  16.354  0.00  0.00    +0.000 A 
ATOM      9  C   UNL     1       6.067   4.727  17.189  0.00  0.00    +0.000 A 
ATOM     10  C   UNL     1       5.104   3.856  16.663  0.00  0.00    +0.000 A 
ATOM     11  C   UNL     1       5.123   3.611  15.281  0.00  0.00    +0.000 A 
ATOM     12  C   UNL     1       6.095   4.176  14.451  0.00  0.00    +0.000 A 
BRANCH   7  14
ATOM     13  C   UNL     1       8.032   5.404  12.876  0.00  0.00    +0.000 C 
ATOM     14  O   UNL     1       8.042   5.649  14.279  0.00  0.00    +0.000 OA
ENDBRANCH   7  14
ENDBRANCH   1  10
BRANCH   5  15
ATOM     15  N   UNL     1       2.641   5.127  18.193  0.00  0.00    +0.000 N 
ATOM     16  C   UNL     1       2.479   5.874  19.344  0.00  0.00    +0.000 C 
ATOM     17  O   UNL     1       2.656   5.460  20.487  0.00  0.00    +0.000 OA
ATOM     18  H   UNL     1       2.801   5.590  17.311  0.00  0.00    +0.000 HD
BRANCH  16  19
ATOM     19  C   UNL     1       2.135   7.319  19.157  0.00  0.00    +0.000 A 
ATOM     20  C   UNL     1       1.569   7.989  20.255  0.00  0.00    +0.000 A 
ATOM     21  C   UNL     1       1.158   9.321  20.146  0.00  0.00    +0.000 A 
ATOM     22  C   UNL     1       1.323   9.995  18.933  0.00  0.00    +0.000 A 
ATOM     23  C   UNL     1       1.929   9.356  17.842  0.00  0.00    +0.000 A 
ATOM     24  C   UNL     1       2.339   8.021  17.958  0.00  0.00    +0.000 A 
BRANCH  22  25
ATOM     25  N   UNL     1       0.850  11.378  18.795  0.00  0.00    +0.000 N 
ATOM     26  O   UNL     1       1.696  12.260  18.598  0.00  0.00    +0.000 OA
ATOM     27  O   UNL     1      -0.369  11.579  18.894  0.00  0.00    +0.000 OA
ENDBRANCH  22  25
ENDBRANCH  16  19
ENDBRANCH   5  15
BRANCH   4  28
ATOM     28  O   UNL     1       1.431   2.647  19.751  0.00  0.00    +0.000 OA
ATOM     29  H   UNL     1       1.262   3.564  20.024  0.00  0.00    +0.000 HD
ENDBRANCH   4  28
TORSDOF 6
ENDMDL
MODEL 6
REMARK VINA RESULT:      -8.0      0.361      1.386
REMARK  Name = 
REMARK  7 active torsions:
REMARK  status: ('A' for Active; 'I' for Inactive)
REMARK    1  A    between atoms: C_1  and  O_2
REMARK    2  A    between atoms: O_2  and  C_3
REMARK    3  A    between atoms: C_6  and  C_7
REMARK    4  A    between atoms: C_10  and  O_11
REMARK    5  A    between atoms: C_12  and  N_13
REMARK    6  A    between atoms: C_14  and  C_16
REMARK    7  A    between atoms: C_19  and  N_20
REMARK                            x       y       z     vdW  Elec       q    Type
REMARK                         _______ _______ _______ _____ _____    ______ ____
ROOT
ATOM      1  C   UNL     1       4.526   3.580  19.094  0.00  0.00    +0.000 A 
ATOM      2  N   UNL     1       4.617   2.285  19.565  0.00  0.00    +0.000 N 
ATOM      3  N   UNL     1       3.874   2.029  20.656  0.00  0.00    +0.000 NA
ATOM      4  C   UNL     1       3.344   3.214  20.921  0.00  0.00    +0.000 A 
ATOM      5  C   UNL     1       3.687   4.216  19.996  0.00  0.00    +0.000 A 
ATOM      6  H   UNL     1       5.190   1.536  19.192  0.00  0.00    +0.000 HD
ENDROOT
BRANCH   1  10
ATOM      7  C   UNL     1       6.837   5.064  15.799  0.00  0.00    +0.000 A 
ATOM      8  C   UNL     1       7.264   5.275  17.109  0.00  0.00    +0.000 A 
ATOM      9  C   UNL     1       6.529   4.778  18.191  0.00  0.00    +0.000 A 
ATOM     10  C   UNL     1       5.329   4.085  17.976  0.00  0.00    +0.000 A 
ATOM     11  C   UNL     1       4.889   3.926  16.653  0.00  0.00    +0.000 A 
ATOM     12  C   UNL     1       5.637   4.398  15.572  0.00  0.00    +0.000 A 
BRANCH   7  14
ATOM     13  C   UNL     1       7.485   5.019  13.530  0.00  0.00    +0.000 C 
ATOM     14  O   UNL     1       7.640   5.590  14.826  0.00  0.00    +0.000 OA
ENDBRANCH   7  14
ENDBRANCH   1  10
BRANCH   5  15
ATOM     15  N   UNL     1       3.295   5.540  19.918  0.00  0.00    +0.000 N 
ATOM     16  C   UNL     1       2.445   5.981  18.922  0.00  0.00    +0.000 C 
ATOM     17  O   UNL     1       1.967   5.276  18.036  0.00  0.00    +0.000 OA
ATOM     18  H   UNL     1       3.383   6.067  20.773  0.00  0.00    +0.000 HD
BRANCH  16  19
ATOM     19  C   UNL     1       2.026   7.416  18.991  0.00  0.00    +0.000 A 
ATOM     20  C   UNL     1       2.186   8.186  17.827  0.00  0.00    +0.000 A 
ATOM     21  C   UNL     1       1.881   9.551  17.823  0.00  0.00    +0.000 A 
ATOM     22  C   UNL     1       1.401  10.151  18.990  0.00  0.00    +0.000 A 
ATOM     23  C   UNL     1       1.191   9.388  20.147  0.00  0.00    +0.000 A 
ATOM     24  C   UNL     1       1.498   8.021  20.143  0.00  0.00    +0.000 A 
BRANCH  22  25
ATOM     25  N   UNL     1       1.125  11.593  19.009  0.00  0.00    +0.000 N 
ATOM     26  O   UNL     1       0.011  11.962  19.406  0.00  0.00    +0.000 OA
ATOM     27  O   UNL     1       2.022  12.354  18.619  0.00  0.00    +0.000 OA
ENDBRANCH  22  25
ENDBRANCH  16  19
ENDBRANCH   5  15
BRANCH   4  28
ATOM     28  O   UNL     1       2.482   3.234  21.934  0.00  0.00    +0.000 OA
ATOM     29  H   UNL     1       2.973   3.644  22.667  0.00  0.00    +0.000 HD
ENDBRANCH   4  28
TORSDOF 6
ENDMDL
MODEL 7
REMARK VINA RESULT:      -8.0      0.279      1.156
REMARK  Name = 
REMARK  7 active torsions:
REMARK  status: ('A' for Active; 'I' for Inactive)
REMARK    1  A    between atoms: C_1  and  O_2
REMARK    2  A    between atoms: O_2  and  C_3
REMARK    3  A    between atoms: C_6  and  C_7
REMARK    4  A    between atoms: C_10  and  O_11
REMARK    5  A    between atoms: C_12  and  N_13
REMARK    6  A    between atoms: C_14  and  C_16
REMARK    7  A    between atoms: C_19  and  N_20
REMARK                            x       y       z     vdW  Elec       q    Type
REMARK                         _______ _______ _______ _____ _____    ______ ____
ROOT
ATOM      1  C   UNL     1       4.399   3.687  19.152  0.00  0.00    +0.000 A 
ATOM      2  N   UNL     1       4.463   2.390  19.620  0.00  0.00    +0.000 N 
ATOM      3  N   UNL     1       3.695   2.140  20.696  0.00  0.00    +0.000 NA
ATOM      4  C   UNL     1       3.176   3.331  20.954  0.00  0.00    +0.000 A 
ATOM      5  C   UNL     1       3.551   4.332  20.040  0.00  0.00    +0.000 A 
ATOM      6  H   UNL     1       5.033   1.634  19.256  0.00  0.00    +0.000 HD
ENDROOT
BRANCH   1  10
ATOM      7  C   UNL     1       6.872   5.136  15.961  0.00  0.00    +0.000 A 
ATOM      8  C   UNL     1       5.667   4.492  15.681  0.00  0.00    +0.000 A 
ATOM      9  C   UNL     1       4.843   4.033  16.714  0.00  0.00    +0.000 A 
ATOM     10  C   UNL     1       5.231   4.185  18.053  0.00  0.00    +0.000 A 
ATOM     11  C   UNL     1       6.470   4.790  18.315  0.00  0.00    +0.000 A 
ATOM     12  C   UNL     1       7.280   5.272  17.284  0.00  0.00    +0.000 A 
BRANCH   7  14
ATOM     13  C   UNL     1       7.270   4.889  13.647  0.00  0.00    +0.000 C 
ATOM     14  O   UNL     1       7.587   5.546  14.871  0.00  0.00    +0.000 OA
ENDBRANCH   7  14
ENDBRANCH   1  10
BRANCH   5  15
ATOM     15  N   UNL     1       3.179   5.661  19.959  0.00  0.00    +0.000 N 
ATOM     16  C   UNL     1       2.382   6.123  18.929  0.00  0.00    +0.000 C 
ATOM     17  O   UNL     1       1.940   5.434  18.013  0.00  0.00    +0.000 OA
ATOM     18  H   UNL     1       3.232   6.177  20.824  0.00  0.00    +0.000 HD
BRANCH  16  19
ATOM     19  C   UNL     1       1.977   7.563  18.995  0.00  0.00    +0.000 A 
ATOM     20  C   UNL     1       2.155   8.332  17.833  0.00  0.00    +0.000 A 
ATOM     21  C   UNL     1       1.864   9.699  17.827  0.00  0.00    +0.000 A 
ATOM     22  C   UNL     1       1.380  10.304  18.990  0.00  0.00    +0.000 A 
ATOM     23  C   UNL     1       1.152   9.543  20.144  0.00  0.00    +0.000 A 
ATOM     24  C   UNL     1       1.446   8.172  20.143  0.00  0.00    +0.000 A 
BRANCH  22  25
ATOM     25  N   UNL     1       1.119  11.748  19.008  0.00  0.00    +0.000 N 
ATOM     26  O   UNL     1       2.050  12.499  19.327  0.00  0.00    +0.000 OA
ATOM     27  O   UNL     1      -0.022  12.128  18.709  0.00  0.00    +0.000 OA
ENDBRANCH  22  25
ENDBRANCH  16  19
ENDBRANCH   5  15
BRANCH   4  28
ATOM     28  O   UNL     1       2.295   3.359  21.950  0.00  0.00    +0.000 OA
ATOM     29  H   UNL     1       2.041   4.295  22.028  0.00  0.00    +0.000 HD
ENDBRANCH   4  28
TORSDOF 6
ENDMDL
MODEL 8
REMARK VINA RESULT:      -8.0      2.219      7.018
REMARK  Name = 
REMARK  7 active torsions:
REMARK  status: ('A' for Active; 'I' for Inactive)
REMARK    1  A    between atoms: C_1  and  O_2
REMARK    2  A    between atoms: O_2  and  C_3
REMARK    3  A    between atoms: C_6  and  C_7
REMARK    4  A    between atoms: C_10  and  O_11
REMARK    5  A    between atoms: C_12  and  N_13
REMARK    6  A    between atoms: C_14  and  C_16
REMARK    7  A    between atoms: C_19  and  N_20
REMARK                            x       y       z     vdW  Elec       q    Type
REMARK                         _______ _______ _______ _____ _____    ______ ____
ROOT
ATOM      1  C   UNL     1       2.475   5.518  20.222  0.00  0.00    +0.000 A 
ATOM      2  N   UNL     1       2.004   4.894  21.360  0.00  0.00    +0.000 N 
ATOM      3  N   UNL     1       2.380   3.609  21.495  0.00  0.00    +0.000 NA
ATOM      4  C   UNL     1       3.059   3.396  20.378  0.00  0.00    +0.000 A 
ATOM      5  C   UNL     1       3.174   4.526  19.550  0.00  0.00    +0.000 A 
ATOM      6  H   UNL     1       1.402   5.291  22.073  0.00  0.00    +0.000 HD
ENDROOT
BRANCH   1  10
ATOM      7  C   UNL     1       1.374   9.500  19.068  0.00  0.00    +0.000 A 
ATOM      8  C   UNL     1       1.025   9.009  20.326  0.00  0.00    +0.000 A 
ATOM      9  C   UNL     1       1.396   7.720  20.721  0.00  0.00    +0.000 A 
ATOM     10  C   UNL     1       2.100   6.883  19.843  0.00  0.00    +0.000 A 
ATOM     11  C   UNL     1       2.399   7.375  18.563  0.00  0.00    +0.000 A 
ATOM     12  C   UNL     1       2.053   8.672  18.179  0.00  0.00    +0.000 A 
BRANCH   7  14
ATOM     13  C   UNL     1       1.987  11.670  18.371  0.00  0.00    +0.000 C 
ATOM     14  O   UNL     1       0.964  10.775  18.798  0.00  0.00    +0.000 OA
ENDBRANCH   7  14
ENDBRANCH   1  10
BRANCH   5  15
ATOM     15  N   UNL     1       3.837   4.698  18.348  0.00  0.00    +0.000 N 
ATOM     16  C   UNL     1       5.204   4.527  18.251  0.00  0.00    +0.000 C 
ATOM     17  O   UNL     1       5.947   4.219  19.180  0.00  0.00    +0.000 OA
ATOM     18  H   UNL     1       3.260   4.624  17.524  0.00  0.00    +0.000 HD
BRANCH  16  19
ATOM     19  C   UNL     1       5.795   4.657  16.882  0.00  0.00    +0.000 A 
ATOM     20  C   UNL     1       4.941   4.425  15.791  0.00  0.00    +0.000 A 
ATOM     21  C   UNL     1       5.427   4.462  14.480  0.00  0.00    +0.000 A 
ATOM     22  C   UNL     1       6.777   4.743  14.256  0.00  0.00    +0.000 A 
ATOM     23  C   UNL     1       7.633   5.023  15.329  0.00  0.00    +0.000 A 
ATOM     24  C   UNL     1       7.139   4.985  16.640  0.00  0.00    +0.000 A 
BRANCH  22  25
ATOM     25  N   UNL     1       7.306   4.736  12.886  0.00  0.00    +0.000 N 
ATOM     26  O   UNL     1       6.868   3.881  12.104  0.00  0.00    +0.000 OA
ATOM     27  O   UNL     1       8.166   5.580  12.598  0.00  0.00    +0.000 OA
ENDBRANCH  22  25
ENDBRANCH  16  19
ENDBRANCH   5  15
BRANCH   4  28
ATOM     28  O   UNL     1       3.624   2.195  20.281  0.00  0.00    +0.000 OA
ATOM     29  H   UNL     1       3.648   2.011  19.327  0.00  0.00    +0.000 HD
ENDBRANCH   4  28
TORSDOF 6
ENDMDL
MODEL 9
REMARK VINA RESULT:      -8.0      2.212      7.103
REMARK  Name = 
REMARK  7 active torsions:
REMARK  status: ('A' for Active; 'I' for Inactive)
REMARK    1  A    between atoms: C_1  and  O_2
REMARK    2  A    between atoms: O_2  and  C_3
REMARK    3  A    between atoms: C_6  and  C_7
REMARK    4  A    between atoms: C_10  and  O_11
REMARK    5  A    between atoms: C_12  and  N_13
REMARK    6  A    between atoms: C_14  and  C_16
REMARK    7  A    between atoms: C_19  and  N_20
REMARK                            x       y       z     vdW  Elec       q    Type
REMARK                         _______ _______ _______ _____ _____    ______ ____
ROOT
ATOM      1  C   UNL     1       2.447   5.615  20.188  0.00  0.00    +0.000 A 
ATOM      2  N   UNL     1       1.971   4.987  21.322  0.00  0.00    +0.000 N 
ATOM      3  N   UNL     1       2.357   3.706  21.461  0.00  0.00    +0.000 NA
ATOM      4  C   UNL     1       3.047   3.498  20.350  0.00  0.00    +0.000 A 
ATOM      5  C   UNL     1       3.160   4.629  19.522  0.00  0.00    +0.000 A 
ATOM      6  H   UNL     1       1.359   5.380  22.029  0.00  0.00    +0.000 HD
ENDROOT
BRANCH   1  10
ATOM      7  C   UNL     1       1.330   9.614  19.112  0.00  0.00    +0.000 A 
ATOM      8  C   UNL     1       2.006   8.803  18.201  0.00  0.00    +0.000 A 
ATOM      9  C   UNL     1       2.357   7.491  18.534  0.00  0.00    +0.000 A 
ATOM     10  C   UNL     1       2.063   6.977  19.805  0.00  0.00    +0.000 A 
ATOM     11  C   UNL     1       1.428   7.824  20.726  0.00  0.00    +0.000 A 
ATOM     12  C   UNL     1       1.052   9.126  20.385  0.00  0.00    +0.000 A 
BRANCH   7  14
ATOM     13  C   UNL     1       0.663  11.805  19.685  0.00  0.00    +0.000 C 
ATOM     14  O   UNL     1       1.033  10.874  18.672  0.00  0.00    +0.000 OA
ENDBRANCH   7  14
ENDBRANCH   1  10
BRANCH   5  15
ATOM     15  N   UNL     1       3.831   4.806  18.327  0.00  0.00    +0.000 N 
ATOM     16  C   UNL     1       5.180   4.528  18.211  0.00  0.00    +0.000 C 
ATOM     17  O   UNL     1       5.897   4.112  19.118  0.00  0.00    +0.000 OA
ATOM     18  H   UNL     1       3.249   4.823  17.504  0.00  0.00    +0.000 HD
BRANCH  16  19
ATOM     19  C   UNL     1       5.776   4.678  16.847  0.00  0.00    +0.000 A 
ATOM     20  C   UNL     1       5.035   4.174  15.765  0.00  0.00    +0.000 A 
ATOM     21  C   UNL     1       5.548   4.214  14.465  0.00  0.00    +0.000 A 
ATOM     22  C   UNL     1       6.809   4.773  14.240  0.00  0.00    +0.000 A 
ATOM     23  C   UNL     1       7.541   5.323  15.300  0.00  0.00    +0.000 A 
ATOM     24  C   UNL     1       7.021   5.280  16.601  0.00  0.00    +0.000 A 
BRANCH  22  25
ATOM     25  N   UNL     1       7.375   4.775  12.886  0.00  0.00    +0.000 N 
ATOM     26  O   UNL     1       6.990   3.900  12.098  0.00  0.00    +0.000 OA
ATOM     27  O   UNL     1       8.211   5.649  12.615  0.00  0.00    +0.000 OA
ENDBRANCH  22  25
ENDBRANCH  16  19
ENDBRANCH   5  15
BRANCH   4  28
ATOM     28  O   UNL     1       3.624   2.303  20.258  0.00  0.00    +0.000 OA
ATOM     29  H   UNL     1       3.773   2.173  19.306  0.00  0.00    +0.000 HD
ENDBRANCH   4  28
TORSDOF 6
ENDMDL
