MODEL 1
REMARK VINA RESULT:      -9.1      0.000      0.000
REMARK  Name = 
REMARK  8 active torsions:
REMARK  status: ('A' for Active; 'I' for Inactive)
REMARK    1  A    between atoms: C_1  and  C_2
REMARK    2  A    between atoms: C_2  and  C_3
REMARK    3  A    between atoms: C_7  and  N_8
REMARK    4  A    between atoms: C_9  and  C_11
REMARK    5  A    between atoms: C_17  and  C_18
REMARK    6  A    between atoms: C_19  and  C_20
REMARK    7  A    between atoms: N_21  and  C_22
REMARK    8  A    between atoms: C_22  and  C_23
REMARK                            x       y       z     vdW  Elec       q    Type
REMARK                         _______ _______ _______ _____ _____    ______ ____
ROOT
ATOM      1  C   UNL     1       8.108   8.438  18.131  0.00  0.00    +0.000 A 
ATOM      2  C   UNL     1       8.594   7.441  18.992  0.00  0.00    +0.000 A 
ATOM      3  C   UNL     1       7.894   6.234  19.189  0.00  0.00    +0.000 A 
ATOM      4  C   UNL     1       6.725   6.076  18.439  0.00  0.00    +0.000 A 
ATOM      5  C   UNL     1       6.491   6.868  17.301  0.00  0.00    +0.000 A 
ATOM      6  C   UNL     1       7.097   8.130  17.217  0.00  0.00    +0.000 A 
ATOM      7  C   UNL     1       5.344   6.292  16.700  0.00  0.00    +0.000 A 
ATOM      8  C   UNL     1       5.239   5.238  15.625  0.00  0.00    +0.000 C 
ATOM      9  C   UNL     1       4.596   6.186  17.866  0.00  0.00    +0.000 A 
ATOM     10  C   UNL     1       3.150   6.415  18.010  0.00  0.00    +0.000 C 
ATOM     11  N   UNL     1       5.488   5.402  18.653  0.00  0.00    +0.000 N 
ENDROOT
BRANCH   1  13
ATOM     12  N   UNL     1       9.643  10.038  19.221  0.00  0.00    +0.000 N 
ATOM     13  C   UNL     1       8.645   9.850  18.267  0.00  0.00    +0.000 C 
ATOM     14  O   UNL     1       8.172  10.672  17.521  0.00  0.00    +0.000 OA
ATOM     15  H   UNL     1       9.961   9.244  19.733  0.00  0.00    +0.000 HD
BRANCH  12  20
ATOM     16  C   UNL     1      10.403  13.333  20.818  0.00  0.00    +0.000 A 
ATOM     17  C   UNL     1      11.521  13.756  20.083  0.00  0.00    +0.000 A 
ATOM     18  C   UNL     1      12.023  12.949  19.071  0.00  0.00    +0.000 A 
ATOM     19  C   UNL     1      11.418  11.721  18.777  0.00  0.00    +0.000 A 
ATOM     20  C   UNL     1      10.313  11.267  19.495  0.00  0.00    +0.000 A 
ATOM     21  C   UNL     1       9.825  12.081  20.539  0.00  0.00    +0.000 A 
BRANCH  16  23
ATOM     22  C   UNL     1      10.433  15.645  21.733  0.00  0.00    +0.000 C 
ATOM     23  C   UNL     1       9.787  14.270  21.827  0.00  0.00    +0.000 C 
ENDBRANCH  16  23
ENDBRANCH  12  20
ENDBRANCH   1  13
BRANCH  11  24
ATOM     24  C   UNL     1       5.322   3.935  18.552  0.00  0.00    +0.000 C 
BRANCH  24  25
ATOM     25  C   UNL     1       4.028   3.207  18.804  0.00  0.00    +0.000 A 
ATOM     26  C   UNL     1       3.349   3.060  20.011  0.00  0.00    +0.000 A 
ATOM     27  C   UNL     1       2.025   2.569  20.006  0.00  0.00    +0.000 A 
ATOM     28  C   UNL     1       1.416   2.212  18.797  0.00  0.00    +0.000 A 
ATOM     29  F   UNL     1       0.119   1.820  18.808  0.00  0.00    +0.000 F 
ATOM     30  C   UNL     1       2.091   2.266  17.609  0.00  0.00    +0.000 A 
ATOM     31  C   UNL     1       3.400   2.735  17.603  0.00  0.00    +0.000 A 
ENDBRANCH  24  25
ENDBRANCH  11  24
TORSDOF 5
ENDMDL
MODEL 2
REMARK VINA RESULT:      -8.7      1.756      1.756
REMARK  Name = 
REMARK  8 active torsions:
REMARK  status: ('A' for Active; 'I' for Inactive)
REMARK    1  A    between atoms: C_1  and  C_2
REMARK    2  A    between atoms: C_2  and  C_3
REMARK    3  A    between atoms: C_7  and  N_8
REMARK    4  A    between atoms: C_9  and  C_11
REMARK    5  A    between atoms: C_17  and  C_18
REMARK    6  A    between atoms: C_19  and  C_20
REMARK    7  A    between atoms: N_21  and  C_22
REMARK    8  A    between atoms: C_22  and  C_23
REMARK                            x       y       z     vdW  Elec       q    Type
REMARK                         _______ _______ _______ _____ _____    ______ ____
ROOT
ATOM      1  C   UNL     1       8.273   8.491  18.312  0.00  0.00    +0.000 A 
ATOM      2  C   UNL     1       8.655   7.381  19.083  0.00  0.00    +0.000 A 
ATOM      3  C   UNL     1       7.873   6.209  19.121  0.00  0.00    +0.000 A 
ATOM      4  C   UNL     1       6.734   6.207  18.310  0.00  0.00    +0.000 A 
ATOM      5  C   UNL     1       6.605   7.125  17.253  0.00  0.00    +0.000 A 
ATOM      6  C   UNL     1       7.291   8.346  17.329  0.00  0.00    +0.000 A 
ATOM      7  C   UNL     1       5.456   6.691  16.546  0.00  0.00    +0.000 A 
ATOM      8  C   UNL     1       5.340   5.763  15.362  0.00  0.00    +0.000 C 
ATOM      9  C   UNL     1       4.646   6.515  17.662  0.00  0.00    +0.000 A 
ATOM     10  C   UNL     1       3.212   6.823  17.768  0.00  0.00    +0.000 C 
ATOM     11  N   UNL     1       5.450   5.598  18.398  0.00  0.00    +0.000 N 
ENDROOT
BRANCH   1  13
ATOM     12  N   UNL     1       8.696  10.836  17.660  0.00  0.00    +0.000 N 
ATOM     13  C   UNL     1       8.888   9.843  18.618  0.00  0.00    +0.000 C 
ATOM     14  O   UNL     1       9.467   9.937  19.672  0.00  0.00    +0.000 OA
ATOM     15  H   UNL     1       8.152  10.615  16.854  0.00  0.00    +0.000 HD
BRANCH  12  20
ATOM     16  C   UNL     1       8.583  14.556  18.030  0.00  0.00    +0.000 A 
ATOM     17  C   UNL     1       9.935  14.899  17.885  0.00  0.00    +0.000 A 
ATOM     18  C   UNL     1      10.878  13.902  17.674  0.00  0.00    +0.000 A 
ATOM     19  C   UNL     1      10.487  12.560  17.600  0.00  0.00    +0.000 A 
ATOM     20  C   UNL     1       9.153  12.184  17.752  0.00  0.00    +0.000 A 
ATOM     21  C   UNL     1       8.205  13.201  17.991  0.00  0.00    +0.000 A 
BRANCH  16  23
ATOM     22  C   UNL     1       7.377  16.080  19.581  0.00  0.00    +0.000 C 
ATOM     23  C   UNL     1       7.550  15.652  18.131  0.00  0.00    +0.000 C 
ENDBRANCH  16  23
ENDBRANCH  12  20
ENDBRANCH   1  13
BRANCH  11  24
ATOM     24  C   UNL     1       5.199   4.162  18.135  0.00  0.00    +0.000 C 
BRANCH  24  25
ATOM     25  C   UNL     1       3.952   3.428  18.551  0.00  0.00    +0.000 A 
ATOM     26  C   UNL     1       3.537   3.106  19.841  0.00  0.00    +0.000 A 
ATOM     27  C   UNL     1       2.219   2.646  20.051  0.00  0.00    +0.000 A 
ATOM     28  C   UNL     1       1.350   2.493  18.963  0.00  0.00    +0.000 A 
ATOM     29  F   UNL     1       0.067   2.128  19.197  0.00  0.00    +0.000 F 
ATOM     30  C   UNL     1       1.760   2.719  17.679  0.00  0.00    +0.000 A 
ATOM     31  C   UNL     1       3.061   3.161  17.458  0.00  0.00    +0.000 A 
ENDBRANCH  24  25
ENDBRANCH  11  24
TORSDOF 5
ENDMDL
MODEL 3
REMARK VINA RESULT:      -8.6      5.923      8.219
REMARK  Name = 
REMARK  8 active torsions:
REMARK  status: ('A' for Active; 'I' for Inactive)
REMARK    1  A    between atoms: C_1  and  C_2
REMARK    2  A    between atoms: C_2  and  C_3
REMARK    3  A    between atoms: C_7  and  N_8
REMARK    4  A    between atoms: C_9  and  C_11
REMARK    5  A    between atoms: C_17  and  C_18
REMARK    6  A    between atoms: C_19  and  C_20
REMARK    7  A    between atoms: N_21  and  C_22
REMARK    8  A    between atoms: C_22  and  C_23
REMARK                            x       y       z     vdW  Elec       q    Type
REMARK                         _______ _______ _______ _____ _____    ______ ____
ROOT
ATOM      1  C   UNL     1       2.380   7.481  18.239  0.00  0.00    +0.000 A 
ATOM      2  C   UNL     1       3.503   7.852  17.482  0.00  0.00    +0.000 A 
ATOM      3  C   UNL     1       4.478   6.907  17.103  0.00  0.00    +0.000 A 
ATOM      4  C   UNL     1       4.227   5.585  17.481  0.00  0.00    +0.000 A 
ATOM      5  C   UNL     1       2.933   5.177  17.847  0.00  0.00    +0.000 A 
ATOM      6  C   UNL     1       2.041   6.132  18.359  0.00  0.00    +0.000 A 
ATOM      7  C   UNL     1       3.023   3.767  17.955  0.00  0.00    +0.000 A 
ATOM      8  C   UNL     1       2.750   2.697  16.927  0.00  0.00    +0.000 C 
ATOM      9  C   UNL     1       4.196   3.745  18.701  0.00  0.00    +0.000 A 
ATOM     10  C   UNL     1       4.522   2.829  19.804  0.00  0.00    +0.000 C 
ATOM     11  N   UNL     1       5.050   4.474  17.825  0.00  0.00    +0.000 N 
ENDROOT
BRANCH   1  13
ATOM     12  N   UNL     1       0.971   9.510  18.169  0.00  0.00    +0.000 N 
ATOM     13  C   UNL     1       1.600   8.558  18.969  0.00  0.00    +0.000 C 
ATOM     14  O   UNL     1       1.580   8.477  20.172  0.00  0.00    +0.000 OA
ATOM     15  H   UNL     1       1.044   9.416  17.179  0.00  0.00    +0.000 HD
BRANCH  12  20
ATOM     16  C   UNL     1      -2.066  11.616  18.737  0.00  0.00    +0.000 A 
ATOM     17  C   UNL     1      -1.532  12.701  19.448  0.00  0.00    +0.000 A 
ATOM     18  C   UNL     1      -0.177  12.729  19.744  0.00  0.00    +0.000 A 
ATOM     19  C   UNL     1       0.660  11.685  19.333  0.00  0.00    +0.000 A 
ATOM     20  C   UNL     1       0.160  10.587  18.634  0.00  0.00    +0.000 A 
ATOM     21  C   UNL     1      -1.223  10.555  18.361  0.00  0.00    +0.000 A 
BRANCH  16  23
ATOM     22  C   UNL     1      -3.915  10.322  17.695  0.00  0.00    +0.000 C 
ATOM     23  C   UNL     1      -3.513  11.655  18.309  0.00  0.00    +0.000 C 
ENDBRANCH  16  23
ENDBRANCH  12  20
ENDBRANCH   1  13
BRANCH  11  24
ATOM     24  C   UNL     1       5.803   3.669  16.836  0.00  0.00    +0.000 C 
BRANCH  24  25
ATOM     25  C   UNL     1       6.199   4.157  15.468  0.00  0.00    +0.000 A 
ATOM     26  C   UNL     1       7.240   5.020  15.134  0.00  0.00    +0.000 A 
ATOM     27  C   UNL     1       7.620   5.158  13.781  0.00  0.00    +0.000 A 
ATOM     28  C   UNL     1       6.934   4.450  12.787  0.00  0.00    +0.000 A 
ATOM     29  F   UNL     1       7.367   4.536  11.506  0.00  0.00    +0.000 F 
ATOM     30  C   UNL     1       5.853   3.665  13.079  0.00  0.00    +0.000 A 
ATOM     31  C   UNL     1       5.462   3.531  14.407  0.00  0.00    +0.000 A 
ENDBRANCH  24  25
ENDBRANCH  11  24
TORSDOF 5
ENDMDL
MODEL 4
REMARK VINA RESULT:      -8.5      5.929      7.944
REMARK  Name = 
REMARK  8 active torsions:
REMARK  status: ('A' for Active; 'I' for Inactive)
REMARK    1  A    between atoms: C_1  and  C_2
REMARK    2  A    between atoms: C_2  and  C_3
REMARK    3  A    between atoms: C_7  and  N_8
REMARK    4  A    between atoms: C_9  and  C_11
REMARK    5  A    between atoms: C_17  and  C_18
REMARK    6  A    between atoms: C_19  and  C_20
REMARK    7  A    between atoms: N_21  and  C_22
REMARK    8  A    between atoms: C_22  and  C_23
REMARK                            x       y       z     vdW  Elec       q    Type
REMARK                         _______ _______ _______ _____ _____    ______ ____
ROOT
ATOM      1  C   UNL     1       2.417   7.615  18.277  0.00  0.00    +0.000 A 
ATOM      2  C   UNL     1       3.502   7.931  17.442  0.00  0.00    +0.000 A 
ATOM      3  C   UNL     1       4.422   6.946  17.029  0.00  0.00    +0.000 A 
ATOM      4  C   UNL     1       4.156   5.642  17.458  0.00  0.00    +0.000 A 
ATOM      5  C   UNL     1       2.876   5.285  17.914  0.00  0.00    +0.000 A 
ATOM      6  C   UNL     1       2.046   6.280  18.454  0.00  0.00    +0.000 A 
ATOM      7  C   UNL     1       2.931   3.876  18.054  0.00  0.00    +0.000 A 
ATOM      8  C   UNL     1       2.562   2.790  17.074  0.00  0.00    +0.000 C 
ATOM      9  C   UNL     1       4.147   3.836  18.726  0.00  0.00    +0.000 A 
ATOM     10  C   UNL     1       4.514   2.938  19.832  0.00  0.00    +0.000 C 
ATOM     11  N   UNL     1       4.966   4.516  17.779  0.00  0.00    +0.000 N 
ENDROOT
BRANCH   1  13
ATOM     12  N   UNL     1       1.026   8.363  20.176  0.00  0.00    +0.000 N 
ATOM     13  C   UNL     1       1.717   8.733  19.024  0.00  0.00    +0.000 C 
ATOM     14  O   UNL     1       1.842   9.841  18.563  0.00  0.00    +0.000 OA
ATOM     15  H   UNL     1       1.052   7.406  20.454  0.00  0.00    +0.000 HD
BRANCH  12  20
ATOM     16  C   UNL     1      -1.054  11.263  21.295  0.00  0.00    +0.000 A 
ATOM     17  C   UNL     1      -1.040  11.103  22.689  0.00  0.00    +0.000 A 
ATOM     18  C   UNL     1      -0.353  10.036  23.251  0.00  0.00    +0.000 A 
ATOM     19  C   UNL     1       0.329   9.124  22.439  0.00  0.00    +0.000 A 
ATOM     20  C   UNL     1       0.326   9.247  21.050  0.00  0.00    +0.000 A 
ATOM     21  C   UNL     1      -0.395  10.319  20.485  0.00  0.00    +0.000 A 
BRANCH  16  23
ATOM     22  C   UNL     1      -2.337  12.157  19.362  0.00  0.00    +0.000 C 
ATOM     23  C   UNL     1      -1.693  12.493  20.700  0.00  0.00    +0.000 C 
ENDBRANCH  16  23
ENDBRANCH  12  20
ENDBRANCH   1  13
BRANCH  11  24
ATOM     24  C   UNL     1       5.630   3.663  16.768  0.00  0.00    +0.000 C 
BRANCH  24  25
ATOM     25  C   UNL     1       6.087   4.145  15.417  0.00  0.00    +0.000 A 
ATOM     26  C   UNL     1       7.154   4.991  15.125  0.00  0.00    +0.000 A 
ATOM     27  C   UNL     1       7.587   5.125  13.788  0.00  0.00    +0.000 A 
ATOM     28  C   UNL     1       6.929   4.428  12.767  0.00  0.00    +0.000 A 
ATOM     29  F   UNL     1       7.412   4.508  11.504  0.00  0.00    +0.000 F 
ATOM     30  C   UNL     1       5.826   3.660  13.016  0.00  0.00    +0.000 A 
ATOM     31  C   UNL     1       5.382   3.531  14.328  0.00  0.00    +0.000 A 
ENDBRANCH  24  25
ENDBRANCH  11  24
TORSDOF 5
ENDMDL
MODEL 5
REMARK VINA RESULT:      -8.4      5.647      7.514
REMARK  Name = 
REMARK  8 active torsions:
REMARK  status: ('A' for Active; 'I' for Inactive)
REMARK    1  A    between atoms: C_1  and  C_2
REMARK    2  A    between atoms: C_2  and  C_3
REMARK    3  A    between atoms: C_7  and  N_8
REMARK    4  A    between atoms: C_9  and  C_11
REMARK    5  A    between atoms: C_17  and  C_18
REMARK    6  A    between atoms: C_19  and  C_20
REMARK    7  A    between atoms: N_21  and  C_22
REMARK    8  A    between atoms: C_22  and  C_23
REMARK                            x       y       z     vdW  Elec       q    Type
REMARK                         _______ _______ _______ _____ _____    ______ ____
ROOT
ATOM      1  C   UNL     1       2.354   7.630  18.215  0.00  0.00    +0.000 A 
ATOM      2  C   UNL     1       3.460   7.958  17.415  0.00  0.00    +0.000 A 
ATOM      3  C   UNL     1       4.410   6.986  17.039  0.00  0.00    +0.000 A 
ATOM      4  C   UNL     1       4.151   5.681  17.468  0.00  0.00    +0.000 A 
ATOM      5  C   UNL     1       2.862   5.306  17.883  0.00  0.00    +0.000 A 
ATOM      6  C   UNL     1       1.999   6.290  18.389  0.00  0.00    +0.000 A 
ATOM      7  C   UNL     1       2.935   3.899  18.035  0.00  0.00    +0.000 A 
ATOM      8  C   UNL     1       2.616   2.800  17.050  0.00  0.00    +0.000 C 
ATOM      9  C   UNL     1       4.128   3.882  18.747  0.00  0.00    +0.000 A 
ATOM     10  C   UNL     1       4.473   2.998  19.870  0.00  0.00    +0.000 C 
ATOM     11  N   UNL     1       4.967   4.570  17.823  0.00  0.00    +0.000 N 
ENDROOT
BRANCH   1  13
ATOM     12  N   UNL     1       1.083   9.747  18.123  0.00  0.00    +0.000 N 
ATOM     13  C   UNL     1       1.611   8.741  18.931  0.00  0.00    +0.000 C 
ATOM     14  O   UNL     1       1.529   8.639  20.130  0.00  0.00    +0.000 OA
ATOM     15  H   UNL     1       1.197   9.666  17.136  0.00  0.00    +0.000 HD
BRANCH  12  20
ATOM     16  C   UNL     1       0.295  13.236  19.214  0.00  0.00    +0.000 A 
ATOM     17  C   UNL     1      -1.069  13.136  19.526  0.00  0.00    +0.000 A 
ATOM     18  C   UNL     1      -1.723  11.923  19.368  0.00  0.00    +0.000 A 
ATOM     19  C   UNL     1      -1.031  10.798  18.904  0.00  0.00    +0.000 A 
ATOM     20  C   UNL     1       0.322  10.866  18.574  0.00  0.00    +0.000 A 
ATOM     21  C   UNL     1       0.973  12.109  18.713  0.00  0.00    +0.000 A 
BRANCH  16  23
ATOM     22  C   UNL     1       2.219  14.676  18.574  0.00  0.00    +0.000 C 
ATOM     23  C   UNL     1       1.028  14.521  19.509  0.00  0.00    +0.000 C 
ENDBRANCH  16  23
ENDBRANCH  12  20
ENDBRANCH   1  13
BRANCH  11  24
ATOM     24  C   UNL     1       5.679   3.722  16.840  0.00  0.00    +0.000 C 
BRANCH  24  25
ATOM     25  C   UNL     1       6.117   4.186  15.477  0.00  0.00    +0.000 A 
ATOM     26  C   UNL     1       7.183   5.024  15.159  0.00  0.00    +0.000 A 
ATOM     27  C   UNL     1       7.598   5.140  13.814  0.00  0.00    +0.000 A 
ATOM     28  C   UNL     1       6.921   4.434  12.812  0.00  0.00    +0.000 A 
ATOM     29  F   UNL     1       7.386   4.497  11.541  0.00  0.00    +0.000 F 
ATOM     30  C   UNL     1       5.819   3.673  13.087  0.00  0.00    +0.000 A 
ATOM     31  C   UNL     1       5.394   3.562  14.406  0.00  0.00    +0.000 A 
ENDBRANCH  24  25
ENDBRANCH  11  24
TORSDOF 5
ENDMDL
MODEL 6
REMARK VINA RESULT:      -8.3      1.109      1.295
REMARK  Name = 
REMARK  8 active torsions:
REMARK  status: ('A' for Active; 'I' for Inactive)
REMARK    1  A    between atoms: C_1  and  C_2
REMARK    2  A    between atoms: C_2  and  C_3
REMARK    3  A    between atoms: C_7  and  N_8
REMARK    4  A    between atoms: C_9  and  C_11
REMARK    5  A    between atoms: C_17  and  C_18
REMARK    6  A    between atoms: C_19  and  C_20
REMARK    7  A    between atoms: N_21  and  C_22
REMARK    8  A    between atoms: C_22  and  C_23
REMARK                            x       y       z     vdW  Elec       q    Type
REMARK                         _______ _______ _______ _____ _____    ______ ____
ROOT
ATOM      1  C   UNL     1       8.031   8.033  18.155  0.00  0.00    +0.000 A 
ATOM      2  C   UNL     1       8.334   7.034  19.094  0.00  0.00    +0.000 A 
ATOM      3  C   UNL     1       7.477   5.933  19.298  0.00  0.00    +0.000 A 
ATOM      4  C   UNL     1       6.347   5.878  18.476  0.00  0.00    +0.000 A 
ATOM      5  C   UNL     1       6.287   6.627  17.289  0.00  0.00    +0.000 A 
ATOM      6  C   UNL     1       7.050   7.800  17.187  0.00  0.00    +0.000 A 
ATOM      7  C   UNL     1       5.117   6.163  16.637  0.00  0.00    +0.000 A 
ATOM      8  C   UNL     1       4.950   5.071  15.608  0.00  0.00    +0.000 C 
ATOM      9  C   UNL     1       4.289   6.213  17.752  0.00  0.00    +0.000 A 
ATOM     10  C   UNL     1       2.877   6.624  17.783  0.00  0.00    +0.000 C 
ATOM     11  N   UNL     1       5.025   5.372  18.635  0.00  0.00    +0.000 N 
ENDROOT
BRANCH   1  13
ATOM     12  N   UNL     1       9.180   9.734  19.529  0.00  0.00    +0.000 N 
ATOM     13  C   UNL     1       8.730   9.374  18.260  0.00  0.00    +0.000 C 
ATOM     14  O   UNL     1       8.850   9.994  17.232  0.00  0.00    +0.000 OA
ATOM     15  H   UNL     1       9.044   9.090  20.277  0.00  0.00    +0.000 HD
BRANCH  12  20
ATOM     16  C   UNL     1       9.989  12.986  21.190  0.00  0.00    +0.000 A 
ATOM     17  C   UNL     1      11.175  13.352  20.538  0.00  0.00    +0.000 A 
ATOM     18  C   UNL     1      11.707  12.522  19.561  0.00  0.00    +0.000 A 
ATOM     19  C   UNL     1      11.065  11.327  19.219  0.00  0.00    +0.000 A 
ATOM     20  C   UNL     1       9.890  10.928  19.855  0.00  0.00    +0.000 A 
ATOM     21  C   UNL     1       9.371  11.764  20.865  0.00  0.00    +0.000 A 
BRANCH  16  23
ATOM     22  C   UNL     1       8.063  14.512  21.568  0.00  0.00    +0.000 C 
ATOM     23  C   UNL     1       9.350  13.952  22.157  0.00  0.00    +0.000 C 
ENDBRANCH  16  23
ENDBRANCH  12  20
ENDBRANCH   1  13
BRANCH  11  24
ATOM     24  C   UNL     1       4.683   3.932  18.592  0.00  0.00    +0.000 C 
BRANCH  24  25
ATOM     25  C   UNL     1       3.713   3.261  19.527  0.00  0.00    +0.000 A 
ATOM     26  C   UNL     1       3.999   2.491  20.651  0.00  0.00    +0.000 A 
ATOM     27  C   UNL     1       2.961   2.161  21.550  0.00  0.00    +0.000 A 
ATOM     28  C   UNL     1       1.653   2.589  21.293  0.00  0.00    +0.000 A 
ATOM     29  F   UNL     1       0.689   2.331  22.209  0.00  0.00    +0.000 F 
ATOM     30  C   UNL     1       1.330   3.272  20.153  0.00  0.00    +0.000 A 
ATOM     31  C   UNL     1       2.342   3.591  19.254  0.00  0.00    +0.000 A 
ENDBRANCH  24  25
ENDBRANCH  11  24
TORSDOF 5
ENDMDL
MODEL 7
REMARK VINA RESULT:      -8.3      5.721      8.032
REMARK  Name = 
REMARK  8 active torsions:
REMARK  status: ('A' for Active; 'I' for Inactive)
REMARK    1  A    between atoms: C_1  and  C_2
REMARK    2  A    between atoms: C_2  and  C_3
REMARK    3  A    between atoms: C_7  and  N_8
REMARK    4  A    between atoms: C_9  and  C_11
REMARK    5  A    between atoms: C_17  and  C_18
REMARK    6  A    between atoms: C_19  and  C_20
REMARK    7  A    between atoms: N_21  and  C_22
REMARK    8  A    between atoms: C_22  and  C_23
REMARK                            x       y       z     vdW  Elec       q    Type
REMARK                         _______ _______ _______ _____ _____    ______ ____
ROOT
ATOM      1  C   UNL     1       2.125   8.346  18.007  0.00  0.00    +0.000 A 
ATOM      2  C   UNL     1       3.435   8.408  17.505  0.00  0.00    +0.000 A 
ATOM      3  C   UNL     1       4.280   7.281  17.516  0.00  0.00    +0.000 A 
ATOM      4  C   UNL     1       3.716   6.099  18.005  0.00  0.00    +0.000 A 
ATOM      5  C   UNL     1       2.321   5.954  18.095  0.00  0.00    +0.000 A 
ATOM      6  C   UNL     1       1.528   7.103  18.230  0.00  0.00    +0.000 A 
ATOM      7  C   UNL     1       2.128   4.588  18.420  0.00  0.00    +0.000 A 
ATOM      8  C   UNL     1       1.896   3.401  17.519  0.00  0.00    +0.000 C 
ATOM      9  C   UNL     1       3.084   4.533  19.427  0.00  0.00    +0.000 A 
ATOM     10  C   UNL     1       2.988   3.795  20.696  0.00  0.00    +0.000 C 
ATOM     11  N   UNL     1       4.228   4.962  18.694  0.00  0.00    +0.000 N 
ENDROOT
BRANCH   1  13
ATOM     12  N   UNL     1       0.168   9.504  18.974  0.00  0.00    +0.000 N 
ATOM     13  C   UNL     1       1.413   9.637  18.362  0.00  0.00    +0.000 C 
ATOM     14  O   UNL     1       2.000  10.658  18.100  0.00  0.00    +0.000 OA
ATOM     15  H   UNL     1      -0.167   8.584  19.166  0.00  0.00    +0.000 HD
BRANCH  12  20
ATOM     16  C   UNL     1      -1.366  12.013  21.284  0.00  0.00    +0.000 A 
ATOM     17  C   UNL     1      -2.297  12.642  20.444  0.00  0.00    +0.000 A 
ATOM     18  C   UNL     1      -2.409  12.242  19.119  0.00  0.00    +0.000 A 
ATOM     19  C   UNL     1      -1.603  11.213  18.619  0.00  0.00    +0.000 A 
ATOM     20  C   UNL     1      -0.660  10.575  19.423  0.00  0.00    +0.000 A 
ATOM     21  C   UNL     1      -0.535  11.005  20.761  0.00  0.00    +0.000 A 
BRANCH  16  23
ATOM     22  C   UNL     1      -2.680  12.034  23.395  0.00  0.00    +0.000 C 
ATOM     23  C   UNL     1      -1.341  12.364  22.751  0.00  0.00    +0.000 C 
ENDBRANCH  16  23
ENDBRANCH  12  20
ENDBRANCH   1  13
BRANCH  11  24
ATOM     24  C   UNL     1       5.019   3.892  18.045  0.00  0.00    +0.000 C 
BRANCH  24  25
ATOM     25  C   UNL     1       5.652   4.009  16.684  0.00  0.00    +0.000 A 
ATOM     26  C   UNL     1       5.078   3.736  15.445  0.00  0.00    +0.000 A 
ATOM     27  C   UNL     1       5.737   4.150  14.268  0.00  0.00    +0.000 A 
ATOM     28  C   UNL     1       6.971   4.808  14.353  0.00  0.00    +0.000 A 
ATOM     29  F   UNL     1       7.546   5.268  13.215  0.00  0.00    +0.000 F 
ATOM     30  C   UNL     1       7.596   5.011  15.551  0.00  0.00    +0.000 A 
ATOM     31  C   UNL     1       6.962   4.596  16.717  0.00  0.00    +0.000 A 
ENDBRANCH  24  25
ENDBRANCH  11  24
TORSDOF 5
ENDMDL
MODEL 8
REMARK VINA RESULT:      -8.2      6.591     10.019
REMARK  Name = 
REMARK  8 active torsions:
REMARK  status: ('A' for Active; 'I' for Inactive)
REMARK    1  A    between atoms: C_1  and  C_2
REMARK    2  A    between atoms: C_2  and  C_3
REMARK    3  A    between atoms: C_7  and  N_8
REMARK    4  A    between atoms: C_9  and  C_11
REMARK    5  A    between atoms: C_17  and  C_18
REMARK    6  A    between atoms: C_19  and  C_20
REMARK    7  A    between atoms: N_21  and  C_22
REMARK    8  A    between atoms: C_22  and  C_23
REMARK                            x       y       z     vdW  Elec       q    Type
REMARK                         _______ _______ _______ _____ _____    ______ ____
ROOT
ATOM      1  C   UNL     1       1.436   8.330  19.935  0.00  0.00    +0.000 A 
ATOM      2  C   UNL     1       0.940   8.487  21.240  0.00  0.00    +0.000 A 
ATOM      3  C   UNL     1       0.573   9.753  21.739  0.00  0.00    +0.000 A 
ATOM      4  C   UNL     1       0.686  10.820  20.843  0.00  0.00    +0.000 A 
ATOM      5  C   UNL     1       0.769  10.588  19.459  0.00  0.00    +0.000 A 
ATOM      6  C   UNL     1       1.279   9.362  19.007  0.00  0.00    +0.000 A 
ATOM      7  C   UNL     1       0.659  11.876  18.878  0.00  0.00    +0.000 A 
ATOM      8  C   UNL     1      -0.560  12.614  18.383  0.00  0.00    +0.000 C 
ATOM      9  C   UNL     1       1.569  12.503  19.721  0.00  0.00    +0.000 A 
ATOM     10  C   UNL     1       2.547  13.537  19.349  0.00  0.00    +0.000 C 
ATOM     11  N   UNL     1       0.971  12.208  20.980  0.00  0.00    +0.000 N 
ENDROOT
BRANCH   1  13
ATOM     12  N   UNL     1       2.673   6.976  18.280  0.00  0.00    +0.000 N 
ATOM     13  C   UNL     1       2.197   7.066  19.587  0.00  0.00    +0.000 C 
ATOM     14  O   UNL     1       2.337   6.266  20.479  0.00  0.00    +0.000 OA
ATOM     15  H   UNL     1       2.514   7.745  17.667  0.00  0.00    +0.000 HD
BRANCH  12  20
ATOM     16  C   UNL     1       5.511   5.171  16.644  0.00  0.00    +0.000 A 
ATOM     17  C   UNL     1       5.022   3.857  16.594  0.00  0.00    +0.000 A 
ATOM     18  C   UNL     1       3.764   3.571  17.107  0.00  0.00    +0.000 A 
ATOM     19  C   UNL     1       2.980   4.585  17.668  0.00  0.00    +0.000 A 
ATOM     20  C   UNL     1       3.440   5.899  17.744  0.00  0.00    +0.000 A 
ATOM     21  C   UNL     1       4.729   6.176  17.243  0.00  0.00    +0.000 A 
BRANCH  16  23
ATOM     22  C   UNL     1       6.904   4.804  14.618  0.00  0.00    +0.000 C 
ATOM     23  C   UNL     1       6.821   5.497  15.971  0.00  0.00    +0.000 C 
ENDBRANCH  16  23
ENDBRANCH  12  20
ENDBRANCH   1  13
BRANCH  11  24
ATOM     24  C   UNL     1      -0.002  13.204  21.483  0.00  0.00    +0.000 C 
BRANCH  24  25
ATOM     25  C   UNL     1      -1.386  12.868  21.972  0.00  0.00    +0.000 A 
ATOM     26  C   UNL     1      -1.744  12.219  23.151  0.00  0.00    +0.000 A 
ATOM     27  C   UNL     1      -3.095  12.223  23.562  0.00  0.00    +0.000 A 
ATOM     28  C   UNL     1      -4.063  12.855  22.773  0.00  0.00    +0.000 A 
ATOM     29  F   UNL     1      -5.339  12.916  23.227  0.00  0.00    +0.000 F 
ATOM     30  C   UNL     1      -3.751  13.423  21.569  0.00  0.00    +0.000 A 
ATOM     31  C   UNL     1      -2.426  13.414  21.148  0.00  0.00    +0.000 A 
ENDBRANCH  24  25
ENDBRANCH  11  24
TORSDOF 5
ENDMDL
MODEL 9
REMARK VINA RESULT:      -8.2      6.009      7.863
REMARK  Name = 
REMARK  8 active torsions:
REMARK  status: ('A' for Active; 'I' for Inactive)
REMARK    1  A    between atoms: C_1  and  C_2
REMARK    2  A    between atoms: C_2  and  C_3
REMARK    3  A    between atoms: C_7  and  N_8
REMARK    4  A    between atoms: C_9  and  C_11
REMARK    5  A    between atoms: C_17  and  C_18
REMARK    6  A    between atoms: C_19  and  C_20
REMARK    7  A    between atoms: N_21  and  C_22
REMARK    8  A    between atoms: C_22  and  C_23
REMARK                            x       y       z     vdW  Elec       q    Type
REMARK                         _______ _______ _______ _____ _____    ______ ____
ROOT
ATOM      1  C   UNL     1       2.357   7.395  18.472  0.00  0.00    +0.000 A 
ATOM      2  C   UNL     1       3.425   7.767  17.641  0.00  0.00    +0.000 A 
ATOM      3  C   UNL     1       4.365   6.821  17.185  0.00  0.00    +0.000 A 
ATOM      4  C   UNL     1       4.135   5.497  17.568  0.00  0.00    +0.000 A 
ATOM      5  C   UNL     1       2.868   5.092  18.022  0.00  0.00    +0.000 A 
ATOM      6  C   UNL     1       2.020   6.046  18.605  0.00  0.00    +0.000 A 
ATOM      7  C   UNL     1       2.959   3.681  18.110  0.00  0.00    +0.000 A 
ATOM      8  C   UNL     1       2.607   2.621  17.095  0.00  0.00    +0.000 C 
ATOM      9  C   UNL     1       4.182   3.646  18.770  0.00  0.00    +0.000 A 
ATOM     10  C   UNL     1       4.581   2.718  19.839  0.00  0.00    +0.000 C 
ATOM     11  N   UNL     1       4.975   4.380  17.841  0.00  0.00    +0.000 N 
ENDROOT
BRANCH   1  13
ATOM     12  N   UNL     1       0.903   9.392  18.524  0.00  0.00    +0.000 N 
ATOM     13  C   UNL     1       1.637   8.468  19.266  0.00  0.00    +0.000 C 
ATOM     14  O   UNL     1       1.749   8.408  20.466  0.00  0.00    +0.000 OA
ATOM     15  H   UNL     1       0.871   9.282  17.534  0.00  0.00    +0.000 HD
BRANCH  12  20
ATOM     16  C   UNL     1      -0.695  11.639  21.051  0.00  0.00    +0.000 A 
ATOM     17  C   UNL     1      -1.440  12.503  20.234  0.00  0.00    +0.000 A 
ATOM     18  C   UNL     1      -1.405  12.346  18.856  0.00  0.00    +0.000 A 
ATOM     19  C   UNL     1      -0.636  11.329  18.276  0.00  0.00    +0.000 A 
ATOM     20  C   UNL     1       0.124  10.461  19.058  0.00  0.00    +0.000 A 
ATOM     21  C   UNL     1       0.103  10.644  20.457  0.00  0.00    +0.000 A 
BRANCH  16  23
ATOM     22  C   UNL     1      -0.879  10.342  23.164  0.00  0.00    +0.000 C 
ATOM     23  C   UNL     1      -0.839  11.734  22.550  0.00  0.00    +0.000 C 
ENDBRANCH  16  23
ENDBRANCH  12  20
ENDBRANCH   1  13
BRANCH  11  24
ATOM     24  C   UNL     1       5.650   3.580  16.794  0.00  0.00    +0.000 C 
BRANCH  24  25
ATOM     25  C   UNL     1       6.096   4.126  15.464  0.00  0.00    +0.000 A 
ATOM     26  C   UNL     1       7.137   5.015  15.207  0.00  0.00    +0.000 A 
ATOM     27  C   UNL     1       7.571   5.211  13.878  0.00  0.00    +0.000 A 
ATOM     28  C   UNL     1       6.938   4.533  12.830  0.00  0.00    +0.000 A 
ATOM     29  F   UNL     1       7.423   4.674  11.572  0.00  0.00    +0.000 F 
ATOM     30  C   UNL     1       5.859   3.721  13.046  0.00  0.00    +0.000 A 
ATOM     31  C   UNL     1       5.414   3.531  14.350  0.00  0.00    +0.000 A 
ENDBRANCH  24  25
ENDBRANCH  11  24
TORSDOF 5
ENDMDL
