MODEL 1
REMARK VINA RESULT:      -7.7      0.000      0.000
REMARK  Name = 
REMARK  3 active torsions:
REMARK  status: ('A' for Active; 'I' for Inactive)
REMARK    1  A    between atoms: C_1  and  C_2
REMARK    2  A    between atoms: N_6  and  C_7
REMARK    3  A    between atoms: C_7  and  C_8
REMARK                            x       y       z     vdW  Elec       q    Type
REMARK                         _______ _______ _______ _____ _____    ______ ____
ROOT
ATOM      1  C   UNL     1       3.294   4.554  18.926  0.00  0.00    +0.000 C 
ATOM      2  O   UNL     1       2.575   3.596  18.604  0.00  0.00    +0.000 OA
ATOM      3  N   UNL     1       4.506   4.745  18.226  0.00  0.00    +0.000 N 
ATOM      4  C   UNL     1       4.607   4.018  16.937  0.00  0.00    +0.000 C 
ATOM      5  C   UNL     1       4.850   4.978  15.780  0.00  0.00    +0.000 C 
ATOM      6  C   UNL     1       6.160   5.673  16.016  0.00  0.00    +0.000 C 
ATOM      7  C   UNL     1       6.141   6.379  17.374  0.00  0.00    +0.000 A 
ATOM      8  C   UNL     1       7.212   7.281  17.496  0.00  0.00    +0.000 A 
ATOM      9  C   UNL     1       8.170   6.992  18.443  0.00  0.00    +0.000 A 
ATOM     10  C   UNL     1       7.932   5.930  19.315  0.00  0.00    +0.000 A 
ATOM     11  C   UNL     1       6.661   5.285  19.373  0.00  0.00    +0.000 A 
ATOM     12  C   UNL     1       5.647   5.612  18.460  0.00  0.00    +0.000 A 
ENDROOT
BRANCH   1  13
ATOM     13  C   UNL     1       2.711   5.494  20.001  0.00  0.00    +0.000 C 
BRANCH  13  19
ATOM     14  C   UNL     1       0.603  10.060  20.905  0.00  0.00    +0.000 C 
ATOM     15  C   UNL     1       1.229   9.078  19.948  0.00  0.00    +0.000 A 
ATOM     16  C   UNL     1       1.408   9.458  18.610  0.00  0.00    +0.000 A 
ATOM     17  C   UNL     1       2.049   8.589  17.754  0.00  0.00    +0.000 A 
ATOM     18  C   UNL     1       2.470   7.337  18.212  0.00  0.00    +0.000 A 
ATOM     19  N   UNL     1       2.251   6.910  19.476  0.00  0.00    +0.000 N 
ATOM     20  C   UNL     1       1.658   7.790  20.359  0.00  0.00    +0.000 A 
ENDBRANCH  13  19
ENDBRANCH   1  13
TORSDOF 2
ENDMDL
MODEL 2
REMARK VINA RESULT:      -7.3      0.901      1.013
REMARK  Name = 
REMARK  3 active torsions:
REMARK  status: ('A' for Active; 'I' for Inactive)
REMARK    1  A    between atoms: C_1  and  C_2
REMARK    2  A    between atoms: N_6  and  C_7
REMARK    3  A    between atoms: C_7  and  C_8
REMARK                            x       y       z     vdW  Elec       q    Type
REMARK                         _______ _______ _______ _____ _____    ______ ____
ROOT
ATOM      1  C   UNL     1       3.901   3.688  18.207  0.00  0.00    +0.000 C 
ATOM      2  O   UNL     1       3.451   2.642  17.717  0.00  0.00    +0.000 OA
ATOM      3  N   UNL     1       5.048   4.264  17.616  0.00  0.00    +0.000 N 
ATOM      4  C   UNL     1       5.361   3.775  16.251  0.00  0.00    +0.000 C 
ATOM      5  C   UNL     1       5.391   4.921  15.248  0.00  0.00    +0.000 C 
ATOM      6  C   UNL     1       6.481   5.870  15.655  0.00  0.00    +0.000 C 
ATOM      7  C   UNL     1       6.250   6.348  17.090  0.00  0.00    +0.000 A 
ATOM      8  C   UNL     1       7.061   7.456  17.397  0.00  0.00    +0.000 A 
ATOM      9  C   UNL     1       8.034   7.273  18.355  0.00  0.00    +0.000 A 
ATOM     10  C   UNL     1       8.042   6.071  19.062  0.00  0.00    +0.000 A 
ATOM     11  C   UNL     1       6.969   5.137  18.955  0.00  0.00    +0.000 A 
ATOM     12  C   UNL     1       5.932   5.338  18.032  0.00  0.00    +0.000 A 
ENDROOT
BRANCH   1  13
ATOM     13  C   UNL     1       3.075   4.296  19.359  0.00  0.00    +0.000 C 
BRANCH  13  19
ATOM     14  C   UNL     1       1.320   8.688  21.293  0.00  0.00    +0.000 C 
ATOM     15  C   UNL     1       1.785   7.875  20.111  0.00  0.00    +0.000 A 
ATOM     16  C   UNL     1       1.836   8.486  18.850  0.00  0.00    +0.000 A 
ATOM     17  C   UNL     1       2.333   7.766  17.785  0.00  0.00    +0.000 A 
ATOM     18  C   UNL     1       2.735   6.438  17.963  0.00  0.00    +0.000 A 
ATOM     19  N   UNL     1       2.634   5.797  19.149  0.00  0.00    +0.000 N 
ATOM     20  C   UNL     1       2.189   6.521  20.236  0.00  0.00    +0.000 A 
ENDBRANCH  13  19
ENDBRANCH   1  13
TORSDOF 2
ENDMDL
MODEL 3
REMARK VINA RESULT:      -7.3      2.194      5.701
REMARK  Name = 
REMARK  3 active torsions:
REMARK  status: ('A' for Active; 'I' for Inactive)
REMARK    1  A    between atoms: C_1  and  C_2
REMARK    2  A    between atoms: N_6  and  C_7
REMARK    3  A    between atoms: C_7  and  C_8
REMARK                            x       y       z     vdW  Elec       q    Type
REMARK                         _______ _______ _______ _____ _____    ______ ____
ROOT
ATOM      1  C   UNL     1       2.977   6.587  19.039  0.00  0.00    +0.000 C 
ATOM      2  O   UNL     1       2.627   7.539  19.752  0.00  0.00    +0.000 OA
ATOM      3  N   UNL     1       2.730   5.276  19.507  0.00  0.00    +0.000 N 
ATOM      4  C   UNL     1       1.742   5.180  20.609  0.00  0.00    +0.000 C 
ATOM      5  C   UNL     1       0.575   4.281  20.225  0.00  0.00    +0.000 C 
ATOM      6  C   UNL     1       1.110   2.901  19.970  0.00  0.00    +0.000 C 
ATOM      7  C   UNL     1       2.194   2.952  18.891  0.00  0.00    +0.000 A 
ATOM      8  C   UNL     1       2.498   1.666  18.411  0.00  0.00    +0.000 A 
ATOM      9  C   UNL     1       3.761   1.183  18.672  0.00  0.00    +0.000 A 
ATOM     10  C   UNL     1       4.693   2.051  19.241  0.00  0.00    +0.000 A 
ATOM     11  C   UNL     1       4.428   3.447  19.368  0.00  0.00    +0.000 A 
ATOM     12  C   UNL     1       3.168   3.972  19.044  0.00  0.00    +0.000 A 
ENDROOT
BRANCH   1  13
ATOM     13  C   UNL     1       3.555   6.962  17.659  0.00  0.00    +0.000 C 
BRANCH  13  19
ATOM     14  C   UNL     1       6.140   3.887  14.501  0.00  0.00    +0.000 C 
ATOM     15  C   UNL     1       6.092   4.743  15.742  0.00  0.00    +0.000 A 
ATOM     16  C   UNL     1       7.255   4.878  16.512  0.00  0.00    +0.000 A 
ATOM     17  C   UNL     1       7.232   5.720  17.603  0.00  0.00    +0.000 A 
ATOM     18  C   UNL     1       6.052   6.387  17.950  0.00  0.00    +0.000 A 
ATOM     19  N   UNL     1       4.895   6.224  17.271  0.00  0.00    +0.000 N 
ATOM     20  C   UNL     1       4.917   5.426  16.145  0.00  0.00    +0.000 A 
ENDBRANCH  13  19
ENDBRANCH   1  13
TORSDOF 2
ENDMDL
MODEL 4
REMARK VINA RESULT:      -7.2      1.489      5.339
REMARK  Name = 
REMARK  3 active torsions:
REMARK  status: ('A' for Active; 'I' for Inactive)
REMARK    1  A    between atoms: C_1  and  C_2
REMARK    2  A    between atoms: N_6  and  C_7
REMARK    3  A    between atoms: C_7  and  C_8
REMARK                            x       y       z     vdW  Elec       q    Type
REMARK                         _______ _______ _______ _____ _____    ______ ____
ROOT
ATOM      1  C   UNL     1       4.074   3.141  18.846  0.00  0.00    +0.000 C 
ATOM      2  O   UNL     1       3.867   1.952  18.560  0.00  0.00    +0.000 OA
ATOM      3  N   UNL     1       2.959   3.994  19.005  0.00  0.00    +0.000 N 
ATOM      4  C   UNL     1       1.661   3.300  19.192  0.00  0.00    +0.000 C 
ATOM      5  C   UNL     1       1.004   3.705  20.505  0.00  0.00    +0.000 C 
ATOM      6  C   UNL     1       0.729   5.181  20.455  0.00  0.00    +0.000 C 
ATOM      7  C   UNL     1       2.028   5.945  20.184  0.00  0.00    +0.000 A 
ATOM      8  C   UNL     1       1.872   7.321  20.433  0.00  0.00    +0.000 A 
ATOM      9  C   UNL     1       1.967   8.167  19.350  0.00  0.00    +0.000 A 
ATOM     10  C   UNL     1       2.369   7.628  18.128  0.00  0.00    +0.000 A 
ATOM     11  C   UNL     1       2.863   6.293  18.030  0.00  0.00    +0.000 A 
ATOM     12  C   UNL     1       2.837   5.435  19.139  0.00  0.00    +0.000 A 
ENDROOT
BRANCH   1  13
ATOM     13  C   UNL     1       5.547   3.521  19.099  0.00  0.00    +0.000 C 
BRANCH  13  19
ATOM     14  C   UNL     1       8.131   7.851  18.273  0.00  0.00    +0.000 C 
ATOM     15  C   UNL     1       7.381   6.657  17.741  0.00  0.00    +0.000 A 
ATOM     16  C   UNL     1       7.255   6.503  16.353  0.00  0.00    +0.000 A 
ATOM     17  C   UNL     1       6.636   5.372  15.865  0.00  0.00    +0.000 A 
ATOM     18  C   UNL     1       6.108   4.426  16.749  0.00  0.00    +0.000 A 
ATOM     19  N   UNL     1       6.150   4.577  18.092  0.00  0.00    +0.000 N 
ATOM     20  C   UNL     1       6.813   5.677  18.595  0.00  0.00    +0.000 A 
ENDBRANCH  13  19
ENDBRANCH   1  13
TORSDOF 2
ENDMDL
MODEL 5
REMARK VINA RESULT:      -7.2      1.558      5.536
REMARK  Name = 
REMARK  3 active torsions:
REMARK  status: ('A' for Active; 'I' for Inactive)
REMARK    1  A    between atoms: C_1  and  C_2
REMARK    2  A    between atoms: N_6  and  C_7
REMARK    3  A    between atoms: C_7  and  C_8
REMARK                            x       y       z     vdW  Elec       q    Type
REMARK                         _______ _______ _______ _____ _____    ______ ____
ROOT
ATOM      1  C   UNL     1       4.050   2.971  19.008  0.00  0.00    +0.000 C 
ATOM      2  O   UNL     1       3.831   1.779  18.747  0.00  0.00    +0.000 OA
ATOM      3  N   UNL     1       2.947   3.850  19.095  0.00  0.00    +0.000 N 
ATOM      4  C   UNL     1       1.629   3.188  19.245  0.00  0.00    +0.000 C 
ATOM      5  C   UNL     1       0.925   3.643  20.516  0.00  0.00    +0.000 C 
ATOM      6  C   UNL     1       0.684   5.122  20.414  0.00  0.00    +0.000 C 
ATOM      7  C   UNL     1       2.008   5.853  20.179  0.00  0.00    +0.000 A 
ATOM      8  C   UNL     1       1.871   7.237  20.382  0.00  0.00    +0.000 A 
ATOM      9  C   UNL     1       2.031   8.051  19.282  0.00  0.00    +0.000 A 
ATOM     10  C   UNL     1       2.473   7.469  18.093  0.00  0.00    +0.000 A 
ATOM     11  C   UNL     1       2.942   6.122  18.054  0.00  0.00    +0.000 A 
ATOM     12  C   UNL     1       2.851   5.296  19.184  0.00  0.00    +0.000 A 
ENDROOT
BRANCH   1  13
ATOM     13  C   UNL     1       5.519   3.329  19.314  0.00  0.00    +0.000 C 
BRANCH  13  19
ATOM     14  C   UNL     1       6.415   5.104  14.607  0.00  0.00    +0.000 C 
ATOM     15  C   UNL     1       6.568   5.232  16.101  0.00  0.00    +0.000 A 
ATOM     16  C   UNL     1       7.258   6.338  16.617  0.00  0.00    +0.000 A 
ATOM     17  C   UNL     1       7.332   6.494  17.985  0.00  0.00    +0.000 A 
ATOM     18  C   UNL     1       6.764   5.536  18.831  0.00  0.00    +0.000 A 
ATOM     19  N   UNL     1       6.154   4.422  18.368  0.00  0.00    +0.000 N 
ATOM     20  C   UNL     1       6.025   4.280  17.002  0.00  0.00    +0.000 A 
ENDBRANCH  13  19
ENDBRANCH   1  13
TORSDOF 2
ENDMDL
MODEL 6
REMARK VINA RESULT:      -7.1      2.395      4.288
REMARK  Name = 
REMARK  3 active torsions:
REMARK  status: ('A' for Active; 'I' for Inactive)
REMARK    1  A    between atoms: C_1  and  C_2
REMARK    2  A    between atoms: N_6  and  C_7
REMARK    3  A    between atoms: C_7  and  C_8
REMARK                            x       y       z     vdW  Elec       q    Type
REMARK                         _______ _______ _______ _____ _____    ______ ____
ROOT
ATOM      1  C   UNL     1       2.019   7.815  19.466  0.00  0.00    +0.000 C 
ATOM      2  O   UNL     1       1.630   8.311  20.534  0.00  0.00    +0.000 OA
ATOM      3  N   UNL     1       2.375   6.448  19.455  0.00  0.00    +0.000 N 
ATOM      4  C   UNL     1       1.885   5.663  20.615  0.00  0.00    +0.000 C 
ATOM      5  C   UNL     1       1.014   4.498  20.164  0.00  0.00    +0.000 C 
ATOM      6  C   UNL     1       1.854   3.586  19.317  0.00  0.00    +0.000 C 
ATOM      7  C   UNL     1       2.452   4.365  18.143  0.00  0.00    +0.000 A 
ATOM      8  C   UNL     1       2.984   3.497  17.173  0.00  0.00    +0.000 A 
ATOM      9  C   UNL     1       4.348   3.529  16.983  0.00  0.00    +0.000 A 
ATOM     10  C   UNL     1       5.079   4.520  17.638  0.00  0.00    +0.000 A 
ATOM     11  C   UNL     1       4.432   5.593  18.321  0.00  0.00    +0.000 A 
ATOM     12  C   UNL     1       3.037   5.615  18.467  0.00  0.00    +0.000 A 
ENDROOT
BRANCH   1  13
ATOM     13  C   UNL     1       1.965   8.746  18.238  0.00  0.00    +0.000 C 
BRANCH  13  19
ATOM     14  C   UNL     1      -2.889  10.198  17.569  0.00  0.00    +0.000 C 
ATOM     15  C   UNL     1      -1.469  10.527  17.955  0.00  0.00    +0.000 A 
ATOM     16  C   UNL     1      -1.170  11.829  18.382  0.00  0.00    +0.000 A 
ATOM     17  C   UNL     1       0.111  12.109  18.808  0.00  0.00    +0.000 A 
ATOM     18  C   UNL     1       1.095  11.116  18.769  0.00  0.00    +0.000 A 
ATOM     19  N   UNL     1       0.859   9.871  18.297  0.00  0.00    +0.000 N 
ATOM     20  C   UNL     1      -0.431   9.561  17.918  0.00  0.00    +0.000 A 
ENDBRANCH  13  19
ENDBRANCH   1  13
TORSDOF 2
ENDMDL
MODEL 7
REMARK VINA RESULT:      -7.0      1.778      5.874
REMARK  Name = 
REMARK  3 active torsions:
REMARK  status: ('A' for Active; 'I' for Inactive)
REMARK    1  A    between atoms: C_1  and  C_2
REMARK    2  A    between atoms: N_6  and  C_7
REMARK    3  A    between atoms: C_7  and  C_8
REMARK                            x       y       z     vdW  Elec       q    Type
REMARK                         _______ _______ _______ _____ _____    ______ ____
ROOT
ATOM      1  C   UNL     1       3.692   2.964  18.308  0.00  0.00    +0.000 C 
ATOM      2  O   UNL     1       3.380   1.827  17.927  0.00  0.00    +0.000 OA
ATOM      3  N   UNL     1       2.658   3.855  18.674  0.00  0.00    +0.000 N 
ATOM      4  C   UNL     1       1.344   3.217  18.929  0.00  0.00    +0.000 C 
ATOM      5  C   UNL     1       0.852   3.512  20.340  0.00  0.00    +0.000 C 
ATOM      6  C   UNL     1       0.672   4.997  20.471  0.00  0.00    +0.000 C 
ATOM      7  C   UNL     1       1.983   5.715  20.141  0.00  0.00    +0.000 A 
ATOM      8  C   UNL     1       1.944   7.061  20.544  0.00  0.00    +0.000 A 
ATOM      9  C   UNL     1       1.984   8.014  19.550  0.00  0.00    +0.000 A 
ATOM     10  C   UNL     1       2.222   7.590  18.242  0.00  0.00    +0.000 A 
ATOM     11  C   UNL     1       2.614   6.248  17.955  0.00  0.00    +0.000 A 
ATOM     12  C   UNL     1       2.646   5.277  18.967  0.00  0.00    +0.000 A 
ENDROOT
BRANCH   1  13
ATOM     13  C   UNL     1       5.206   3.234  18.437  0.00  0.00    +0.000 C 
BRANCH  13  19
ATOM     14  C   UNL     1       6.069   3.811  13.433  0.00  0.00    +0.000 C 
ATOM     15  C   UNL     1       6.241   4.292  14.852  0.00  0.00    +0.000 A 
ATOM     16  C   UNL     1       6.951   5.480  15.081  0.00  0.00    +0.000 A 
ATOM     17  C   UNL     1       7.043   5.958  16.370  0.00  0.00    +0.000 A 
ATOM     18  C   UNL     1       6.473   5.241  17.427  0.00  0.00    +0.000 A 
ATOM     19  N   UNL     1       5.843   4.058  17.250  0.00  0.00    +0.000 N 
ATOM     20  C   UNL     1       5.697   3.593  15.960  0.00  0.00    +0.000 A 
ENDBRANCH  13  19
ENDBRANCH   1  13
TORSDOF 2
ENDMDL
MODEL 8
REMARK VINA RESULT:      -6.9      2.812      6.658
REMARK  Name = 
REMARK  3 active torsions:
REMARK  status: ('A' for Active; 'I' for Inactive)
REMARK    1  A    between atoms: C_1  and  C_2
REMARK    2  A    between atoms: N_6  and  C_7
REMARK    3  A    between atoms: C_7  and  C_8
REMARK                            x       y       z     vdW  Elec       q    Type
REMARK                         _______ _______ _______ _____ _____    ______ ____
ROOT
ATOM      1  C   UNL     1       6.215   5.519  16.878  0.00  0.00    +0.000 C 
ATOM      2  O   UNL     1       6.960   6.493  16.692  0.00  0.00    +0.000 OA
ATOM      3  N   UNL     1       5.025   5.719  17.613  0.00  0.00    +0.000 N 
ATOM      4  C   UNL     1       4.604   7.134  17.752  0.00  0.00    +0.000 C 
ATOM      5  C   UNL     1       3.208   7.353  17.184  0.00  0.00    +0.000 C 
ATOM      6  C   UNL     1       2.246   6.511  17.971  0.00  0.00    +0.000 C 
ATOM      7  C   UNL     1       2.677   5.043  17.927  0.00  0.00    +0.000 A 
ATOM      8  C   UNL     1       1.652   4.195  18.384  0.00  0.00    +0.000 A 
ATOM      9  C   UNL     1       1.885   3.505  19.553  0.00  0.00    +0.000 A 
ATOM     10  C   UNL     1       3.164   3.565  20.108  0.00  0.00    +0.000 A 
ATOM     11  C   UNL     1       4.256   4.147  19.398  0.00  0.00    +0.000 A 
ATOM     12  C   UNL     1       4.052   4.797  18.172  0.00  0.00    +0.000 A 
ENDROOT
BRANCH   1  13
ATOM     13  C   UNL     1       6.640   4.210  16.181  0.00  0.00    +0.000 C 
BRANCH  13  19
ATOM     14  C   UNL     1       4.994   2.835  11.543  0.00  0.00    +0.000 C 
ATOM     15  C   UNL     1       5.954   3.607  12.412  0.00  0.00    +0.000 A 
ATOM     16  C   UNL     1       6.928   4.407  11.796  0.00  0.00    +0.000 A 
ATOM     17  C   UNL     1       7.755   5.172  12.590  0.00  0.00    +0.000 A 
ATOM     18  C   UNL     1       7.645   5.109  13.983  0.00  0.00    +0.000 A 
ATOM     19  N   UNL     1       6.765   4.297  14.610  0.00  0.00    +0.000 N 
ATOM     20  C   UNL     1       5.895   3.566  13.828  0.00  0.00    +0.000 A 
ENDBRANCH  13  19
ENDBRANCH   1  13
TORSDOF 2
ENDMDL
MODEL 9
REMARK VINA RESULT:      -6.8      2.378      4.241
REMARK  Name = 
REMARK  3 active torsions:
REMARK  status: ('A' for Active; 'I' for Inactive)
REMARK    1  A    between atoms: C_1  and  C_2
REMARK    2  A    between atoms: N_6  and  C_7
REMARK    3  A    between atoms: C_7  and  C_8
REMARK                            x       y       z     vdW  Elec       q    Type
REMARK                         _______ _______ _______ _____ _____    ______ ____
ROOT
ATOM      1  C   UNL     1       1.999   7.827  19.441  0.00  0.00    +0.000 C 
ATOM      2  O   UNL     1       1.621   8.323  20.512  0.00  0.00    +0.000 OA
ATOM      3  N   UNL     1       2.370   6.463  19.429  0.00  0.00    +0.000 N 
ATOM      4  C   UNL     1       1.905   5.678  20.598  0.00  0.00    +0.000 C 
ATOM      5  C   UNL     1       1.040   4.502  20.164  0.00  0.00    +0.000 C 
ATOM      6  C   UNL     1       1.877   3.595  19.309  0.00  0.00    +0.000 C 
ATOM      7  C   UNL     1       2.450   4.376  18.124  0.00  0.00    +0.000 A 
ATOM      8  C   UNL     1       2.977   3.510  17.148  0.00  0.00    +0.000 A 
ATOM      9  C   UNL     1       4.338   3.557  16.939  0.00  0.00    +0.000 A 
ATOM     10  C   UNL     1       5.067   4.558  17.580  0.00  0.00    +0.000 A 
ATOM     11  C   UNL     1       4.419   5.626  18.268  0.00  0.00    +0.000 A 
ATOM     12  C   UNL     1       3.026   5.634  18.435  0.00  0.00    +0.000 A 
ENDROOT
BRANCH   1  13
ATOM     13  C   UNL     1       1.917   8.753  18.210  0.00  0.00    +0.000 C 
BRANCH  13  19
ATOM     14  C   UNL     1       1.139  13.721  19.114  0.00  0.00    +0.000 C 
ATOM     15  C   UNL     1       0.595  12.350  18.800  0.00  0.00    +0.000 A 
ATOM     16  C   UNL     1      -0.787  12.197  18.620  0.00  0.00    +0.000 A 
ATOM     17  C   UNL     1      -1.275  10.960  18.258  0.00  0.00    +0.000 A 
ATOM     18  C   UNL     1      -0.403   9.876  18.119  0.00  0.00    +0.000 A 
ATOM     19  N   UNL     1       0.925   9.972  18.353  0.00  0.00    +0.000 N 
ATOM     20  C   UNL     1       1.435  11.216  18.663  0.00  0.00    +0.000 A 
ENDBRANCH  13  19
ENDBRANCH   1  13
TORSDOF 2
ENDMDL
