MODEL 1
REMARK VINA RESULT:      -7.6      0.000      0.000
REMARK  Name = 
REMARK  7 active torsions:
REMARK  status: ('A' for Active; 'I' for Inactive)
REMARK    1  A    between atoms: C_1  and  N_2
REMARK    2  A    between atoms: C_11  and  C_12
REMARK    3  A    between atoms: C_12  and  C_13
REMARK    4  A    between atoms: C_13  and  C_14
REMARK    5  A    between atoms: C_14  and  C_15
REMARK    6  A    between atoms: N_17  and  C_18
REMARK    7  A    between atoms: C_18  and  C_19
REMARK                            x       y       z     vdW  Elec       q    Type
REMARK                         _______ _______ _______ _____ _____    ______ ____
ROOT
ATOM      1  C   UNL     1       1.956   3.550  21.643  0.00  0.00    +0.000 C 
ATOM      2  N   UNL     1       2.508   4.401  20.605  0.00  0.00    +0.000 N 
ATOM      3  C   UNL     1       1.927   5.659  20.342  0.00  0.00    +0.000 A 
ATOM      4  O   UNL     1       0.953   6.069  20.971  0.00  0.00    +0.000 OA
ATOM      5  C   UNL     1       2.563   6.425  19.274  0.00  0.00    +0.000 A 
ATOM      6  S   UNL     1       2.021   7.964  18.787  0.00  0.00    +0.000 S 
ATOM      7  C   UNL     1       3.248   8.076  17.593  0.00  0.00    +0.000 A 
ATOM      8  C   UNL     1       4.060   6.958  17.565  0.00  0.00    +0.000 A 
ATOM      9  C   UNL     1       3.652   6.011  18.538  0.00  0.00    +0.000 A 
ATOM     10  N   UNL     1       4.178   4.744  18.857  0.00  0.00    +0.000 N 
ATOM     11  C   UNL     1       5.219   3.994  18.358  0.00  0.00    +0.000 A 
ATOM     12  N   UNL     1       5.269   2.850  19.016  0.00  0.00    +0.000 NA
ATOM     13  N   UNL     1       4.264   2.842  19.957  0.00  0.00    +0.000 NA
ATOM     14  C   UNL     1       3.610   3.977  19.858  0.00  0.00    +0.000 A 
ENDROOT
BRANCH  11  15
ATOM     15  C   UNL     1       6.128   4.429  17.261  0.00  0.00    +0.000 C 
BRANCH  15  16
ATOM     16  C   UNL     1       7.541   4.781  17.748  0.00  0.00    +0.000 C 
BRANCH  16  17
ATOM     17  C   UNL     1       7.555   6.045  18.612  0.00  0.00    +0.000 C 
BRANCH  17  18
ATOM     18  C   UNL     1       7.696   7.305  17.778  0.00  0.00    +0.000 C 
ATOM     19  O   UNL     1       7.277   7.389  16.627  0.00  0.00    +0.000 OA
ATOM     20  N   UNL     1       8.354   8.332  18.412  0.00  0.00    +0.000 N 
ATOM     21  H   UNL     1       8.637   8.227  19.377  0.00  0.00    +0.000 HD
BRANCH  20  22
ATOM     22  C   UNL     1       8.651   9.572  17.730  0.00  0.00    +0.000 C 
BRANCH  22  23
ATOM     23  C   UNL     1       9.003  10.689  18.666  0.00  0.00    +0.000 A 
ATOM     24  C   UNL     1       9.519  10.429  19.940  0.00  0.00    +0.000 A 
ATOM     25  C   UNL     1       9.806  11.483  20.802  0.00  0.00    +0.000 A 
ATOM     26  C   UNL     1       9.577  12.772  20.358  0.00  0.00    +0.000 A 
ATOM     27  N   UNL     1       9.092  13.068  19.132  0.00  0.00    +0.000 NA
ATOM     28  C   UNL     1       8.820  12.022  18.316  0.00  0.00    +0.000 A 
ENDBRANCH  22  23
ENDBRANCH  20  22
ENDBRANCH  17  18
ENDBRANCH  16  17
ENDBRANCH  15  16
ENDBRANCH  11  15
TORSDOF 6
ENDMDL
MODEL 2
REMARK VINA RESULT:      -7.3      3.525      6.142
REMARK  Name = 
REMARK  7 active torsions:
REMARK  status: ('A' for Active; 'I' for Inactive)
REMARK    1  A    between atoms: C_1  and  N_2
REMARK    2  A    between atoms: C_11  and  C_12
REMARK    3  A    between atoms: C_12  and  C_13
REMARK    4  A    between atoms: C_13  and  C_14
REMARK    5  A    between atoms: C_14  and  C_15
REMARK    6  A    between atoms: N_17  and  C_18
REMARK    7  A    between atoms: C_18  and  C_19
REMARK                            x       y       z     vdW  Elec       q    Type
REMARK                         _______ _______ _______ _____ _____    ______ ____
ROOT
ATOM      1  C   UNL     1       2.144  11.312  17.656  0.00  0.00    +0.000 C 
ATOM      2  N   UNL     1       1.641  10.559  18.791  0.00  0.00    +0.000 N 
ATOM      3  C   UNL     1       0.845  11.198  19.764  0.00  0.00    +0.000 A 
ATOM      4  O   UNL     1       0.555  12.391  19.685  0.00  0.00    +0.000 OA
ATOM      5  C   UNL     1       0.400  10.344  20.861  0.00  0.00    +0.000 A 
ATOM      6  S   UNL     1      -0.564  10.909  22.146  0.00  0.00    +0.000 S 
ATOM      7  C   UNL     1      -0.583   9.358  22.882  0.00  0.00    +0.000 A 
ATOM      8  C   UNL     1       0.133   8.424  22.160  0.00  0.00    +0.000 A 
ATOM      9  C   UNL     1       0.699   9.005  20.997  0.00  0.00    +0.000 A 
ATOM     10  N   UNL     1       1.498   8.435  19.987  0.00  0.00    +0.000 N 
ATOM     11  C   UNL     1       2.009   7.174  19.777  0.00  0.00    +0.000 A 
ATOM     12  N   UNL     1       2.721   7.187  18.664  0.00  0.00    +0.000 NA
ATOM     13  N   UNL     1       2.680   8.456  18.133  0.00  0.00    +0.000 NA
ATOM     14  C   UNL     1       1.948   9.203  18.928  0.00  0.00    +0.000 A 
ENDROOT
BRANCH  11  15
ATOM     15  C   UNL     1       1.773   6.004  20.668  0.00  0.00    +0.000 C 
BRANCH  15  16
ATOM     16  C   UNL     1       1.663   4.675  19.909  0.00  0.00    +0.000 C 
BRANCH  16  17
ATOM     17  C   UNL     1       2.575   3.596  20.501  0.00  0.00    +0.000 C 
BRANCH  17  18
ATOM     18  C   UNL     1       3.784   3.327  19.625  0.00  0.00    +0.000 C 
ATOM     19  O   UNL     1       4.752   2.677  20.010  0.00  0.00    +0.000 OA
ATOM     20  N   UNL     1       3.714   3.896  18.374  0.00  0.00    +0.000 N 
ATOM     21  H   UNL     1       2.874   4.382  18.090  0.00  0.00    +0.000 HD
BRANCH  20  22
ATOM     22  C   UNL     1       4.818   3.811  17.445  0.00  0.00    +0.000 C 
BRANCH  22  23
ATOM     23  C   UNL     1       5.703   5.021  17.470  0.00  0.00    +0.000 A 
ATOM     24  C   UNL     1       6.777   5.111  18.362  0.00  0.00    +0.000 A 
ATOM     25  C   UNL     1       7.563   6.259  18.388  0.00  0.00    +0.000 A 
ATOM     26  C   UNL     1       7.257   7.282  17.509  0.00  0.00    +0.000 A 
ATOM     27  N   UNL     1       6.239   7.230  16.623  0.00  0.00    +0.000 NA
ATOM     28  C   UNL     1       5.489   6.102  16.623  0.00  0.00    +0.000 A 
ENDBRANCH  22  23
ENDBRANCH  20  22
ENDBRANCH  17  18
ENDBRANCH  16  17
ENDBRANCH  15  16
ENDBRANCH  11  15
TORSDOF 6
ENDMDL
MODEL 3
REMARK VINA RESULT:      -7.1      3.421      6.493
REMARK  Name = 
REMARK  7 active torsions:
REMARK  status: ('A' for Active; 'I' for Inactive)
REMARK    1  A    between atoms: C_1  and  N_2
REMARK    2  A    between atoms: C_11  and  C_12
REMARK    3  A    between atoms: C_12  and  C_13
REMARK    4  A    between atoms: C_13  and  C_14
REMARK    5  A    between atoms: C_14  and  C_15
REMARK    6  A    between atoms: N_17  and  C_18
REMARK    7  A    between atoms: C_18  and  C_19
REMARK                            x       y       z     vdW  Elec       q    Type
REMARK                         _______ _______ _______ _____ _____    ______ ____
ROOT
ATOM      1  C   UNL     1       7.783   6.455  19.028  0.00  0.00    +0.000 C 
ATOM      2  N   UNL     1       7.039   5.676  18.056  0.00  0.00    +0.000 N 
ATOM      3  C   UNL     1       7.247   5.885  16.677  0.00  0.00    +0.000 A 
ATOM      4  O   UNL     1       8.050   6.717  16.260  0.00  0.00    +0.000 OA
ATOM      5  C   UNL     1       6.440   5.047  15.793  0.00  0.00    +0.000 A 
ATOM      6  S   UNL     1       6.525   5.138  14.095  0.00  0.00    +0.000 S 
ATOM      7  C   UNL     1       5.339   3.910  13.918  0.00  0.00    +0.000 A 
ATOM      8  C   UNL     1       4.885   3.437  15.134  0.00  0.00    +0.000 A 
ATOM      9  C   UNL     1       5.525   4.104  16.209  0.00  0.00    +0.000 A 
ATOM     10  N   UNL     1       5.371   3.951  17.601  0.00  0.00    +0.000 N 
ATOM     11  C   UNL     1       4.575   3.149  18.387  0.00  0.00    +0.000 A 
ATOM     12  N   UNL     1       4.819   3.425  19.655  0.00  0.00    +0.000 NA
ATOM     13  N   UNL     1       5.782   4.407  19.713  0.00  0.00    +0.000 NA
ATOM     14  C   UNL     1       6.110   4.722  18.480  0.00  0.00    +0.000 A 
ENDROOT
BRANCH  11  15
ATOM     15  C   UNL     1       3.611   2.140  17.866  0.00  0.00    +0.000 C 
BRANCH  15  16
ATOM     16  C   UNL     1       2.144   2.520  18.108  0.00  0.00    +0.000 C 
BRANCH  16  17
ATOM     17  C   UNL     1       1.668   2.119  19.507  0.00  0.00    +0.000 C 
BRANCH  17  18
ATOM     18  C   UNL     1       1.663   3.293  20.467  0.00  0.00    +0.000 C 
ATOM     19  O   UNL     1       1.458   3.165  21.671  0.00  0.00    +0.000 OA
ATOM     20  N   UNL     1       1.883   4.512  19.870  0.00  0.00    +0.000 N 
ATOM     21  H   UNL     1       2.094   4.557  18.882  0.00  0.00    +0.000 HD
BRANCH  20  22
ATOM     22  C   UNL     1       1.825   5.743  20.626  0.00  0.00    +0.000 C 
BRANCH  22  23
ATOM     23  C   UNL     1       1.918   6.968  19.765  0.00  0.00    +0.000 A 
ATOM     24  C   UNL     1       2.552   6.929  18.520  0.00  0.00    +0.000 A 
ATOM     25  C   UNL     1       2.655   8.087  17.755  0.00  0.00    +0.000 A 
ATOM     26  C   UNL     1       2.106   9.253  18.258  0.00  0.00    +0.000 A 
ATOM     27  N   UNL     1       1.474   9.331  19.449  0.00  0.00    +0.000 NA
ATOM     28  C   UNL     1       1.392   8.189  20.172  0.00  0.00    +0.000 A 
ENDBRANCH  22  23
ENDBRANCH  20  22
ENDBRANCH  17  18
ENDBRANCH  16  17
ENDBRANCH  15  16
ENDBRANCH  11  15
TORSDOF 6
ENDMDL
MODEL 4
REMARK VINA RESULT:      -7.1      3.496      9.629
REMARK  Name = 
REMARK  7 active torsions:
REMARK  status: ('A' for Active; 'I' for Inactive)
REMARK    1  A    between atoms: C_1  and  N_2
REMARK    2  A    between atoms: C_11  and  C_12
REMARK    3  A    between atoms: C_12  and  C_13
REMARK    4  A    between atoms: C_13  and  C_14
REMARK    5  A    between atoms: C_14  and  C_15
REMARK    6  A    between atoms: N_17  and  C_18
REMARK    7  A    between atoms: C_18  and  C_19
REMARK                            x       y       z     vdW  Elec       q    Type
REMARK                         _______ _______ _______ _____ _____    ______ ____
ROOT
ATOM      1  C   UNL     1      12.080  15.449  17.329  0.00  0.00    +0.000 C 
ATOM      2  N   UNL     1      11.236  14.802  18.317  0.00  0.00    +0.000 N 
ATOM      3  C   UNL     1      10.764  15.532  19.427  0.00  0.00    +0.000 A 
ATOM      4  O   UNL     1      11.045  16.717  19.593  0.00  0.00    +0.000 OA
ATOM      5  C   UNL     1       9.927  14.777  20.356  0.00  0.00    +0.000 A 
ATOM      6  S   UNL     1       9.257  15.457  21.765  0.00  0.00    +0.000 S 
ATOM      7  C   UNL     1       8.505  13.973  22.188  0.00  0.00    +0.000 A 
ATOM      8  C   UNL     1       8.760  12.974  21.269  0.00  0.00    +0.000 A 
ATOM      9  C   UNL     1       9.585  13.448  20.218  0.00  0.00    +0.000 A 
ATOM     10  N   UNL     1      10.093  12.785  19.084  0.00  0.00    +0.000 N 
ATOM     11  C   UNL     1       9.992  11.495  18.613  0.00  0.00    +0.000 A 
ATOM     12  N   UNL     1      10.690  11.399  17.495  0.00  0.00    +0.000 NA
ATOM     13  N   UNL     1      11.250  12.626  17.221  0.00  0.00    +0.000 NA
ATOM     14  C   UNL     1      10.893  13.455  18.176  0.00  0.00    +0.000 A 
ENDROOT
BRANCH  11  15
ATOM     15  C   UNL     1       9.211  10.411  19.270  0.00  0.00    +0.000 C 
BRANCH  15  16
ATOM     16  C   UNL     1       8.459   9.516  18.276  0.00  0.00    +0.000 C 
BRANCH  16  17
ATOM     17  C   UNL     1       8.546   8.034  18.654  0.00  0.00    +0.000 C 
BRANCH  17  18
ATOM     18  C   UNL     1       7.700   7.163  17.745  0.00  0.00    +0.000 C 
ATOM     19  O   UNL     1       7.147   7.595  16.738  0.00  0.00    +0.000 OA
ATOM     20  N   UNL     1       7.586   5.857  18.160  0.00  0.00    +0.000 N 
ATOM     21  H   UNL     1       8.101   5.540  18.970  0.00  0.00    +0.000 HD
BRANCH  20  22
ATOM     22  C   UNL     1       6.746   4.913  17.457  0.00  0.00    +0.000 C 
BRANCH  22  23
ATOM     23  C   UNL     1       5.321   4.931  17.924  0.00  0.00    +0.000 A 
ATOM     24  C   UNL     1       4.997   5.270  19.242  0.00  0.00    +0.000 A 
ATOM     25  C   UNL     1       3.670   5.246  19.659  0.00  0.00    +0.000 A 
ATOM     26  C   UNL     1       2.701   4.892  18.738  0.00  0.00    +0.000 A 
ATOM     27  N   UNL     1       2.969   4.571  17.453  0.00  0.00    +0.000 NA
ATOM     28  C   UNL     1       4.269   4.600  17.077  0.00  0.00    +0.000 A 
ENDBRANCH  22  23
ENDBRANCH  20  22
ENDBRANCH  17  18
ENDBRANCH  16  17
ENDBRANCH  15  16
ENDBRANCH  11  15
TORSDOF 6
ENDMDL
MODEL 5
REMARK VINA RESULT:      -7.0      5.029      8.298
REMARK  Name = 
REMARK  7 active torsions:
REMARK  status: ('A' for Active; 'I' for Inactive)
REMARK    1  A    between atoms: C_1  and  N_2
REMARK    2  A    between atoms: C_11  and  C_12
REMARK    3  A    between atoms: C_12  and  C_13
REMARK    4  A    between atoms: C_13  and  C_14
REMARK    5  A    between atoms: C_14  and  C_15
REMARK    6  A    between atoms: N_17  and  C_18
REMARK    7  A    between atoms: C_18  and  C_19
REMARK                            x       y       z     vdW  Elec       q    Type
REMARK                         _______ _______ _______ _____ _____    ______ ____
ROOT
ATOM      1  C   UNL     1       5.467   3.545  16.139  0.00  0.00    +0.000 C 
ATOM      2  N   UNL     1       4.434   3.903  17.093  0.00  0.00    +0.000 N 
ATOM      3  C   UNL     1       3.738   2.894  17.791  0.00  0.00    +0.000 A 
ATOM      4  O   UNL     1       3.980   1.701  17.618  0.00  0.00    +0.000 OA
ATOM      5  C   UNL     1       2.719   3.371  18.721  0.00  0.00    +0.000 A 
ATOM      6  S   UNL     1       1.757   2.327  19.660  0.00  0.00    +0.000 S 
ATOM      7  C   UNL     1       0.926   3.649  20.374  0.00  0.00    +0.000 A 
ATOM      8  C   UNL     1       1.376   4.868  19.905  0.00  0.00    +0.000 A 
ATOM      9  C   UNL     1       2.408   4.695  18.949  0.00  0.00    +0.000 A 
ATOM     10  N   UNL     1       3.144   5.647  18.216  0.00  0.00    +0.000 N 
ATOM     11  C   UNL     1       3.123   7.022  18.153  0.00  0.00    +0.000 A 
ATOM     12  N   UNL     1       4.025   7.418  17.274  0.00  0.00    +0.000 NA
ATOM     13  N   UNL     1       4.650   6.306  16.756  0.00  0.00    +0.000 NA
ATOM     14  C   UNL     1       4.118   5.245  17.320  0.00  0.00    +0.000 A 
ENDROOT
BRANCH  11  15
ATOM     15  C   UNL     1       2.226   7.894  18.961  0.00  0.00    +0.000 C 
BRANCH  15  16
ATOM     16  C   UNL     1       1.537   8.988  18.134  0.00  0.00    +0.000 C 
BRANCH  16  17
ATOM     17  C   UNL     1       1.484  10.326  18.879  0.00  0.00    +0.000 C 
BRANCH  17  18
ATOM     18  C   UNL     1       0.088  10.643  19.383  0.00  0.00    +0.000 C 
ATOM     19  O   UNL     1      -0.570   9.854  20.054  0.00  0.00    +0.000 OA
ATOM     20  N   UNL     1      -0.383  11.877  19.001  0.00  0.00    +0.000 N 
ATOM     21  H   UNL     1       0.218  12.508  18.489  0.00  0.00    +0.000 HD
BRANCH  20  22
ATOM     22  C   UNL     1      -1.727  12.303  19.323  0.00  0.00    +0.000 C 
BRANCH  22  23
ATOM     23  C   UNL     1      -2.748  11.827  18.334  0.00  0.00    +0.000 A 
ATOM     24  C   UNL     1      -2.379  11.450  17.039  0.00  0.00    +0.000 A 
ATOM     25  C   UNL     1      -3.350  11.043  16.129  0.00  0.00    +0.000 A 
ATOM     26  C   UNL     1      -4.668  11.015  16.549  0.00  0.00    +0.000 A 
ATOM     27  N   UNL     1      -5.066  11.357  17.794  0.00  0.00    +0.000 NA
ATOM     28  C   UNL     1      -4.099  11.751  18.655  0.00  0.00    +0.000 A 
ENDBRANCH  22  23
ENDBRANCH  20  22
ENDBRANCH  17  18
ENDBRANCH  16  17
ENDBRANCH  15  16
ENDBRANCH  11  15
TORSDOF 6
ENDMDL
MODEL 6
REMARK VINA RESULT:      -7.0      3.969      6.370
REMARK  Name = 
REMARK  7 active torsions:
REMARK  status: ('A' for Active; 'I' for Inactive)
REMARK    1  A    between atoms: C_1  and  N_2
REMARK    2  A    between atoms: C_11  and  C_12
REMARK    3  A    between atoms: C_12  and  C_13
REMARK    4  A    between atoms: C_13  and  C_14
REMARK    5  A    between atoms: C_14  and  C_15
REMARK    6  A    between atoms: N_17  and  C_18
REMARK    7  A    between atoms: C_18  and  C_19
REMARK                            x       y       z     vdW  Elec       q    Type
REMARK                         _______ _______ _______ _____ _____    ______ ____
ROOT
ATOM      1  C   UNL     1      -0.905  11.814  17.763  0.00  0.00    +0.000 C 
ATOM      2  N   UNL     1      -0.465  11.054  18.918  0.00  0.00    +0.000 N 
ATOM      3  C   UNL     1      -0.944  11.382  20.203  0.00  0.00    +0.000 A 
ATOM      4  O   UNL     1      -1.735  12.305  20.384  0.00  0.00    +0.000 OA
ATOM      5  C   UNL     1      -0.429  10.552  21.288  0.00  0.00    +0.000 A 
ATOM      6  S   UNL     1      -0.868  10.777  22.918  0.00  0.00    +0.000 S 
ATOM      7  C   UNL     1       0.130   9.475  23.421  0.00  0.00    +0.000 A 
ATOM      8  C   UNL     1       0.788   8.877  22.364  0.00  0.00    +0.000 A 
ATOM      9  C   UNL     1       0.461   9.509  21.139  0.00  0.00    +0.000 A 
ATOM     10  N   UNL     1       0.895   9.240  19.826  0.00  0.00    +0.000 N 
ATOM     11  C   UNL     1       1.763   8.320  19.282  0.00  0.00    +0.000 A 
ATOM     12  N   UNL     1       1.825   8.518  17.978  0.00  0.00    +0.000 NA
ATOM     13  N   UNL     1       0.994   9.567  17.654  0.00  0.00    +0.000 NA
ATOM     14  C   UNL     1       0.439   9.999  18.764  0.00  0.00    +0.000 A 
ENDROOT
BRANCH  11  15
ATOM     15  C   UNL     1       2.491   7.279  20.059  0.00  0.00    +0.000 C 
BRANCH  15  16
ATOM     16  C   UNL     1       1.688   5.983  20.239  0.00  0.00    +0.000 C 
BRANCH  16  17
ATOM     17  C   UNL     1       1.737   5.097  18.990  0.00  0.00    +0.000 C 
BRANCH  17  18
ATOM     18  C   UNL     1       3.114   4.501  18.767  0.00  0.00    +0.000 C 
ATOM     19  O   UNL     1       3.688   3.821  19.612  0.00  0.00    +0.000 OA
ATOM     20  N   UNL     1       3.672   4.809  17.548  0.00  0.00    +0.000 N 
ATOM     21  H   UNL     1       3.137   5.333  16.869  0.00  0.00    +0.000 HD
BRANCH  20  22
ATOM     22  C   UNL     1       5.014   4.394  17.208  0.00  0.00    +0.000 C 
BRANCH  22  23
ATOM     23  C   UNL     1       6.050   5.432  17.524  0.00  0.00    +0.000 A 
ATOM     24  C   UNL     1       6.967   5.243  18.563  0.00  0.00    +0.000 A 
ATOM     25  C   UNL     1       7.897   6.235  18.858  0.00  0.00    +0.000 A 
ATOM     26  C   UNL     1       7.887   7.388  18.094  0.00  0.00    +0.000 A 
ATOM     27  N   UNL     1       7.028   7.605  17.074  0.00  0.00    +0.000 NA
ATOM     28  C   UNL     1       6.134   6.623  16.813  0.00  0.00    +0.000 A 
ENDBRANCH  22  23
ENDBRANCH  20  22
ENDBRANCH  17  18
ENDBRANCH  16  17
ENDBRANCH  15  16
ENDBRANCH  11  15
TORSDOF 6
ENDMDL
MODEL 7
REMARK VINA RESULT:      -6.9      5.693      8.843
REMARK  Name = 
REMARK  7 active torsions:
REMARK  status: ('A' for Active; 'I' for Inactive)
REMARK    1  A    between atoms: C_1  and  N_2
REMARK    2  A    between atoms: C_11  and  C_12
REMARK    3  A    between atoms: C_12  and  C_13
REMARK    4  A    between atoms: C_13  and  C_14
REMARK    5  A    between atoms: C_14  and  C_15
REMARK    6  A    between atoms: N_17  and  C_18
REMARK    7  A    between atoms: C_18  and  C_19
REMARK                            x       y       z     vdW  Elec       q    Type
REMARK                         _______ _______ _______ _____ _____    ______ ____
ROOT
ATOM      1  C   UNL     1       5.400   6.309  16.148  0.00  0.00    +0.000 C 
ATOM      2  N   UNL     1       4.677   5.767  17.283  0.00  0.00    +0.000 N 
ATOM      3  C   UNL     1       4.901   4.436  17.693  0.00  0.00    +0.000 A 
ATOM      4  O   UNL     1       5.701   3.705  17.113  0.00  0.00    +0.000 OA
ATOM      5  C   UNL     1       4.114   4.000  18.843  0.00  0.00    +0.000 A 
ATOM      6  S   UNL     1       4.220   2.433  19.500  0.00  0.00    +0.000 S 
ATOM      7  C   UNL     1       3.049   2.799  20.699  0.00  0.00    +0.000 A 
ATOM      8  C   UNL     1       2.583   4.096  20.602  0.00  0.00    +0.000 A 
ATOM      9  C   UNL     1       3.203   4.778  19.524  0.00  0.00    +0.000 A 
ATOM     10  N   UNL     1       3.032   6.096  19.058  0.00  0.00    +0.000 N 
ATOM     11  C   UNL     1       2.232   7.147  19.449  0.00  0.00    +0.000 A 
ATOM     12  N   UNL     1       2.457   8.170  18.645  0.00  0.00    +0.000 NA
ATOM     13  N   UNL     1       3.409   7.801  17.722  0.00  0.00    +0.000 NA
ATOM     14  C   UNL     1       3.751   6.557  17.971  0.00  0.00    +0.000 A 
ENDROOT
BRANCH  11  15
ATOM     15  C   UNL     1       1.286   7.110  20.599  0.00  0.00    +0.000 C 
BRANCH  15  16
ATOM     16  C   UNL     1       1.179   8.450  21.340  0.00  0.00    +0.000 C 
BRANCH  16  17
ATOM     17  C   UNL     1      -0.219   8.675  21.925  0.00  0.00    +0.000 C 
BRANCH  17  18
ATOM     18  C   UNL     1      -0.385  10.076  22.483  0.00  0.00    +0.000 C 
ATOM     19  O   UNL     1      -0.091  10.369  23.638  0.00  0.00    +0.000 OA
ATOM     20  N   UNL     1      -0.917  10.979  21.593  0.00  0.00    +0.000 N 
ATOM     21  H   UNL     1      -1.097  10.698  20.638  0.00  0.00    +0.000 HD
BRANCH  20  22
ATOM     22  C   UNL     1      -1.222  12.336  21.988  0.00  0.00    +0.000 C 
BRANCH  22  23
ATOM     23  C   UNL     1      -2.652  12.523  22.399  0.00  0.00    +0.000 A 
ATOM     24  C   UNL     1      -3.657  12.717  21.446  0.00  0.00    +0.000 A 
ATOM     25  C   UNL     1      -4.972  12.921  21.855  0.00  0.00    +0.000 A 
ATOM     26  C   UNL     1      -5.244  12.914  23.211  0.00  0.00    +0.000 A 
ATOM     27  N   UNL     1      -4.305  12.717  24.162  0.00  0.00    +0.000 NA
ATOM     28  C   UNL     1      -3.035  12.524  23.735  0.00  0.00    +0.000 A 
ENDBRANCH  22  23
ENDBRANCH  20  22
ENDBRANCH  17  18
ENDBRANCH  16  17
ENDBRANCH  15  16
ENDBRANCH  11  15
TORSDOF 6
ENDMDL
MODEL 8
REMARK VINA RESULT:      -6.9      5.061      7.666
REMARK  Name = 
REMARK  7 active torsions:
REMARK  status: ('A' for Active; 'I' for Inactive)
REMARK    1  A    between atoms: C_1  and  N_2
REMARK    2  A    between atoms: C_11  and  C_12
REMARK    3  A    between atoms: C_12  and  C_13
REMARK    4  A    between atoms: C_13  and  C_14
REMARK    5  A    between atoms: C_14  and  C_15
REMARK    6  A    between atoms: N_17  and  C_18
REMARK    7  A    between atoms: C_18  and  C_19
REMARK                            x       y       z     vdW  Elec       q    Type
REMARK                         _______ _______ _______ _____ _____    ______ ____
ROOT
ATOM      1  C   UNL     1       2.679   2.731  21.009  0.00  0.00    +0.000 C 
ATOM      2  N   UNL     1       3.090   3.660  19.973  0.00  0.00    +0.000 N 
ATOM      3  C   UNL     1       3.981   3.242  18.963  0.00  0.00    +0.000 A 
ATOM      4  O   UNL     1       4.431   2.098  18.926  0.00  0.00    +0.000 OA
ATOM      5  C   UNL     1       4.327   4.264  17.978  0.00  0.00    +0.000 A 
ATOM      6  S   UNL     1       5.389   3.978  16.679  0.00  0.00    +0.000 S 
ATOM      7  C   UNL     1       5.213   5.589  16.112  0.00  0.00    +0.000 A 
ATOM      8  C   UNL     1       4.357   6.333  16.900  0.00  0.00    +0.000 A 
ATOM      9  C   UNL     1       3.854   5.559  17.976  0.00  0.00    +0.000 A 
ATOM     10  N   UNL     1       2.969   5.904  19.016  0.00  0.00    +0.000 N 
ATOM     11  C   UNL     1       2.310   7.064  19.358  0.00  0.00    +0.000 A 
ATOM     12  N   UNL     1       1.607   6.842  20.454  0.00  0.00    +0.000 NA
ATOM     13  N   UNL     1       1.794   5.534  20.837  0.00  0.00    +0.000 NA
ATOM     14  C   UNL     1       2.612   4.973  19.975  0.00  0.00    +0.000 A 
ENDROOT
BRANCH  11  15
ATOM     15  C   UNL     1       2.390   8.340  18.595  0.00  0.00    +0.000 C 
BRANCH  15  16
ATOM     16  C   UNL     1       1.310   9.355  18.995  0.00  0.00    +0.000 C 
BRANCH  16  17
ATOM     17  C   UNL     1       0.346   9.655  17.843  0.00  0.00    +0.000 C 
BRANCH  17  18
ATOM     18  C   UNL     1      -0.883  10.411  18.309  0.00  0.00    +0.000 C 
ATOM     19  O   UNL     1      -2.025   9.992  18.139  0.00  0.00    +0.000 OA
ATOM     20  N   UNL     1      -0.610  11.616  18.915  0.00  0.00    +0.000 N 
ATOM     21  H   UNL     1       0.350  11.892  19.073  0.00  0.00    +0.000 HD
BRANCH  20  22
ATOM     22  C   UNL     1      -1.669  12.503  19.340  0.00  0.00    +0.000 C 
BRANCH  22  23
ATOM     23  C   UNL     1      -2.020  12.350  20.790  0.00  0.00    +0.000 A 
ATOM     24  C   UNL     1      -1.155  11.699  21.677  0.00  0.00    +0.000 A 
ATOM     25  C   UNL     1      -1.519  11.540  23.010  0.00  0.00    +0.000 A 
ATOM     26  C   UNL     1      -2.738  12.049  23.421  0.00  0.00    +0.000 A 
ATOM     27  N   UNL     1      -3.595  12.695  22.601  0.00  0.00    +0.000 NA
ATOM     28  C   UNL     1      -3.216  12.832  21.309  0.00  0.00    +0.000 A 
ENDBRANCH  22  23
ENDBRANCH  20  22
ENDBRANCH  17  18
ENDBRANCH  16  17
ENDBRANCH  15  16
ENDBRANCH  11  15
TORSDOF 6
ENDMDL
MODEL 9
REMARK VINA RESULT:      -6.9      4.743      7.014
REMARK  Name = 
REMARK  7 active torsions:
REMARK  status: ('A' for Active; 'I' for Inactive)
REMARK    1  A    between atoms: C_1  and  N_2
REMARK    2  A    between atoms: C_11  and  C_12
REMARK    3  A    between atoms: C_12  and  C_13
REMARK    4  A    between atoms: C_13  and  C_14
REMARK    5  A    between atoms: C_14  and  C_15
REMARK    6  A    between atoms: N_17  and  C_18
REMARK    7  A    between atoms: C_18  and  C_19
REMARK                            x       y       z     vdW  Elec       q    Type
REMARK                         _______ _______ _______ _____ _____    ______ ____
ROOT
ATOM      1  C   UNL     1       4.839   6.348  16.372  0.00  0.00    +0.000 C 
ATOM      2  N   UNL     1       4.132   5.935  17.570  0.00  0.00    +0.000 N 
ATOM      3  C   UNL     1       4.279   4.619  18.057  0.00  0.00    +0.000 A 
ATOM      4  O   UNL     1       4.997   3.795  17.494  0.00  0.00    +0.000 OA
ATOM      5  C   UNL     1       3.518   4.316  19.265  0.00  0.00    +0.000 A 
ATOM      6  S   UNL     1       3.543   2.789  20.019  0.00  0.00    +0.000 S 
ATOM      7  C   UNL     1       2.458   3.317  21.240  0.00  0.00    +0.000 A 
ATOM      8  C   UNL     1       2.082   4.636  21.077  0.00  0.00    +0.000 A 
ATOM      9  C   UNL     1       2.698   5.201  19.932  0.00  0.00    +0.000 A 
ATOM     10  N   UNL     1       2.600   6.496  19.387  0.00  0.00    +0.000 N 
ATOM     11  C   UNL     1       1.898   7.626  19.741  0.00  0.00    +0.000 A 
ATOM     12  N   UNL     1       2.157   8.577  18.862  0.00  0.00    +0.000 NA
ATOM     13  N   UNL     1       3.036   8.081  17.927  0.00  0.00    +0.000 NA
ATOM     14  C   UNL     1       3.299   6.833  18.242  0.00  0.00    +0.000 A 
ENDROOT
BRANCH  11  15
ATOM     15  C   UNL     1       1.006   7.732  20.930  0.00  0.00    +0.000 C 
BRANCH  15  16
ATOM     16  C   UNL     1       1.330   8.936  21.826  0.00  0.00    +0.000 C 
BRANCH  16  17
ATOM     17  C   UNL     1       0.161   9.921  21.912  0.00  0.00    +0.000 C 
BRANCH  17  18
ATOM     18  C   UNL     1      -0.011  10.717  20.632  0.00  0.00    +0.000 C 
ATOM     19  O   UNL     1      -1.077  10.778  20.026  0.00  0.00    +0.000 OA
ATOM     20  N   UNL     1       1.135  11.341  20.196  0.00  0.00    +0.000 N 
ATOM     21  H   UNL     1       1.975  11.297  20.758  0.00  0.00    +0.000 HD
BRANCH  20  22
ATOM     22  C   UNL     1       1.169  12.068  18.947  0.00  0.00    +0.000 C 
BRANCH  22  23
ATOM     23  C   UNL     1       1.016  13.549  19.124  0.00  0.00    +0.000 A 
ATOM     24  C   UNL     1      -0.147  14.209  18.712  0.00  0.00    +0.000 A 
ATOM     25  C   UNL     1      -0.251  15.589  18.857  0.00  0.00    +0.000 A 
ATOM     26  C   UNL     1       0.812  16.270  19.422  0.00  0.00    +0.000 A 
ATOM     27  N   UNL     1       1.946  15.670  19.845  0.00  0.00    +0.000 NA
ATOM     28  C   UNL     1       2.020  14.327  19.689  0.00  0.00    +0.000 A 
ENDBRANCH  22  23
ENDBRANCH  20  22
ENDBRANCH  17  18
ENDBRANCH  16  17
ENDBRANCH  15  16
ENDBRANCH  11  15
TORSDOF 6
ENDMDL
