MODEL 1
REMARK VINA RESULT:      -7.4      0.000      0.000
REMARK  Name = 
REMARK  6 active torsions:
REMARK  status: ('A' for Active; 'I' for Inactive)
REMARK    1  A    between atoms: N_1  and  C_2
REMARK    2  A    between atoms: C_2  and  C_3
REMARK    3  A    between atoms: C_6  and  N_7
REMARK    4  A    between atoms: C_8  and  C_10
REMARK    5  A    between atoms: C_11  and  C_12
REMARK    6  A    between atoms: N_14  and  C_15
REMARK                            x       y       z     vdW  Elec       q    Type
REMARK                         _______ _______ _______ _____ _____    ______ ____
ROOT
ATOM      1  C   UNL     1       1.012  10.422  19.251  0.00  0.00    +0.000 C 
ATOM      2  C   UNL     1       0.834  11.817  18.520  0.00  0.00    +0.000 C 
ATOM      3  C   UNL     1      -0.662  12.145  18.765  0.00  0.00    +0.000 C 
ATOM      4  C   UNL     1      -0.894  12.298  20.267  0.00  0.00    +0.000 C 
ATOM      5  C   UNL     1      -0.781  11.069  20.812  0.00  0.00    +0.000 C 
ATOM      6  C   UNL     1      -0.458  10.091  19.676  0.00  0.00    +0.000 C 
ATOM      7  C   UNL     1      -1.238  10.762  18.564  0.00  0.00    +0.000 C 
ATOM      8  C   UNL     1      -2.705  10.540  18.290  0.00  0.00    +0.000 C 
ATOM      9  C   UNL     1      -1.666  10.104  17.280  0.00  0.00    +0.000 C 
ENDROOT
BRANCH   1  11
ATOM     10  N   UNL     1       1.786   8.134  18.846  0.00  0.00    +0.000 N 
ATOM     11  C   UNL     1       1.653   9.411  18.325  0.00  0.00    +0.000 C 
ATOM     12  O   UNL     1       2.032   9.704  17.200  0.00  0.00    +0.000 OA
ATOM     13  H   UNL     1       1.294   7.911  19.707  0.00  0.00    +0.000 HD
BRANCH  10  17
ATOM     14  C   UNL     1       4.443   4.914  17.509  0.00  0.00    +0.000 C 
ATOM     15  C   UNL     1       4.611   6.355  16.988  0.00  0.00    +0.000 C 
ATOM     16  C   UNL     1       3.987   7.391  17.929  0.00  0.00    +0.000 C 
ATOM     17  C   UNL     1       2.495   7.090  18.114  0.00  0.00    +0.000 C 
ATOM     18  C   UNL     1       2.335   5.696  18.735  0.00  0.00    +0.000 C 
ATOM     19  C   UNL     1       2.963   4.625  17.831  0.00  0.00    +0.000 C 
BRANCH  14  20
ATOM     20  C   UNL     1       5.045   3.929  16.483  0.00  0.00    +0.000 C 
BRANCH  20  21
ATOM     21  N   UNL     1       6.504   3.883  16.515  0.00  0.00    +0.000 NA
ATOM     22  H   UNL     1       6.857   3.777  15.565  0.00  0.00    +0.000 HD
ATOM     23  H   UNL     1       6.809   3.049  17.017  0.00  0.00    +0.000 HD
ENDBRANCH  20  21
ENDBRANCH  14  20
ENDBRANCH  10  17
ENDBRANCH   1  11
BRANCH   2  24
ATOM     24  C   UNL     1       1.901  12.774  19.007  0.00  0.00    +0.000 C 
ATOM     25  O   UNL     1       2.279  12.680  20.178  0.00  0.00    +0.000 OA
ATOM     26  N   UNL     1       2.448  13.619  18.059  0.00  0.00    +0.000 N 
ATOM     27  H   UNL     1       1.953  13.739  17.187  0.00  0.00    +0.000 HD
BRANCH  26  28
ATOM     28  C   UNL     1       3.497  14.538  18.308  0.00  0.00    +0.000 A 
ATOM     29  C   UNL     1       4.824  14.287  17.938  0.00  0.00    +0.000 A 
ATOM     30  C   UNL     1       5.843  15.174  18.277  0.00  0.00    +0.000 A 
ATOM     31  C   UNL     1       5.538  16.333  18.979  0.00  0.00    +0.000 A 
ATOM     32 BR   UNL     1       6.929  17.504  19.489  0.00  0.00    +0.000 Br
ATOM     33  C   UNL     1       4.218  16.626  19.312  0.00  0.00    +0.000 A 
ATOM     34  C   UNL     1       3.195  15.733  18.967  0.00  0.00    +0.000 A 
ENDBRANCH  26  28
ENDBRANCH   2  24
TORSDOF 6
ENDMDL
MODEL 2
REMARK VINA RESULT:      -7.4      3.586      6.551
REMARK  Name = 
REMARK  6 active torsions:
REMARK  status: ('A' for Active; 'I' for Inactive)
REMARK    1  A    between atoms: N_1  and  C_2
REMARK    2  A    between atoms: C_2  and  C_3
REMARK    3  A    between atoms: C_6  and  N_7
REMARK    4  A    between atoms: C_8  and  C_10
REMARK    5  A    between atoms: C_11  and  C_12
REMARK    6  A    between atoms: N_14  and  C_15
REMARK                            x       y       z     vdW  Elec       q    Type
REMARK                         _______ _______ _______ _____ _____    ______ ____
ROOT
ATOM      1  C   UNL     1       3.577   4.570  19.853  0.00  0.00    +0.000 C 
ATOM      2  C   UNL     1       2.293   5.164  19.138  0.00  0.00    +0.000 C 
ATOM      3  C   UNL     1       1.224   4.068  19.385  0.00  0.00    +0.000 C 
ATOM      4  C   UNL     1       0.986   3.941  20.888  0.00  0.00    +0.000 C 
ATOM      5  C   UNL     1       2.093   3.381  21.419  0.00  0.00    +0.000 C 
ATOM      6  C   UNL     1       3.082   3.145  20.272  0.00  0.00    +0.000 C 
ATOM      7  C   UNL     1       2.090   2.847  19.166  0.00  0.00    +0.000 C 
ATOM      8  C   UNL     1       1.498   1.488  18.887  0.00  0.00    +0.000 C 
ATOM      9  C   UNL     1       2.408   2.146  17.874  0.00  0.00    +0.000 C 
ENDROOT
BRANCH   1  11
ATOM     10  N   UNL     1       4.467   4.840  17.587  0.00  0.00    +0.000 N 
ATOM     11  C   UNL     1       4.765   4.585  18.916  0.00  0.00    +0.000 C 
ATOM     12  O   UNL     1       5.906   4.379  19.304  0.00  0.00    +0.000 OA
ATOM     13  H   UNL     1       3.536   5.179  17.358  0.00  0.00    +0.000 HD
BRANCH  10  17
ATOM     14  C   UNL     1       6.962   5.285  14.010  0.00  0.00    +0.000 C 
ATOM     15  C   UNL     1       6.127   4.012  14.247  0.00  0.00    +0.000 C 
ATOM     16  C   UNL     1       4.960   4.251  15.211  0.00  0.00    +0.000 C 
ATOM     17  C   UNL     1       5.494   4.763  16.554  0.00  0.00    +0.000 C 
ATOM     18  C   UNL     1       6.231   6.090  16.329  0.00  0.00    +0.000 C 
ATOM     19  C   UNL     1       7.403   5.900  15.354  0.00  0.00    +0.000 C 
BRANCH  14  20
ATOM     20  C   UNL     1       8.147   4.950  13.077  0.00  0.00    +0.000 C 
BRANCH  20  21
ATOM     21  N   UNL     1       9.157   6.003  13.027  0.00  0.00    +0.000 NA
ATOM     22  H   UNL     1      10.033   5.610  12.685  0.00  0.00    +0.000 HD
ATOM     23  H   UNL     1       9.354   6.334  13.971  0.00  0.00    +0.000 HD
ENDBRANCH  20  21
ENDBRANCH  14  20
ENDBRANCH  10  17
ENDBRANCH   1  11
BRANCH   2  24
ATOM     24  C   UNL     1       2.052   6.573  19.638  0.00  0.00    +0.000 C 
ATOM     25  O   UNL     1       2.177   6.793  20.846  0.00  0.00    +0.000 OA
ATOM     26  N   UNL     1       1.809   7.534  18.675  0.00  0.00    +0.000 N 
ATOM     27  H   UNL     1       1.554   7.224  17.748  0.00  0.00    +0.000 HD
BRANCH  26  28
ATOM     28  C   UNL     1       1.622   8.913  18.941  0.00  0.00    +0.000 A 
ATOM     29  C   UNL     1       0.908   9.377  20.053  0.00  0.00    +0.000 A 
ATOM     30  C   UNL     1       0.671  10.738  20.235  0.00  0.00    +0.000 A 
ATOM     31  C   UNL     1       1.162  11.650  19.310  0.00  0.00    +0.000 A 
ATOM     32 BR   UNL     1       0.787  13.488  19.528  0.00  0.00    +0.000 Br
ATOM     33  C   UNL     1       1.919  11.212  18.226  0.00  0.00    +0.000 A 
ATOM     34  C   UNL     1       2.158   9.843  18.047  0.00  0.00    +0.000 A 
ENDBRANCH  26  28
ENDBRANCH   2  24
TORSDOF 6
ENDMDL
MODEL 3
REMARK VINA RESULT:      -7.4      1.007      1.383
REMARK  Name = 
REMARK  6 active torsions:
REMARK  status: ('A' for Active; 'I' for Inactive)
REMARK    1  A    between atoms: N_1  and  C_2
REMARK    2  A    between atoms: C_2  and  C_3
REMARK    3  A    between atoms: C_6  and  N_7
REMARK    4  A    between atoms: C_8  and  C_10
REMARK    5  A    between atoms: C_11  and  C_12
REMARK    6  A    between atoms: N_14  and  C_15
REMARK                            x       y       z     vdW  Elec       q    Type
REMARK                         _______ _______ _______ _____ _____    ______ ____
ROOT
ATOM      1  C   UNL     1       0.754  10.561  19.699  0.00  0.00    +0.000 C 
ATOM      2  C   UNL     1       0.833  11.772  18.680  0.00  0.00    +0.000 C 
ATOM      3  C   UNL     1      -0.654  12.181  18.516  0.00  0.00    +0.000 C 
ATOM      4  C   UNL     1      -1.187  12.655  19.867  0.00  0.00    +0.000 C 
ATOM      5  C   UNL     1      -1.278  11.568  20.660  0.00  0.00    +0.000 C 
ATOM      6  C   UNL     1      -0.793  10.364  19.846  0.00  0.00    +0.000 C 
ATOM      7  C   UNL     1      -1.270  10.801  18.476  0.00  0.00    +0.000 C 
ATOM      8  C   UNL     1      -2.658  10.561  17.935  0.00  0.00    +0.000 C 
ATOM      9  C   UNL     1      -1.462   9.896  17.289  0.00  0.00    +0.000 C 
ENDROOT
BRANCH   1  11
ATOM     10  N   UNL     1       1.521   8.254  19.994  0.00  0.00    +0.000 N 
ATOM     11  C   UNL     1       1.503   9.360  19.161  0.00  0.00    +0.000 C 
ATOM     12  O   UNL     1       2.058   9.371  18.072  0.00  0.00    +0.000 OA
ATOM     13  H   UNL     1       0.897   8.244  20.797  0.00  0.00    +0.000 HD
BRANCH  10  17
ATOM     14  C   UNL     1       2.983   4.321  18.723  0.00  0.00    +0.000 C 
ATOM     15  C   UNL     1       2.904   4.699  20.215  0.00  0.00    +0.000 C 
ATOM     16  C   UNL     1       1.909   5.834  20.477  0.00  0.00    +0.000 C 
ATOM     17  C   UNL     1       2.307   7.070  19.662  0.00  0.00    +0.000 C 
ATOM     18  C   UNL     1       2.277   6.720  18.169  0.00  0.00    +0.000 C 
ATOM     19  C   UNL     1       3.250   5.572  17.862  0.00  0.00    +0.000 C 
BRANCH  14  20
ATOM     20  C   UNL     1       4.042   3.214  18.534  0.00  0.00    +0.000 C 
BRANCH  20  21
ATOM     21  N   UNL     1       5.358   3.579  19.051  0.00  0.00    +0.000 NA
ATOM     22  H   UNL     1       5.354   3.494  20.067  0.00  0.00    +0.000 HD
ATOM     23  H   UNL     1       5.540   4.564  18.857  0.00  0.00    +0.000 HD
ENDBRANCH  20  21
ENDBRANCH  14  20
ENDBRANCH  10  17
ENDBRANCH   1  11
BRANCH   2  24
ATOM     24  C   UNL     1       1.838  12.785  19.187  0.00  0.00    +0.000 C 
ATOM     25  O   UNL     1       2.194  12.713  20.367  0.00  0.00    +0.000 OA
ATOM     26  N   UNL     1       2.360  13.655  18.249  0.00  0.00    +0.000 N 
ATOM     27  H   UNL     1       1.879  13.747  17.366  0.00  0.00    +0.000 HD
BRANCH  26  28
ATOM     28  C   UNL     1       3.354  14.628  18.519  0.00  0.00    +0.000 A 
ATOM     29  C   UNL     1       4.688  14.475  18.120  0.00  0.00    +0.000 A 
ATOM     30  C   UNL     1       5.655  15.411  18.479  0.00  0.00    +0.000 A 
ATOM     31  C   UNL     1       5.291  16.521  19.229  0.00  0.00    +0.000 A 
ATOM     32 BR   UNL     1       6.614  17.758  19.764  0.00  0.00    +0.000 Br
ATOM     33  C   UNL     1       3.960  16.719  19.591  0.00  0.00    +0.000 A 
ATOM     34  C   UNL     1       2.989  15.776  19.226  0.00  0.00    +0.000 A 
ENDBRANCH  26  28
ENDBRANCH   2  24
TORSDOF 6
ENDMDL
MODEL 4
REMARK VINA RESULT:      -7.2      4.052      9.053
REMARK  Name = 
REMARK  6 active torsions:
REMARK  status: ('A' for Active; 'I' for Inactive)
REMARK    1  A    between atoms: N_1  and  C_2
REMARK    2  A    between atoms: C_2  and  C_3
REMARK    3  A    between atoms: C_6  and  N_7
REMARK    4  A    between atoms: C_8  and  C_10
REMARK    5  A    between atoms: C_11  and  C_12
REMARK    6  A    between atoms: N_14  and  C_15
REMARK                            x       y       z     vdW  Elec       q    Type
REMARK                         _______ _______ _______ _____ _____    ______ ____
ROOT
ATOM      1  C   UNL     1       2.680   4.937  18.708  0.00  0.00    +0.000 C 
ATOM      2  C   UNL     1       3.990   4.198  19.209  0.00  0.00    +0.000 C 
ATOM      3  C   UNL     1       3.446   2.833  19.704  0.00  0.00    +0.000 C 
ATOM      4  C   UNL     1       2.834   2.087  18.521  0.00  0.00    +0.000 C 
ATOM      5  C   UNL     1       1.701   2.738  18.186  0.00  0.00    +0.000 C 
ATOM      6  C   UNL     1       1.559   3.931  19.138  0.00  0.00    +0.000 C 
ATOM      7  C   UNL     1       2.181   3.317  20.376  0.00  0.00    +0.000 C 
ATOM      8  C   UNL     1       1.437   2.474  21.381  0.00  0.00    +0.000 C 
ATOM      9  C   UNL     1       2.001   3.819  21.782  0.00  0.00    +0.000 C 
ENDROOT
BRANCH   1  11
ATOM     10  N   UNL     1       1.959   7.271  18.535  0.00  0.00    +0.000 N 
ATOM     11  C   UNL     1       2.574   6.315  19.326  0.00  0.00    +0.000 C 
ATOM     12  O   UNL     1       3.006   6.565  20.442  0.00  0.00    +0.000 OA
ATOM     13  H   UNL     1       1.465   6.963  17.702  0.00  0.00    +0.000 HD
BRANCH  10  17
ATOM     14  C   UNL     1       0.886  11.454  19.291  0.00  0.00    +0.000 C 
ATOM     15  C   UNL     1       1.990  11.084  18.282  0.00  0.00    +0.000 C 
ATOM     16  C   UNL     1       1.853   9.646  17.769  0.00  0.00    +0.000 C 
ATOM     17  C   UNL     1       1.897   8.669  18.950  0.00  0.00    +0.000 C 
ATOM     18  C   UNL     1       0.729   8.971  19.897  0.00  0.00    +0.000 C 
ATOM     19  C   UNL     1       0.817  10.411  20.424  0.00  0.00    +0.000 C 
BRANCH  14  20
ATOM     20  C   UNL     1       1.125  12.892  19.801  0.00  0.00    +0.000 C 
BRANCH  20  21
ATOM     21  N   UNL     1       1.657  12.941  21.159  0.00  0.00    +0.000 NA
ATOM     22  H   UNL     1       1.395  13.827  21.590  0.00  0.00    +0.000 HD
ATOM     23  H   UNL     1       2.676  12.942  21.127  0.00  0.00    +0.000 HD
ENDBRANCH  20  21
ENDBRANCH  14  20
ENDBRANCH  10  17
ENDBRANCH   1  11
BRANCH   2  24
ATOM     24  C   UNL     1       5.033   4.237  18.112  0.00  0.00    +0.000 C 
ATOM     25  O   UNL     1       6.194   3.932  18.400  0.00  0.00    +0.000 OA
ATOM     26  N   UNL     1       4.575   4.515  16.838  0.00  0.00    +0.000 N 
ATOM     27  H   UNL     1       3.654   4.919  16.742  0.00  0.00    +0.000 HD
BRANCH  26  28
ATOM     28  C   UNL     1       5.386   4.534  15.677  0.00  0.00    +0.000 A 
ATOM     29  C   UNL     1       6.565   5.284  15.592  0.00  0.00    +0.000 A 
ATOM     30  C   UNL     1       7.291   5.347  14.404  0.00  0.00    +0.000 A 
ATOM     31  C   UNL     1       6.848   4.644  13.291  0.00  0.00    +0.000 A 
ATOM     32 BR   UNL     1       7.800   4.780  11.666  0.00  0.00    +0.000 Br
ATOM     33  C   UNL     1       5.705   3.851  13.370  0.00  0.00    +0.000 A 
ATOM     34  C   UNL     1       4.980   3.787  14.567  0.00  0.00    +0.000 A 
ENDBRANCH  26  28
ENDBRANCH   2  24
TORSDOF 6
ENDMDL
MODEL 5
REMARK VINA RESULT:      -7.2      4.379      6.881
REMARK  Name = 
REMARK  6 active torsions:
REMARK  status: ('A' for Active; 'I' for Inactive)
REMARK    1  A    between atoms: N_1  and  C_2
REMARK    2  A    between atoms: C_2  and  C_3
REMARK    3  A    between atoms: C_6  and  N_7
REMARK    4  A    between atoms: C_8  and  C_10
REMARK    5  A    between atoms: C_11  and  C_12
REMARK    6  A    between atoms: N_14  and  C_15
REMARK                            x       y       z     vdW  Elec       q    Type
REMARK                         _______ _______ _______ _____ _____    ______ ____
ROOT
ATOM      1  C   UNL     1       3.633   4.766  19.741  0.00  0.00    +0.000 C 
ATOM      2  C   UNL     1       2.246   5.362  19.254  0.00  0.00    +0.000 C 
ATOM      3  C   UNL     1       1.234   4.267  19.680  0.00  0.00    +0.000 C 
ATOM      4  C   UNL     1       1.255   4.141  21.202  0.00  0.00    +0.000 C 
ATOM      5  C   UNL     1       2.435   3.580  21.537  0.00  0.00    +0.000 C 
ATOM      6  C   UNL     1       3.214   3.342  20.239  0.00  0.00    +0.000 C 
ATOM      7  C   UNL     1       2.048   3.045  19.318  0.00  0.00    +0.000 C 
ATOM      8  C   UNL     1       1.416   1.686  19.146  0.00  0.00    +0.000 C 
ATOM      9  C   UNL     1       2.142   2.342  17.992  0.00  0.00    +0.000 C 
ENDROOT
BRANCH   1  11
ATOM     10  N   UNL     1       4.259   5.476  17.482  0.00  0.00    +0.000 N 
ATOM     11  C   UNL     1       4.644   4.778  18.615  0.00  0.00    +0.000 C 
ATOM     12  O   UNL     1       5.722   4.207  18.699  0.00  0.00    +0.000 OA
ATOM     13  H   UNL     1       3.440   6.075  17.539  0.00  0.00    +0.000 HD
BRANCH  10  17
ATOM     14  C   UNL     1       7.201   4.697  14.327  0.00  0.00    +0.000 C 
ATOM     15  C   UNL     1       7.305   5.946  15.223  0.00  0.00    +0.000 C 
ATOM     16  C   UNL     1       6.557   5.775  16.550  0.00  0.00    +0.000 C 
ATOM     17  C   UNL     1       5.080   5.470  16.275  0.00  0.00    +0.000 C 
ATOM     18  C   UNL     1       4.975   4.165  15.476  0.00  0.00    +0.000 C 
ATOM     19  C   UNL     1       5.727   4.285  14.142  0.00  0.00    +0.000 C 
BRANCH  14  20
ATOM     20  C   UNL     1       7.930   4.967  12.992  0.00  0.00    +0.000 C 
BRANCH  20  21
ATOM     21  N   UNL     1       8.886   6.067  13.069  0.00  0.00    +0.000 NA
ATOM     22  H   UNL     1       9.770   5.718  13.438  0.00  0.00    +0.000 HD
ATOM     23  H   UNL     1       8.559   6.758  13.744  0.00  0.00    +0.000 HD
ENDBRANCH  20  21
ENDBRANCH  14  20
ENDBRANCH  10  17
ENDBRANCH   1  11
BRANCH   2  24
ATOM     24  C   UNL     1       2.096   6.771  19.787  0.00  0.00    +0.000 C 
ATOM     25  O   UNL     1       2.941   7.610  19.465  0.00  0.00    +0.000 OA
ATOM     26  N   UNL     1       0.951   7.033  20.515  0.00  0.00    +0.000 N 
ATOM     27  H   UNL     1       0.421   6.248  20.868  0.00  0.00    +0.000 HD
BRANCH  26  28
ATOM     28  C   UNL     1       0.603   8.302  21.041  0.00  0.00    +0.000 A 
ATOM     29  C   UNL     1       0.301   8.501  22.393  0.00  0.00    +0.000 A 
ATOM     30  C   UNL     1      -0.122   9.746  22.858  0.00  0.00    +0.000 A 
ATOM     31  C   UNL     1      -0.230  10.808  21.970  0.00  0.00    +0.000 A 
ATOM     32 BR   UNL     1      -0.860  12.477  22.590  0.00  0.00    +0.000 Br
ATOM     33  C   UNL     1       0.116  10.643  20.631  0.00  0.00    +0.000 A 
ATOM     34  C   UNL     1       0.543   9.391  20.168  0.00  0.00    +0.000 A 
ENDBRANCH  26  28
ENDBRANCH   2  24
TORSDOF 6
ENDMDL
MODEL 6
REMARK VINA RESULT:      -7.2      4.608      9.145
REMARK  Name = 
REMARK  6 active torsions:
REMARK  status: ('A' for Active; 'I' for Inactive)
REMARK    1  A    between atoms: N_1  and  C_2
REMARK    2  A    between atoms: C_2  and  C_3
REMARK    3  A    between atoms: C_6  and  N_7
REMARK    4  A    between atoms: C_8  and  C_10
REMARK    5  A    between atoms: C_11  and  C_12
REMARK    6  A    between atoms: N_14  and  C_15
REMARK                            x       y       z     vdW  Elec       q    Type
REMARK                         _______ _______ _______ _____ _____    ______ ____
ROOT
ATOM      1  C   UNL     1       2.701   4.995  18.934  0.00  0.00    +0.000 C 
ATOM      2  C   UNL     1       4.012   4.240  19.408  0.00  0.00    +0.000 C 
ATOM      3  C   UNL     1       3.465   2.871  19.888  0.00  0.00    +0.000 C 
ATOM      4  C   UNL     1       2.833   2.148  18.700  0.00  0.00    +0.000 C 
ATOM      5  C   UNL     1       1.701   2.810  18.389  0.00  0.00    +0.000 C 
ATOM      6  C   UNL     1       1.578   3.990  19.361  0.00  0.00    +0.000 C 
ATOM      7  C   UNL     1       2.210   3.352  20.582  0.00  0.00    +0.000 C 
ATOM      8  C   UNL     1       1.472   2.498  21.582  0.00  0.00    +0.000 C 
ATOM      9  C   UNL     1       2.050   3.833  21.998  0.00  0.00    +0.000 C 
ENDROOT
BRANCH   1  11
ATOM     10  N   UNL     1       1.413   6.639  20.215  0.00  0.00    +0.000 N 
ATOM     11  C   UNL     1       2.611   6.363  19.575  0.00  0.00    +0.000 C 
ATOM     12  O   UNL     1       3.529   7.169  19.525  0.00  0.00    +0.000 OA
ATOM     13  H   UNL     1       0.766   5.872  20.377  0.00  0.00    +0.000 HD
BRANCH  10  17
ATOM     14  C   UNL     1      -0.263  10.530  21.339  0.00  0.00    +0.000 C 
ATOM     15  C   UNL     1       0.927  10.426  20.366  0.00  0.00    +0.000 C 
ATOM     16  C   UNL     1       1.014   9.049  19.698  0.00  0.00    +0.000 C 
ATOM     17  C   UNL     1       1.139   7.960  20.770  0.00  0.00    +0.000 C 
ATOM     18  C   UNL     1      -0.101   7.996  21.671  0.00  0.00    +0.000 C 
ATOM     19  C   UNL     1      -0.237   9.367  22.351  0.00  0.00    +0.000 C 
BRANCH  14  20
ATOM     20  C   UNL     1      -0.249  11.921  22.011  0.00  0.00    +0.000 C 
BRANCH  20  21
ATOM     21  N   UNL     1       0.802  12.797  21.502  0.00  0.00    +0.000 NA
ATOM     22  H   UNL     1       0.532  13.144  20.582  0.00  0.00    +0.000 HD
ATOM     23  H   UNL     1       1.655  12.259  21.354  0.00  0.00    +0.000 HD
ENDBRANCH  20  21
ENDBRANCH  14  20
ENDBRANCH  10  17
ENDBRANCH   1  11
BRANCH   2  24
ATOM     24  C   UNL     1       5.042   4.289  18.300  0.00  0.00    +0.000 C 
ATOM     25  O   UNL     1       6.217   4.039  18.583  0.00  0.00    +0.000 OA
ATOM     26  N   UNL     1       4.561   4.512  17.023  0.00  0.00    +0.000 N 
ATOM     27  H   UNL     1       3.624   4.876  16.925  0.00  0.00    +0.000 HD
BRANCH  26  28
ATOM     28  C   UNL     1       5.360   4.531  15.853  0.00  0.00    +0.000 A 
ATOM     29  C   UNL     1       6.536   5.283  15.754  0.00  0.00    +0.000 A 
ATOM     30  C   UNL     1       7.249   5.346  14.558  0.00  0.00    +0.000 A 
ATOM     31  C   UNL     1       6.796   4.640  13.452  0.00  0.00    +0.000 A 
ATOM     32 BR   UNL     1       7.730   4.774  11.817  0.00  0.00    +0.000 Br
ATOM     33  C   UNL     1       5.656   3.844  13.545  0.00  0.00    +0.000 A 
ATOM     34  C   UNL     1       4.943   3.781  14.750  0.00  0.00    +0.000 A 
ENDBRANCH  26  28
ENDBRANCH   2  24
TORSDOF 6
ENDMDL
MODEL 7
REMARK VINA RESULT:      -7.1      3.641      6.567
REMARK  Name = 
REMARK  6 active torsions:
REMARK  status: ('A' for Active; 'I' for Inactive)
REMARK    1  A    between atoms: N_1  and  C_2
REMARK    2  A    between atoms: C_2  and  C_3
REMARK    3  A    between atoms: C_6  and  N_7
REMARK    4  A    between atoms: C_8  and  C_10
REMARK    5  A    between atoms: C_11  and  C_12
REMARK    6  A    between atoms: N_14  and  C_15
REMARK                            x       y       z     vdW  Elec       q    Type
REMARK                         _______ _______ _______ _____ _____    ______ ____
ROOT
ATOM      1  C   UNL     1       3.895   4.896  19.221  0.00  0.00    +0.000 C 
ATOM      2  C   UNL     1       2.592   5.501  18.550  0.00  0.00    +0.000 C 
ATOM      3  C   UNL     1       1.459   4.636  19.160  0.00  0.00    +0.000 C 
ATOM      4  C   UNL     1       1.431   4.855  20.672  0.00  0.00    +0.000 C 
ATOM      5  C   UNL     1       2.536   4.270  21.177  0.00  0.00    +0.000 C 
ATOM      6  C   UNL     1       3.316   3.669  20.002  0.00  0.00    +0.000 C 
ATOM      7  C   UNL     1       2.146   3.289  19.116  0.00  0.00    +0.000 C 
ATOM      8  C   UNL     1       1.376   1.996  19.220  0.00  0.00    +0.000 C 
ATOM      9  C   UNL     1       2.195   2.300  17.984  0.00  0.00    +0.000 C 
ENDROOT
BRANCH   1  11
ATOM     10  N   UNL     1       4.568   4.860  16.866  0.00  0.00    +0.000 N 
ATOM     11  C   UNL     1       4.928   4.554  18.169  0.00  0.00    +0.000 C 
ATOM     12  O   UNL     1       6.001   4.040  18.450  0.00  0.00    +0.000 OA
ATOM     13  H   UNL     1       3.751   5.445  16.716  0.00  0.00    +0.000 HD
BRANCH  10  17
ATOM     14  C   UNL     1       6.678   4.510  13.039  0.00  0.00    +0.000 C 
ATOM     15  C   UNL     1       5.548   3.533  13.419  0.00  0.00    +0.000 C 
ATOM     16  C   UNL     1       4.610   4.113  14.483  0.00  0.00    +0.000 C 
ATOM     17  C   UNL     1       5.412   4.474  15.739  0.00  0.00    +0.000 C 
ATOM     18  C   UNL     1       6.464   5.530  15.379  0.00  0.00    +0.000 C 
ATOM     19  C   UNL     1       7.419   4.997  14.300  0.00  0.00    +0.000 C 
BRANCH  14  20
ATOM     20  C   UNL     1       7.609   3.835  12.008  0.00  0.00    +0.000 C 
BRANCH  20  21
ATOM     21  N   UNL     1       7.171   2.496  11.625  0.00  0.00    +0.000 NA
ATOM     22  H   UNL     1       7.430   2.323  10.655  0.00  0.00    +0.000 HD
ATOM     23  H   UNL     1       6.153   2.449  11.651  0.00  0.00    +0.000 HD
ENDBRANCH  20  21
ENDBRANCH  14  20
ENDBRANCH  10  17
ENDBRANCH   1  11
BRANCH   2  24
ATOM     24  C   UNL     1       2.581   7.002  18.750  0.00  0.00    +0.000 C 
ATOM     25  O   UNL     1       3.439   7.674  18.172  0.00  0.00    +0.000 OA
ATOM     26  N   UNL     1       1.532   7.515  19.489  0.00  0.00    +0.000 N 
ATOM     27  H   UNL     1       0.993   6.876  20.057  0.00  0.00    +0.000 HD
BRANCH  26  28
ATOM     28  C   UNL     1       1.316   8.894  19.731  0.00  0.00    +0.000 A 
ATOM     29  C   UNL     1       1.087   9.409  21.013  0.00  0.00    +0.000 A 
ATOM     30  C   UNL     1       0.792  10.757  21.202  0.00  0.00    +0.000 A 
ATOM     31  C   UNL     1       0.738  11.608  20.105  0.00  0.00    +0.000 A 
ATOM     32 BR   UNL     1       0.278  13.422  20.358  0.00  0.00    +0.000 Br
ATOM     33  C   UNL     1       1.013  11.126  18.828  0.00  0.00    +0.000 A 
ATOM     34  C   UNL     1       1.312   9.770  18.642  0.00  0.00    +0.000 A 
ENDBRANCH  26  28
ENDBRANCH   2  24
TORSDOF 6
ENDMDL
MODEL 8
REMARK VINA RESULT:      -7.0      2.999      8.068
REMARK  Name = 
REMARK  6 active torsions:
REMARK  status: ('A' for Active; 'I' for Inactive)
REMARK    1  A    between atoms: N_1  and  C_2
REMARK    2  A    between atoms: C_2  and  C_3
REMARK    3  A    between atoms: C_6  and  N_7
REMARK    4  A    between atoms: C_8  and  C_10
REMARK    5  A    between atoms: C_11  and  C_12
REMARK    6  A    between atoms: N_14  and  C_15
REMARK                            x       y       z     vdW  Elec       q    Type
REMARK                         _______ _______ _______ _____ _____    ______ ____
ROOT
ATOM      1  C   UNL     1       0.846  12.036  18.721  0.00  0.00    +0.000 C 
ATOM      2  C   UNL     1       0.775  10.653  19.494  0.00  0.00    +0.000 C 
ATOM      3  C   UNL     1      -0.735  10.519  19.820  0.00  0.00    +0.000 C 
ATOM      4  C   UNL     1      -1.517  10.438  18.510  0.00  0.00    +0.000 C 
ATOM      5  C   UNL     1      -1.459  11.658  17.938  0.00  0.00    +0.000 C 
ATOM      6  C   UNL     1      -0.625  12.557  18.858  0.00  0.00    +0.000 C 
ATOM      7  C   UNL     1      -1.021  11.956  20.192  0.00  0.00    +0.000 C 
ATOM      8  C   UNL     1      -2.246  12.349  20.979  0.00  0.00    +0.000 C 
ATOM      9  C   UNL     1      -0.864  12.625  21.530  0.00  0.00    +0.000 C 
ENDROOT
BRANCH   1  11
ATOM     10  N   UNL     1       2.526  13.796  18.442  0.00  0.00    +0.000 N 
ATOM     11  C   UNL     1       1.902  12.934  19.329  0.00  0.00    +0.000 C 
ATOM     12  O   UNL     1       2.186  12.896  20.518  0.00  0.00    +0.000 OA
ATOM     13  H   UNL     1       2.125  13.907  17.515  0.00  0.00    +0.000 HD
BRANCH  10  17
ATOM     14  C   UNL     1       5.706  16.788  18.833  0.00  0.00    +0.000 C 
ATOM     15  C   UNL     1       6.030  15.319  18.498  0.00  0.00    +0.000 C 
ATOM     16  C   UNL     1       4.831  14.582  17.890  0.00  0.00    +0.000 C 
ATOM     17  C   UNL     1       3.647  14.631  18.862  0.00  0.00    +0.000 C 
ATOM     18  C   UNL     1       3.256  16.094  19.108  0.00  0.00    +0.000 C 
ATOM     19  C   UNL     1       4.436  16.877  19.703  0.00  0.00    +0.000 C 
BRANCH  14  20
ATOM     20  C   UNL     1       6.940  17.444  19.489  0.00  0.00    +0.000 C 
BRANCH  20  21
ATOM     21  N   UNL     1       7.816  18.113  18.532  0.00  0.00    +0.000 NA
ATOM     22  H   UNL     1       7.424  19.025  18.301  0.00  0.00    +0.000 HD
ATOM     23  H   UNL     1       7.831  17.589  17.658  0.00  0.00    +0.000 HD
ENDBRANCH  20  21
ENDBRANCH  14  20
ENDBRANCH  10  17
ENDBRANCH   1  11
BRANCH   2  24
ATOM     24  C   UNL     1       1.462   9.586  18.668  0.00  0.00    +0.000 C 
ATOM     25  O   UNL     1       1.749   9.849  17.497  0.00  0.00    +0.000 OA
ATOM     26  N   UNL     1       1.812   8.426  19.333  0.00  0.00    +0.000 N 
ATOM     27  H   UNL     1       1.381   8.242  20.227  0.00  0.00    +0.000 HD
BRANCH  26  28
ATOM     28  C   UNL     1       2.514   7.343  18.748  0.00  0.00    +0.000 A 
ATOM     29  C   UNL     1       3.569   7.527  17.846  0.00  0.00    +0.000 A 
ATOM     30  C   UNL     1       4.179   6.438  17.225  0.00  0.00    +0.000 A 
ATOM     31  C   UNL     1       3.745   5.151  17.514  0.00  0.00    +0.000 A 
ATOM     32 BR   UNL     1       4.532   3.683  16.625  0.00  0.00    +0.000 Br
ATOM     33  C   UNL     1       2.731   4.945  18.447  0.00  0.00    +0.000 A 
ATOM     34  C   UNL     1       2.122   6.041  19.073  0.00  0.00    +0.000 A 
ENDBRANCH  26  28
ENDBRANCH   2  24
TORSDOF 6
ENDMDL
MODEL 9
REMARK VINA RESULT:      -7.0      5.250     10.515
REMARK  Name = 
REMARK  6 active torsions:
REMARK  status: ('A' for Active; 'I' for Inactive)
REMARK    1  A    between atoms: N_1  and  C_2
REMARK    2  A    between atoms: C_2  and  C_3
REMARK    3  A    between atoms: C_6  and  N_7
REMARK    4  A    between atoms: C_8  and  C_10
REMARK    5  A    between atoms: C_11  and  C_12
REMARK    6  A    between atoms: N_14  and  C_15
REMARK                            x       y       z     vdW  Elec       q    Type
REMARK                         _______ _______ _______ _____ _____    ______ ____
ROOT
ATOM      1  C   UNL     1       9.064  12.624  18.913  0.00  0.00    +0.000 C 
ATOM      2  C   UNL     1       9.555  11.468  17.945  0.00  0.00    +0.000 C 
ATOM      3  C   UNL     1      11.091  11.682  17.907  0.00  0.00    +0.000 C 
ATOM      4  C   UNL     1      11.653  11.475  19.311  0.00  0.00    +0.000 C 
ATOM      5  C   UNL     1      11.242  12.519  20.061  0.00  0.00    +0.000 C 
ATOM      6  C   UNL     1      10.389  13.421  19.161  0.00  0.00    +0.000 C 
ATOM      7  C   UNL     1      11.113  13.193  17.849  0.00  0.00    +0.000 C 
ATOM      8  C   UNL     1      12.333  13.958  17.399  0.00  0.00    +0.000 C 
ATOM      9  C   UNL     1      11.030  14.085  16.641  0.00  0.00    +0.000 C 
ENDROOT
BRANCH   1  11
ATOM     10  N   UNL     1       7.334  14.347  19.097  0.00  0.00    +0.000 N 
ATOM     11  C   UNL     1       7.949  13.421  18.271  0.00  0.00    +0.000 C 
ATOM     12  O   UNL     1       7.613  13.254  17.107  0.00  0.00    +0.000 OA
ATOM     13  H   UNL     1       7.772  14.565  19.988  0.00  0.00    +0.000 HD
BRANCH  10  17
ATOM     14  C   UNL     1       3.428  16.285  18.635  0.00  0.00    +0.000 C 
ATOM     15  C   UNL     1       3.805  15.041  17.807  0.00  0.00    +0.000 C 
ATOM     16  C   UNL     1       4.922  14.221  18.461  0.00  0.00    +0.000 C 
ATOM     17  C   UNL     1       6.165  15.098  18.651  0.00  0.00    +0.000 C 
ATOM     18  C   UNL     1       5.814  16.277  19.568  0.00  0.00    +0.000 C 
ATOM     19  C   UNL     1       4.684  17.120  18.958  0.00  0.00    +0.000 C 
BRANCH  14  20
ATOM     20  C   UNL     1       2.341  17.085  17.886  0.00  0.00    +0.000 C 
BRANCH  20  21
ATOM     21  N   UNL     1       2.766  17.540  16.565  0.00  0.00    +0.000 NA
ATOM     22  H   UNL     1       1.943  17.765  16.008  0.00  0.00    +0.000 HD
ATOM     23  H   UNL     1       3.231  16.777  16.074  0.00  0.00    +0.000 HD
ENDBRANCH  20  21
ENDBRANCH  14  20
ENDBRANCH  10  17
ENDBRANCH   1  11
BRANCH   2  24
ATOM     24  C   UNL     1       8.994  10.147  18.424  0.00  0.00    +0.000 C 
ATOM     25  O   UNL     1       9.119   9.857  19.617  0.00  0.00    +0.000 OA
ATOM     26  N   UNL     1       8.285   9.408  17.495  0.00  0.00    +0.000 N 
ATOM     27  H   UNL     1       8.392   9.644  16.519  0.00  0.00    +0.000 HD
BRANCH  26  28
ATOM     28  C   UNL     1       7.634   8.180  17.770  0.00  0.00    +0.000 A 
ATOM     29  C   UNL     1       8.209   7.183  18.567  0.00  0.00    +0.000 A 
ATOM     30  C   UNL     1       7.577   5.953  18.744  0.00  0.00    +0.000 A 
ATOM     31  C   UNL     1       6.353   5.717  18.133  0.00  0.00    +0.000 A 
ATOM     32 BR   UNL     1       5.529   4.029  18.325  0.00  0.00    +0.000 Br
ATOM     33  C   UNL     1       5.740   6.715  17.378  0.00  0.00    +0.000 A 
ATOM     34  C   UNL     1       6.376   7.951  17.205  0.00  0.00    +0.000 A 
ENDBRANCH  26  28
ENDBRANCH   2  24
TORSDOF 6
ENDMDL
