MODEL 1
REMARK VINA RESULT:      -3.6      0.000      0.000
REMARK  Name = 
REMARK  7 active torsions:
REMARK  status: ('A' for Active; 'I' for Inactive)
REMARK    1  A    between atoms: N_1  and  C_2
REMARK    2  A    between atoms: C_2  and  C_3
REMARK    3  A    between atoms: C_3  and  C_4
REMARK    4  A    between atoms: C_4  and  N_5
REMARK    5  A    between atoms: N_5  and  C_6
REMARK    6  A    between atoms: C_6  and  C_7
REMARK    7  A    between atoms: C_7  and  S_8
REMARK                            x       y       z     vdW  Elec       q    Type
REMARK                         _______ _______ _______ _____ _____    ______ ____
ROOT
ATOM      1  C   UNL     1       3.042   1.987  17.764  0.00  0.00    +0.000 C 
ENDROOT
BRANCH   1   2
ATOM      2  N   UNL     1       2.188   1.792  18.937  0.00  0.00    +0.000 NA
ATOM      3  H   UNL     1       2.706   2.046  19.779  0.00  0.00    +0.000 HD
BRANCH   2   4
ATOM      4  C   UNL     1       0.966   2.601  18.835  0.00  0.00    +0.000 C 
BRANCH   4   5
ATOM      5  C   UNL     1       0.824   3.523  20.050  0.00  0.00    +0.000 C 
BRANCH   5   6
ATOM      6  S   UNL     1       1.577   2.776  21.529  0.00  0.00    +0.000 S 
ATOM      7  H   UNL     1       0.431   2.484  22.161  0.00  0.00    +0.000 HD
ENDBRANCH   5   6
ENDBRANCH   4   5
ENDBRANCH   2   4
ENDBRANCH   1   2
BRANCH   1   8
ATOM      8  C   UNL     1       3.944   3.207  17.962  0.00  0.00    +0.000 C 
BRANCH   8   9
ATOM      9  C   UNL     1       4.529   3.216  19.373  0.00  0.00    +0.000 C 
BRANCH   9  10
ATOM     10  N   UNL     1       5.007   1.888  19.739  0.00  0.00    +0.000 NA
ATOM     11  H   UNL     1       5.808   1.643  19.158  0.00  0.00    +0.000 HD
ATOM     12  H   UNL     1       4.286   1.197  19.536  0.00  0.00    +0.000 HD
ENDBRANCH   9  10
ENDBRANCH   8   9
ENDBRANCH   1   8
TORSDOF 7
ENDMDL
MODEL 2
REMARK VINA RESULT:      -3.5      2.492      3.216
REMARK  Name = 
REMARK  7 active torsions:
REMARK  status: ('A' for Active; 'I' for Inactive)
REMARK    1  A    between atoms: N_1  and  C_2
REMARK    2  A    between atoms: C_2  and  C_3
REMARK    3  A    between atoms: C_3  and  C_4
REMARK    4  A    between atoms: C_4  and  N_5
REMARK    5  A    between atoms: N_5  and  C_6
REMARK    6  A    between atoms: C_6  and  C_7
REMARK    7  A    between atoms: C_7  and  S_8
REMARK                            x       y       z     vdW  Elec       q    Type
REMARK                         _______ _______ _______ _____ _____    ______ ____
ROOT
ATOM      1  C   UNL     1       5.365   4.257  18.504  0.00  0.00    +0.000 C 
ENDROOT
BRANCH   1   2
ATOM      2  N   UNL     1       5.341   3.085  19.382  0.00  0.00    +0.000 NA
ATOM      3  H   UNL     1       5.710   3.342  20.299  0.00  0.00    +0.000 HD
BRANCH   2   4
ATOM      4  C   UNL     1       3.975   2.562  19.519  0.00  0.00    +0.000 C 
BRANCH   4   5
ATOM      5  C   UNL     1       3.044   3.624  20.111  0.00  0.00    +0.000 C 
BRANCH   5   6
ATOM      6  S   UNL     1       2.012   2.923  21.436  0.00  0.00    +0.000 S 
ATOM      7  H   UNL     1       1.048   3.855  21.396  0.00  0.00    +0.000 HD
ENDBRANCH   5   6
ENDBRANCH   4   5
ENDBRANCH   2   4
ENDBRANCH   1   2
BRANCH   1   8
ATOM      8  C   UNL     1       6.313   5.319  19.063  0.00  0.00    +0.000 C 
BRANCH   8   9
ATOM      9  C   UNL     1       7.540   5.468  18.163  0.00  0.00    +0.000 C 
BRANCH   9  10
ATOM     10  N   UNL     1       7.987   4.165  17.686  0.00  0.00    +0.000 NA
ATOM     11  H   UNL     1       9.002   4.108  17.756  0.00  0.00    +0.000 HD
ATOM     12  H   UNL     1       7.765   4.068  16.696  0.00  0.00    +0.000 HD
ENDBRANCH   9  10
ENDBRANCH   8   9
ENDBRANCH   1   8
TORSDOF 7
ENDMDL
MODEL 3
REMARK VINA RESULT:      -3.3      3.464      4.421
REMARK  Name = 
REMARK  7 active torsions:
REMARK  status: ('A' for Active; 'I' for Inactive)
REMARK    1  A    between atoms: N_1  and  C_2
REMARK    2  A    between atoms: C_2  and  C_3
REMARK    3  A    between atoms: C_3  and  C_4
REMARK    4  A    between atoms: C_4  and  N_5
REMARK    5  A    between atoms: N_5  and  C_6
REMARK    6  A    between atoms: C_6  and  C_7
REMARK    7  A    between atoms: C_7  and  S_8
REMARK                            x       y       z     vdW  Elec       q    Type
REMARK                         _______ _______ _______ _____ _____    ______ ____
ROOT
ATOM      1  C   UNL     1       6.106   4.740  17.183  0.00  0.00    +0.000 C 
ENDROOT
BRANCH   1   2
ATOM      2  N   UNL     1       6.108   3.923  18.398  0.00  0.00    +0.000 NA
ATOM      3  H   UNL     1       6.894   4.197  18.989  0.00  0.00    +0.000 HD
BRANCH   2   4
ATOM      4  C   UNL     1       4.847   4.079  19.136  0.00  0.00    +0.000 C 
BRANCH   4   5
ATOM      5  C   UNL     1       4.337   2.723  19.631  0.00  0.00    +0.000 C 
BRANCH   5   6
ATOM      6  S   UNL     1       3.446   1.839  18.312  0.00  0.00    +0.000 S 
ATOM      7  H   UNL     1       3.918   2.564  17.288  0.00  0.00    +0.000 HD
ENDBRANCH   5   6
ENDBRANCH   4   5
ENDBRANCH   2   4
ENDBRANCH   1   2
BRANCH   1   8
ATOM      8  C   UNL     1       5.706   3.891  15.974  0.00  0.00    +0.000 C 
BRANCH   8   9
ATOM      9  C   UNL     1       6.519   4.295  14.745  0.00  0.00    +0.000 C 
BRANCH   9  10
ATOM     10  N   UNL     1       7.500   5.317  15.091  0.00  0.00    +0.000 NA
ATOM     11  H   UNL     1       7.258   5.729  15.991  0.00  0.00    +0.000 HD
ATOM     12  H   UNL     1       7.458   6.075  14.410  0.00  0.00    +0.000 HD
ENDBRANCH   9  10
ENDBRANCH   8   9
ENDBRANCH   1   8
TORSDOF 7
ENDMDL
MODEL 4
REMARK VINA RESULT:      -3.3      3.008      4.120
REMARK  Name = 
REMARK  7 active torsions:
REMARK  status: ('A' for Active; 'I' for Inactive)
REMARK    1  A    between atoms: N_1  and  C_2
REMARK    2  A    between atoms: C_2  and  C_3
REMARK    3  A    between atoms: C_3  and  C_4
REMARK    4  A    between atoms: C_4  and  N_5
REMARK    5  A    between atoms: N_5  and  C_6
REMARK    6  A    between atoms: C_6  and  C_7
REMARK    7  A    between atoms: C_7  and  S_8
REMARK                            x       y       z     vdW  Elec       q    Type
REMARK                         _______ _______ _______ _____ _____    ______ ____
ROOT
ATOM      1  C   UNL     1       1.685   5.202  20.753  0.00  0.00    +0.000 C 
ENDROOT
BRANCH   1   2
ATOM      2  N   UNL     1       3.060   5.331  20.268  0.00  0.00    +0.000 NA
ATOM      3  H   UNL     1       3.667   4.704  20.799  0.00  0.00    +0.000 HD
BRANCH   2   4
ATOM      4  C   UNL     1       3.142   5.014  18.835  0.00  0.00    +0.000 C 
BRANCH   4   5
ATOM      5  C   UNL     1       4.422   4.234  18.525  0.00  0.00    +0.000 C 
BRANCH   5   6
ATOM      6  S   UNL     1       5.899   5.177  19.019  0.00  0.00    +0.000 S 
ATOM      7  H   UNL     1       5.322   5.862  20.018  0.00  0.00    +0.000 HD
ENDBRANCH   5   6
ENDBRANCH   4   5
ENDBRANCH   2   4
ENDBRANCH   1   2
BRANCH   1   8
ATOM      8  C   UNL     1       1.064   3.899  20.246  0.00  0.00    +0.000 C 
BRANCH   8   9
ATOM      9  C   UNL     1       1.312   2.766  21.241  0.00  0.00    +0.000 C 
BRANCH   9  10
ATOM     10  N   UNL     1       2.364   3.130  22.182  0.00  0.00    +0.000 NA
ATOM     11  H   UNL     1       2.042   2.961  23.134  0.00  0.00    +0.000 HD
ATOM     12  H   UNL     1       2.549   4.130  22.117  0.00  0.00    +0.000 HD
ENDBRANCH   9  10
ENDBRANCH   8   9
ENDBRANCH   1   8
TORSDOF 7
ENDMDL
MODEL 5
REMARK VINA RESULT:      -3.3      1.283      1.463
REMARK  Name = 
REMARK  7 active torsions:
REMARK  status: ('A' for Active; 'I' for Inactive)
REMARK    1  A    between atoms: N_1  and  C_2
REMARK    2  A    between atoms: C_2  and  C_3
REMARK    3  A    between atoms: C_3  and  C_4
REMARK    4  A    between atoms: C_4  and  N_5
REMARK    5  A    between atoms: N_5  and  C_6
REMARK    6  A    between atoms: C_6  and  C_7
REMARK    7  A    between atoms: C_7  and  S_8
REMARK                            x       y       z     vdW  Elec       q    Type
REMARK                         _______ _______ _______ _____ _____    ______ ____
ROOT
ATOM      1  C   UNL     1       1.938   4.276  17.791  0.00  0.00    +0.000 C 
ENDROOT
BRANCH   1   2
ATOM      2  N   UNL     1       1.741   2.830  17.909  0.00  0.00    +0.000 NA
ATOM      3  H   UNL     1       2.635   2.382  18.113  0.00  0.00    +0.000 HD
BRANCH   2   4
ATOM      4  C   UNL     1       0.770   2.519  18.966  0.00  0.00    +0.000 C 
BRANCH   4   5
ATOM      5  C   UNL     1       0.914   3.494  20.139  0.00  0.00    +0.000 C 
BRANCH   5   6
ATOM      6  S   UNL     1       2.105   2.869  21.366  0.00  0.00    +0.000 S 
ATOM      7  H   UNL     1       3.104   3.709  21.059  0.00  0.00    +0.000 HD
ENDBRANCH   5   6
ENDBRANCH   4   5
ENDBRANCH   2   4
ENDBRANCH   1   2
BRANCH   1   8
ATOM      8  C   UNL     1       3.429   4.601  17.678  0.00  0.00    +0.000 C 
BRANCH   8   9
ATOM      9  C   UNL     1       4.266   3.331  17.826  0.00  0.00    +0.000 C 
BRANCH   9  10
ATOM     10  N   UNL     1       5.209   3.462  18.930  0.00  0.00    +0.000 NA
ATOM     11  H   UNL     1       5.602   2.548  19.151  0.00  0.00    +0.000 HD
ATOM     12  H   UNL     1       4.714   3.769  19.767  0.00  0.00    +0.000 HD
ENDBRANCH   9  10
ENDBRANCH   8   9
ENDBRANCH   1   8
TORSDOF 7
ENDMDL
MODEL 6
REMARK VINA RESULT:      -3.2      3.344      4.108
REMARK  Name = 
REMARK  7 active torsions:
REMARK  status: ('A' for Active; 'I' for Inactive)
REMARK    1  A    between atoms: N_1  and  C_2
REMARK    2  A    between atoms: C_2  and  C_3
REMARK    3  A    between atoms: C_3  and  C_4
REMARK    4  A    between atoms: C_4  and  N_5
REMARK    5  A    between atoms: N_5  and  C_6
REMARK    6  A    between atoms: C_6  and  C_7
REMARK    7  A    between atoms: C_7  and  S_8
REMARK                            x       y       z     vdW  Elec       q    Type
REMARK                         _______ _______ _______ _____ _____    ______ ____
ROOT
ATOM      1  C   UNL     1       6.674   4.526  16.845  0.00  0.00    +0.000 C 
ENDROOT
BRANCH   1   2
ATOM      2  N   UNL     1       5.498   3.804  17.335  0.00  0.00    +0.000 NA
ATOM      3  H   UNL     1       5.549   3.724  18.351  0.00  0.00    +0.000 HD
BRANCH   2   4
ATOM      4  C   UNL     1       4.261   4.494  16.946  0.00  0.00    +0.000 C 
BRANCH   4   5
ATOM      5  C   UNL     1       3.033   3.736  17.460  0.00  0.00    +0.000 C 
BRANCH   5   6
ATOM      6  S   UNL     1       3.504   2.115  18.141  0.00  0.00    +0.000 S 
ATOM      7  H   UNL     1       4.214   2.579  19.180  0.00  0.00    +0.000 HD
ENDBRANCH   5   6
ENDBRANCH   4   5
ENDBRANCH   2   4
ENDBRANCH   1   2
BRANCH   1   8
ATOM      8  C   UNL     1       7.716   4.660  17.958  0.00  0.00    +0.000 C 
BRANCH   8   9
ATOM      9  C   UNL     1       7.259   5.682  18.999  0.00  0.00    +0.000 C 
BRANCH   9  10
ATOM     10  N   UNL     1       7.939   5.460  20.269  0.00  0.00    +0.000 NA
ATOM     11  H   UNL     1       8.468   4.591  20.223  0.00  0.00    +0.000 HD
ATOM     12  H   UNL     1       7.248   5.334  21.008  0.00  0.00    +0.000 HD
ENDBRANCH   9  10
ENDBRANCH   8   9
ENDBRANCH   1   8
TORSDOF 7
ENDMDL
MODEL 7
REMARK VINA RESULT:      -3.2      3.229      4.048
REMARK  Name = 
REMARK  7 active torsions:
REMARK  status: ('A' for Active; 'I' for Inactive)
REMARK    1  A    between atoms: N_1  and  C_2
REMARK    2  A    between atoms: C_2  and  C_3
REMARK    3  A    between atoms: C_3  and  C_4
REMARK    4  A    between atoms: C_4  and  N_5
REMARK    5  A    between atoms: N_5  and  C_6
REMARK    6  A    between atoms: C_6  and  C_7
REMARK    7  A    between atoms: C_7  and  S_8
REMARK                            x       y       z     vdW  Elec       q    Type
REMARK                         _______ _______ _______ _____ _____    ______ ____
ROOT
ATOM      1  C   UNL     1       5.999   5.254  19.015  0.00  0.00    +0.000 C 
ENDROOT
BRANCH   1   2
ATOM      2  N   UNL     1       5.687   3.823  19.024  0.00  0.00    +0.000 NA
ATOM      3  H   UNL     1       6.292   3.350  19.697  0.00  0.00    +0.000 HD
BRANCH   2   4
ATOM      4  C   UNL     1       4.277   3.597  19.370  0.00  0.00    +0.000 C 
BRANCH   4   5
ATOM      5  C   UNL     1       3.595   4.914  19.752  0.00  0.00    +0.000 C 
BRANCH   5   6
ATOM      6  S   UNL     1       2.079   4.610  20.711  0.00  0.00    +0.000 S 
ATOM      7  H   UNL     1       1.228   5.193  19.853  0.00  0.00    +0.000 HD
ENDBRANCH   5   6
ENDBRANCH   4   5
ENDBRANCH   2   4
ENDBRANCH   1   2
BRANCH   1   8
ATOM      8  C   UNL     1       7.302   5.509  18.254  0.00  0.00    +0.000 C 
BRANCH   8   9
ATOM      9  C   UNL     1       7.336   4.691  16.964  0.00  0.00    +0.000 C 
BRANCH   9  10
ATOM     10  N   UNL     1       7.447   5.567  15.803  0.00  0.00    +0.000 NA
ATOM     11  H   UNL     1       7.299   5.024  14.953  0.00  0.00    +0.000 HD
ATOM     12  H   UNL     1       8.395   5.936  15.743  0.00  0.00    +0.000 HD
ENDBRANCH   9  10
ENDBRANCH   8   9
ENDBRANCH   1   8
TORSDOF 7
ENDMDL
MODEL 8
REMARK VINA RESULT:      -3.2      2.698      3.527
REMARK  Name = 
REMARK  7 active torsions:
REMARK  status: ('A' for Active; 'I' for Inactive)
REMARK    1  A    between atoms: N_1  and  C_2
REMARK    2  A    between atoms: C_2  and  C_3
REMARK    3  A    between atoms: C_3  and  C_4
REMARK    4  A    between atoms: C_4  and  N_5
REMARK    5  A    between atoms: N_5  and  C_6
REMARK    6  A    between atoms: C_6  and  C_7
REMARK    7  A    between atoms: C_7  and  S_8
REMARK                            x       y       z     vdW  Elec       q    Type
REMARK                         _______ _______ _______ _____ _____    ______ ____
ROOT
ATOM      1  C   UNL     1       1.892   2.029  19.349  0.00  0.00    +0.000 C 
ENDROOT
BRANCH   1   2
ATOM      2  N   UNL     1       1.757   2.124  17.894  0.00  0.00    +0.000 NA
ATOM      3  H   UNL     1       0.770   2.218  17.652  0.00  0.00    +0.000 HD
BRANCH   2   4
ATOM      4  C   UNL     1       2.514   3.270  17.373  0.00  0.00    +0.000 C 
BRANCH   4   5
ATOM      5  C   UNL     1       3.992   3.165  17.760  0.00  0.00    +0.000 C 
BRANCH   5   6
ATOM      6  S   UNL     1       5.037   4.119  16.615  0.00  0.00    +0.000 S 
ATOM      7  H   UNL     1       4.043   4.591  15.849  0.00  0.00    +0.000 HD
ENDBRANCH   5   6
ENDBRANCH   4   5
ENDBRANCH   2   4
ENDBRANCH   1   2
BRANCH   1   8
ATOM      8  C   UNL     1       1.025   3.087  20.034  0.00  0.00    +0.000 C 
BRANCH   8   9
ATOM      9  C   UNL     1       1.801   3.767  21.161  0.00  0.00    +0.000 C 
BRANCH   9  10
ATOM     10  N   UNL     1       2.480   2.776  21.987  0.00  0.00    +0.000 NA
ATOM     11  H   UNL     1       2.494   3.093  22.955  0.00  0.00    +0.000 HD
ATOM     12  H   UNL     1       3.455   2.702  21.698  0.00  0.00    +0.000 HD
ENDBRANCH   9  10
ENDBRANCH   8   9
ENDBRANCH   1   8
TORSDOF 7
ENDMDL
MODEL 9
REMARK VINA RESULT:      -3.2      3.462      4.362
REMARK  Name = 
REMARK  7 active torsions:
REMARK  status: ('A' for Active; 'I' for Inactive)
REMARK    1  A    between atoms: N_1  and  C_2
REMARK    2  A    between atoms: C_2  and  C_3
REMARK    3  A    between atoms: C_3  and  C_4
REMARK    4  A    between atoms: C_4  and  N_5
REMARK    5  A    between atoms: N_5  and  C_6
REMARK    6  A    between atoms: C_6  and  C_7
REMARK    7  A    between atoms: C_7  and  S_8
REMARK                            x       y       z     vdW  Elec       q    Type
REMARK                         _______ _______ _______ _____ _____    ______ ____
ROOT
ATOM      1  C   UNL     1       7.237   4.730  17.339  0.00  0.00    +0.000 C 
ENDROOT
BRANCH   1   2
ATOM      2  N   UNL     1       6.299   3.899  18.097  0.00  0.00    +0.000 NA
ATOM      3  H   UNL     1       6.285   4.206  19.070  0.00  0.00    +0.000 HD
BRANCH   2   4
ATOM      4  C   UNL     1       4.948   3.979  17.525  0.00  0.00    +0.000 C 
BRANCH   4   5
ATOM      5  C   UNL     1       3.889   3.948  18.631  0.00  0.00    +0.000 C 
BRANCH   5   6
ATOM      6  S   UNL     1       2.328   4.690  18.061  0.00  0.00    +0.000 S 
ATOM      7  H   UNL     1       1.841   3.595  17.459  0.00  0.00    +0.000 HD
ENDBRANCH   5   6
ENDBRANCH   4   5
ENDBRANCH   2   4
ENDBRANCH   1   2
BRANCH   1   8
ATOM      8  C   UNL     1       7.654   5.948  18.166  0.00  0.00    +0.000 C 
BRANCH   8   9
ATOM      9  C   UNL     1       7.180   5.801  19.611  0.00  0.00    +0.000 C 
BRANCH   9  10
ATOM     10  N   UNL     1       8.247   5.269  20.450  0.00  0.00    +0.000 NA
ATOM     11  H   UNL     1       7.872   4.536  21.051  0.00  0.00    +0.000 HD
ATOM     12  H   UNL     1       8.588   6.000  21.073  0.00  0.00    +0.000 HD
ENDBRANCH   9  10
ENDBRANCH   8   9
ENDBRANCH   1   8
TORSDOF 7
ENDMDL
