MODEL 1
REMARK VINA RESULT:      -8.5      0.000      0.000
REMARK  Name = 
REMARK  10 active torsions:
REMARK  status: ('A' for Active; 'I' for Inactive)
REMARK    1  A    between atoms: C_1  and  C_2
REMARK    2  A    between atoms: C_6  and  C_7
REMARK    3  A    between atoms: C_8  and  C_9
REMARK    4  A    between atoms: C_10  and  C_11
REMARK    5  A    between atoms: C_18  and  N_19
REMARK    6  A    between atoms: N_19  and  C_20
REMARK    7  A    between atoms: C_22  and  C_23
REMARK    8  A    between atoms: C_23  and  O_24
REMARK    9  A    between atoms: C_25  and  O_26
REMARK   10  A    between atoms: C_27  and  O_28
REMARK                            x       y       z     vdW  Elec       q    Type
REMARK                         _______ _______ _______ _____ _____    ______ ____
ROOT
ATOM      1  C   UNL     1       2.481   7.356  19.145  0.00  0.00    +0.000 A 
ATOM      2  C   UNL     1       1.812   8.556  18.980  0.00  0.00    +0.000 A 
ATOM      3 CL   UNL     1       1.960   9.492  17.540  0.00  0.00    +0.000 Cl
ATOM      4  N   UNL     1       0.958   9.125  19.867  0.00  0.00    +0.000 NA
ATOM      5  C   UNL     1       0.765   8.461  20.999  0.00  0.00    +0.000 A 
ATOM      6  N   UNL     1      -0.050   8.989  21.974  0.00  0.00    +0.000 N 
ATOM      7  N   UNL     1       1.296   7.270  21.245  0.00  0.00    +0.000 NA
ATOM      8  C   UNL     1       2.121   6.729  20.333  0.00  0.00    +0.000 A 
ATOM      9  H   UNL     1      -0.723   9.644  21.604  0.00  0.00    +0.000 HD
ATOM     10  H   UNL     1      -0.398   8.265  22.588  0.00  0.00    +0.000 HD
ENDROOT
BRANCH   1  12
ATOM     11  C   UNL     1       4.309   6.354  17.469  0.00  0.00    +0.000 C 
ATOM     12  C   UNL     1       3.488   6.823  18.228  0.00  0.00    +0.000 C 
BRANCH  11  20
ATOM     13  C   UNL     1       3.973   3.604  16.085  0.00  0.00    +0.000 C 
ATOM     14  C   UNL     1       5.166   4.511  15.939  0.00  0.00    +0.000 A 
ATOM     15  C   UNL     1       6.161   4.070  15.043  0.00  0.00    +0.000 A 
ATOM     16  C   UNL     1       7.318   4.803  14.900  0.00  0.00    +0.000 A 
ATOM     17  N   UNL     1       7.567   5.905  15.619  0.00  0.00    +0.000 NA
ATOM     18  C   UNL     1       6.609   6.342  16.487  0.00  0.00    +0.000 A 
ATOM     19  C   UNL     1       7.052   7.501  17.328  0.00  0.00    +0.000 C 
ATOM     20  C   UNL     1       5.348   5.727  16.643  0.00  0.00    +0.000 A 
ENDBRANCH  11  20
ENDBRANCH   1  12
BRANCH   8  21
ATOM     21  N   UNL     1       2.556   5.431  20.598  0.00  0.00    +0.000 N 
ATOM     22  H   UNL     1       3.093   5.138  19.782  0.00  0.00    +0.000 HD
BRANCH  21  23
ATOM     23  C   UNL     1       1.538   4.427  20.957  0.00  0.00    +0.000 C 
ATOM     24  C   UNL     1       2.160   3.254  21.747  0.00  0.00    +0.000 C 
ATOM     25  C   UNL     1       2.696   2.261  20.692  0.00  0.00    +0.000 C 
ATOM     26  C   UNL     1       2.389   2.923  19.341  0.00  0.00    +0.000 C 
ATOM     27  C   UNL     1       1.128   3.759  19.638  0.00  0.00    +0.000 C 
BRANCH  26  28
ATOM     28  O   UNL     1       2.170   1.974  18.313  0.00  0.00    +0.000 OA
ATOM     29  H   UNL     1       2.696   2.261  17.542  0.00  0.00    +0.000 HD
ENDBRANCH  26  28
BRANCH  27  30
ATOM     30  O   UNL     1      -0.044   2.950  19.752  0.00  0.00    +0.000 OA
ATOM     31  H   UNL     1      -0.674   3.377  20.358  0.00  0.00    +0.000 HD
ENDBRANCH  27  30
BRANCH  25  32
ATOM     32  C   UNL     1       4.166   1.934  20.941  0.00  0.00    +0.000 C 
BRANCH  32  33
ATOM     33  O   UNL     1       4.871   1.968  19.699  0.00  0.00    +0.000 OA
ATOM     34  H   UNL     1       5.700   2.460  19.829  0.00  0.00    +0.000 HD
ENDBRANCH  32  33
ENDBRANCH  25  32
ENDBRANCH  21  23
ENDBRANCH   8  21
TORSDOF 8
ENDMDL
MODEL 2
REMARK VINA RESULT:      -8.3      3.328      6.892
REMARK  Name = 
REMARK  10 active torsions:
REMARK  status: ('A' for Active; 'I' for Inactive)
REMARK    1  A    between atoms: C_1  and  C_2
REMARK    2  A    between atoms: C_6  and  C_7
REMARK    3  A    between atoms: C_8  and  C_9
REMARK    4  A    between atoms: C_10  and  C_11
REMARK    5  A    between atoms: C_18  and  N_19
REMARK    6  A    between atoms: N_19  and  C_20
REMARK    7  A    between atoms: C_22  and  C_23
REMARK    8  A    between atoms: C_23  and  O_24
REMARK    9  A    between atoms: C_25  and  O_26
REMARK   10  A    between atoms: C_27  and  O_28
REMARK                            x       y       z     vdW  Elec       q    Type
REMARK                         _______ _______ _______ _____ _____    ______ ____
ROOT
ATOM      1  C   UNL     1       3.235   4.780  19.774  0.00  0.00    +0.000 A 
ATOM      2  C   UNL     1       2.517   3.623  20.018  0.00  0.00    +0.000 A 
ATOM      3 CL   UNL     1       0.803   3.634  20.198  0.00  0.00    +0.000 Cl
ATOM      4  N   UNL     1       3.027   2.369  20.110  0.00  0.00    +0.000 NA
ATOM      5  C   UNL     1       4.341   2.261  19.962  0.00  0.00    +0.000 A 
ATOM      6  N   UNL     1       4.946   1.032  20.088  0.00  0.00    +0.000 N 
ATOM      7  N   UNL     1       5.126   3.287  19.659  0.00  0.00    +0.000 NA
ATOM      8  C   UNL     1       4.581   4.510  19.554  0.00  0.00    +0.000 A 
ATOM      9  H   UNL     1       4.312   0.267  19.909  0.00  0.00    +0.000 HD
ATOM     10  H   UNL     1       5.837   1.015  19.609  0.00  0.00    +0.000 HD
ENDROOT
BRANCH   1  12
ATOM     11  C   UNL     1       2.193   7.243  19.826  0.00  0.00    +0.000 C 
ATOM     12  C   UNL     1       2.680   6.133  19.798  0.00  0.00    +0.000 C 
BRANCH  11  20
ATOM     13  C   UNL     1       0.226   8.295  21.975  0.00  0.00    +0.000 C 
ATOM     14  C   UNL     1       0.712   9.077  20.784  0.00  0.00    +0.000 A 
ATOM     15  C   UNL     1       0.265  10.412  20.708  0.00  0.00    +0.000 A 
ATOM     16  C   UNL     1       0.605  11.179  19.615  0.00  0.00    +0.000 A 
ATOM     17  N   UNL     1       1.309  10.694  18.584  0.00  0.00    +0.000 NA
ATOM     18  C   UNL     1       1.748   9.404  18.649  0.00  0.00    +0.000 A 
ATOM     19  C   UNL     1       2.405   8.935  17.387  0.00  0.00    +0.000 C 
ATOM     20  C   UNL     1       1.543   8.558  19.761  0.00  0.00    +0.000 A 
ENDBRANCH  11  20
ENDBRANCH   1  12
BRANCH   8  21
ATOM     21  N   UNL     1       5.436   5.523  19.124  0.00  0.00    +0.000 N 
ATOM     22  H   UNL     1       5.043   5.878  18.251  0.00  0.00    +0.000 HD
BRANCH  21  23
ATOM     23  C   UNL     1       6.865   5.196  18.971  0.00  0.00    +0.000 C 
ATOM     24  C   UNL     1       7.739   6.470  18.989  0.00  0.00    +0.000 C 
ATOM     25  C   UNL     1       7.756   7.000  17.537  0.00  0.00    +0.000 C 
ATOM     26  C   UNL     1       6.864   6.026  16.755  0.00  0.00    +0.000 C 
ATOM     27  C   UNL     1       7.028   4.701  17.528  0.00  0.00    +0.000 C 
BRANCH  26  28
ATOM     28  O   UNL     1       7.256   5.904  15.400  0.00  0.00    +0.000 OA
ATOM     29  H   UNL     1       7.739   5.060  15.317  0.00  0.00    +0.000 HD
ENDBRANCH  26  28
BRANCH  27  30
ATOM     30  O   UNL     1       8.291   4.082  17.280  0.00  0.00    +0.000 OA
ATOM     31  H   UNL     1       8.521   3.503  18.027  0.00  0.00    +0.000 HD
ENDBRANCH  27  30
BRANCH  25  32
ATOM     32  C   UNL     1       7.331   8.465  17.481  0.00  0.00    +0.000 C 
BRANCH  32  33
ATOM     33  O   UNL     1       8.353   9.273  18.067  0.00  0.00    +0.000 OA
ATOM     34  H   UNL     1       9.045   8.686  18.419  0.00  0.00    +0.000 HD
ENDBRANCH  32  33
ENDBRANCH  25  32
ENDBRANCH  21  23
ENDBRANCH   8  21
TORSDOF 8
ENDMDL
MODEL 3
REMARK VINA RESULT:      -8.2      3.195      6.936
REMARK  Name = 
REMARK  10 active torsions:
REMARK  status: ('A' for Active; 'I' for Inactive)
REMARK    1  A    between atoms: C_1  and  C_2
REMARK    2  A    between atoms: C_6  and  C_7
REMARK    3  A    between atoms: C_8  and  C_9
REMARK    4  A    between atoms: C_10  and  C_11
REMARK    5  A    between atoms: C_18  and  N_19
REMARK    6  A    between atoms: N_19  and  C_20
REMARK    7  A    between atoms: C_22  and  C_23
REMARK    8  A    between atoms: C_23  and  O_24
REMARK    9  A    between atoms: C_25  and  O_26
REMARK   10  A    between atoms: C_27  and  O_28
REMARK                            x       y       z     vdW  Elec       q    Type
REMARK                         _______ _______ _______ _____ _____    ______ ____
ROOT
ATOM      1  C   UNL     1       3.262   4.804  19.727  0.00  0.00    +0.000 A 
ATOM      2  C   UNL     1       2.537   3.650  19.957  0.00  0.00    +0.000 A 
ATOM      3 CL   UNL     1       0.818   3.664  20.093  0.00  0.00    +0.000 Cl
ATOM      4  N   UNL     1       3.042   2.395  20.068  0.00  0.00    +0.000 NA
ATOM      5  C   UNL     1       4.359   2.285  19.955  0.00  0.00    +0.000 A 
ATOM      6  N   UNL     1       4.959   1.056  20.101  0.00  0.00    +0.000 N 
ATOM      7  N   UNL     1       5.153   3.308  19.667  0.00  0.00    +0.000 NA
ATOM      8  C   UNL     1       4.613   4.532  19.543  0.00  0.00    +0.000 A 
ATOM      9  H   UNL     1       4.329   0.291  19.909  0.00  0.00    +0.000 HD
ATOM     10  H   UNL     1       5.863   1.036  19.646  0.00  0.00    +0.000 HD
ENDROOT
BRANCH   1  12
ATOM     11  C   UNL     1       2.228   7.272  19.754  0.00  0.00    +0.000 C 
ATOM     12  C   UNL     1       2.709   6.158  19.731  0.00  0.00    +0.000 C 
BRANCH  11  20
ATOM     13  C   UNL     1       2.300   9.178  17.314  0.00  0.00    +0.000 C 
ATOM     14  C   UNL     1       1.513   9.411  18.576  0.00  0.00    +0.000 A 
ATOM     15  C   UNL     1       0.707  10.567  18.587  0.00  0.00    +0.000 A 
ATOM     16  C   UNL     1       0.007  10.894  19.727  0.00  0.00    +0.000 A 
ATOM     17  N   UNL     1       0.096  10.182  20.858  0.00  0.00    +0.000 NA
ATOM     18  C   UNL     1       0.872   9.060  20.857  0.00  0.00    +0.000 A 
ATOM     19  C   UNL     1       1.000   8.423  22.208  0.00  0.00    +0.000 C 
ATOM     20  C   UNL     1       1.555   8.576  19.720  0.00  0.00    +0.000 A 
ENDBRANCH  11  20
ENDBRANCH   1  12
BRANCH   8  21
ATOM     21  N   UNL     1       5.480   5.542  19.131  0.00  0.00    +0.000 N 
ATOM     22  H   UNL     1       5.086   5.924  18.270  0.00  0.00    +0.000 HD
BRANCH  21  23
ATOM     23  C   UNL     1       6.903   5.197  18.959  0.00  0.00    +0.000 C 
ATOM     24  C   UNL     1       7.793   6.460  18.963  0.00  0.00    +0.000 C 
ATOM     25  C   UNL     1       7.797   6.988  17.510  0.00  0.00    +0.000 C 
ATOM     26  C   UNL     1       6.881   6.024  16.742  0.00  0.00    +0.000 C 
ATOM     27  C   UNL     1       7.040   4.698  17.514  0.00  0.00    +0.000 C 
BRANCH  26  28
ATOM     28  O   UNL     1       7.253   5.895  15.381  0.00  0.00    +0.000 OA
ATOM     29  H   UNL     1       7.421   4.947  15.220  0.00  0.00    +0.000 HD
ENDBRANCH  26  28
BRANCH  27  30
ATOM     30  O   UNL     1       8.292   4.063  17.249  0.00  0.00    +0.000 OA
ATOM     31  H   UNL     1       8.492   4.124  16.299  0.00  0.00    +0.000 HD
ENDBRANCH  27  30
BRANCH  25  32
ATOM     32  C   UNL     1       7.389   8.458  17.457  0.00  0.00    +0.000 C 
BRANCH  32  33
ATOM     33  O   UNL     1       8.330   9.232  18.202  0.00  0.00    +0.000 OA
ATOM     34  H   UNL     1       8.341  10.135  17.840  0.00  0.00    +0.000 HD
ENDBRANCH  32  33
ENDBRANCH  25  32
ENDBRANCH  21  23
ENDBRANCH   8  21
TORSDOF 8
ENDMDL
MODEL 4
REMARK VINA RESULT:      -7.9      1.817      6.050
REMARK  Name = 
REMARK  10 active torsions:
REMARK  status: ('A' for Active; 'I' for Inactive)
REMARK    1  A    between atoms: C_1  and  C_2
REMARK    2  A    between atoms: C_6  and  C_7
REMARK    3  A    between atoms: C_8  and  C_9
REMARK    4  A    between atoms: C_10  and  C_11
REMARK    5  A    between atoms: C_18  and  N_19
REMARK    6  A    between atoms: N_19  and  C_20
REMARK    7  A    between atoms: C_22  and  C_23
REMARK    8  A    between atoms: C_23  and  O_24
REMARK    9  A    between atoms: C_25  and  O_26
REMARK   10  A    between atoms: C_27  and  O_28
REMARK                            x       y       z     vdW  Elec       q    Type
REMARK                         _______ _______ _______ _____ _____    ______ ____
ROOT
ATOM      1  C   UNL     1       4.811   6.177  17.306  0.00  0.00    +0.000 A 
ATOM      2  C   UNL     1       5.984   6.794  16.912  0.00  0.00    +0.000 A 
ATOM      3 CL   UNL     1       6.419   8.367  17.468  0.00  0.00    +0.000 Cl
ATOM      4  N   UNL     1       6.935   6.265  16.101  0.00  0.00    +0.000 NA
ATOM      5  C   UNL     1       6.695   5.044  15.641  0.00  0.00    +0.000 A 
ATOM      6  N   UNL     1       7.584   4.451  14.775  0.00  0.00    +0.000 N 
ATOM      7  N   UNL     1       5.639   4.325  16.000  0.00  0.00    +0.000 NA
ATOM      8  C   UNL     1       4.731   4.876  16.823  0.00  0.00    +0.000 A 
ATOM      9  H   UNL     1       8.516   4.830  14.855  0.00  0.00    +0.000 HD
ATOM     10  H   UNL     1       7.492   3.443  14.793  0.00  0.00    +0.000 HD
ENDROOT
BRANCH   1  12
ATOM     11  C   UNL     1       2.869   7.365  18.711  0.00  0.00    +0.000 C 
ATOM     12  C   UNL     1       3.748   6.812  18.083  0.00  0.00    +0.000 C 
BRANCH  11  20
ATOM     13  C   UNL     1       1.458   6.175  21.197  0.00  0.00    +0.000 C 
ATOM     14  C   UNL     1       1.309   7.591  20.707  0.00  0.00    +0.000 A 
ATOM     15  C   UNL     1       0.506   8.430  21.505  0.00  0.00    +0.000 A 
ATOM     16  C   UNL     1       0.259   9.722  21.095  0.00  0.00    +0.000 A 
ATOM     17  N   UNL     1       0.713  10.209  19.933  0.00  0.00    +0.000 NA
ATOM     18  C   UNL     1       1.493   9.405  19.155  0.00  0.00    +0.000 A 
ATOM     19  C   UNL     1       1.829  10.009  17.825  0.00  0.00    +0.000 C 
ATOM     20  C   UNL     1       1.891   8.101  19.521  0.00  0.00    +0.000 A 
ENDBRANCH  11  20
ENDBRANCH   1  12
BRANCH   8  21
ATOM     21  N   UNL     1       3.707   4.032  17.251  0.00  0.00    +0.000 N 
ATOM     22  H   UNL     1       3.171   4.561  17.940  0.00  0.00    +0.000 HD
BRANCH  21  23
ATOM     23  C   UNL     1       4.083   2.706  17.771  0.00  0.00    +0.000 C 
ATOM     24  C   UNL     1       2.866   1.756  17.825  0.00  0.00    +0.000 C 
ATOM     25  C   UNL     1       2.164   2.031  19.174  0.00  0.00    +0.000 C 
ATOM     26  C   UNL     1       2.991   3.151  19.823  0.00  0.00    +0.000 C 
ATOM     27  C   UNL     1       4.406   2.916  19.257  0.00  0.00    +0.000 C 
BRANCH  26  28
ATOM     28  O   UNL     1       2.966   3.090  21.238  0.00  0.00    +0.000 OA
ATOM     29  H   UNL     1       3.632   2.429  21.506  0.00  0.00    +0.000 HD
ENDBRANCH  26  28
BRANCH  27  30
ATOM     30  O   UNL     1       5.052   1.794  19.862  0.00  0.00    +0.000 OA
ATOM     31  H   UNL     1       4.558   1.525  20.655  0.00  0.00    +0.000 HD
ENDBRANCH  27  30
BRANCH  25  32
ATOM     32  C   UNL     1       0.685   2.344  18.972  0.00  0.00    +0.000 C 
BRANCH  32  33
ATOM     33  O   UNL     1       0.215   3.121  20.075  0.00  0.00    +0.000 OA
ATOM     34  H   UNL     1       0.566   2.734  20.895  0.00  0.00    +0.000 HD
ENDBRANCH  32  33
ENDBRANCH  25  32
ENDBRANCH  21  23
ENDBRANCH   8  21
TORSDOF 8
ENDMDL
MODEL 5
REMARK VINA RESULT:      -7.7      3.332      6.739
REMARK  Name = 
REMARK  10 active torsions:
REMARK  status: ('A' for Active; 'I' for Inactive)
REMARK    1  A    between atoms: C_1  and  C_2
REMARK    2  A    between atoms: C_6  and  C_7
REMARK    3  A    between atoms: C_8  and  C_9
REMARK    4  A    between atoms: C_10  and  C_11
REMARK    5  A    between atoms: C_18  and  N_19
REMARK    6  A    between atoms: N_19  and  C_20
REMARK    7  A    between atoms: C_22  and  C_23
REMARK    8  A    between atoms: C_23  and  O_24
REMARK    9  A    between atoms: C_25  and  O_26
REMARK   10  A    between atoms: C_27  and  O_28
REMARK                            x       y       z     vdW  Elec       q    Type
REMARK                         _______ _______ _______ _____ _____    ______ ____
ROOT
ATOM      1  C   UNL     1       2.703   4.578  19.039  0.00  0.00    +0.000 A 
ATOM      2  C   UNL     1       2.039   3.458  19.503  0.00  0.00    +0.000 A 
ATOM      3 CL   UNL     1       0.538   3.570  20.344  0.00  0.00    +0.000 Cl
ATOM      4  N   UNL     1       2.431   2.169  19.340  0.00  0.00    +0.000 NA
ATOM      5  C   UNL     1       3.569   1.985  18.683  0.00  0.00    +0.000 A 
ATOM      6  N   UNL     1       4.064   0.713  18.514  0.00  0.00    +0.000 N 
ATOM      7  N   UNL     1       4.261   2.974  18.132  0.00  0.00    +0.000 NA
ATOM      8  C   UNL     1       3.828   4.236  18.296  0.00  0.00    +0.000 A 
ATOM      9  H   UNL     1       3.346   0.005  18.571  0.00  0.00    +0.000 HD
ATOM     10  H   UNL     1       4.693   0.669  17.723  0.00  0.00    +0.000 HD
ENDROOT
BRANCH   1  12
ATOM     11  C   UNL     1       1.979   7.100  19.563  0.00  0.00    +0.000 C 
ATOM     12  C   UNL     1       2.323   5.960  19.329  0.00  0.00    +0.000 C 
BRANCH  11  20
ATOM     13  C   UNL     1       0.409   8.128  22.027  0.00  0.00    +0.000 C 
ATOM     14  C   UNL     1       0.905   8.984  20.892  0.00  0.00    +0.000 A 
ATOM     15  C   UNL     1       0.675  10.368  21.028  0.00  0.00    +0.000 A 
ATOM     16  C   UNL     1       1.034  11.218  20.005  0.00  0.00    +0.000 A 
ATOM     17  N   UNL     1       1.555  10.780  18.852  0.00  0.00    +0.000 NA
ATOM     18  C   UNL     1       1.785   9.443  18.712  0.00  0.00    +0.000 A 
ATOM     19  C   UNL     1       2.242   9.058  17.338  0.00  0.00    +0.000 C 
ATOM     20  C   UNL     1       1.547   8.493  19.729  0.00  0.00    +0.000 A 
ENDBRANCH  11  20
ENDBRANCH   1  12
BRANCH   8  21
ATOM     21  N   UNL     1       4.533   5.216  17.601  0.00  0.00    +0.000 N 
ATOM     22  H   UNL     1       3.862   5.661  16.974  0.00  0.00    +0.000 HD
BRANCH  21  23
ATOM     23  C   UNL     1       5.748   4.804  16.877  0.00  0.00    +0.000 C 
ATOM     24  C   UNL     1       6.890   4.443  17.853  0.00  0.00    +0.000 C 
ATOM     25  C   UNL     1       7.603   5.772  18.191  0.00  0.00    +0.000 C 
ATOM     26  C   UNL     1       6.818   6.843  17.420  0.00  0.00    +0.000 C 
ATOM     27  C   UNL     1       6.280   6.073  16.197  0.00  0.00    +0.000 C 
BRANCH  26  28
ATOM     28  O   UNL     1       7.630   7.941  17.044  0.00  0.00    +0.000 OA
ATOM     29  H   UNL     1       7.779   8.475  17.848  0.00  0.00    +0.000 HD
ENDBRANCH  26  28
BRANCH  27  30
ATOM     30  O   UNL     1       7.298   5.814  15.229  0.00  0.00    +0.000 OA
ATOM     31  H   UNL     1       7.215   4.900  14.908  0.00  0.00    +0.000 HD
ENDBRANCH  27  30
BRANCH  25  32
ATOM     32  C   UNL     1       7.688   5.983  19.700  0.00  0.00    +0.000 C 
BRANCH  32  33
ATOM     33  O   UNL     1       8.690   5.120  20.239  0.00  0.00    +0.000 OA
ATOM     34  H   UNL     1       8.856   4.405  19.601  0.00  0.00    +0.000 HD
ENDBRANCH  32  33
ENDBRANCH  25  32
ENDBRANCH  21  23
ENDBRANCH   8  21
TORSDOF 8
ENDMDL
MODEL 6
REMARK VINA RESULT:      -7.6      1.762      6.159
REMARK  Name = 
REMARK  10 active torsions:
REMARK  status: ('A' for Active; 'I' for Inactive)
REMARK    1  A    between atoms: C_1  and  C_2
REMARK    2  A    between atoms: C_6  and  C_7
REMARK    3  A    between atoms: C_8  and  C_9
REMARK    4  A    between atoms: C_10  and  C_11
REMARK    5  A    between atoms: C_18  and  N_19
REMARK    6  A    between atoms: N_19  and  C_20
REMARK    7  A    between atoms: C_22  and  C_23
REMARK    8  A    between atoms: C_23  and  O_24
REMARK    9  A    between atoms: C_25  and  O_26
REMARK   10  A    between atoms: C_27  and  O_28
REMARK                            x       y       z     vdW  Elec       q    Type
REMARK                         _______ _______ _______ _____ _____    ______ ____
ROOT
ATOM      1  C   UNL     1       4.749   6.258  17.241  0.00  0.00    +0.000 A 
ATOM      2  C   UNL     1       5.940   6.845  16.853  0.00  0.00    +0.000 A 
ATOM      3 CL   UNL     1       6.413   8.406  17.411  0.00  0.00    +0.000 Cl
ATOM      4  N   UNL     1       6.880   6.291  16.047  0.00  0.00    +0.000 NA
ATOM      5  C   UNL     1       6.611   5.077  15.586  0.00  0.00    +0.000 A 
ATOM      6  N   UNL     1       7.488   4.460  14.724  0.00  0.00    +0.000 N 
ATOM      7  N   UNL     1       5.535   4.385  15.940  0.00  0.00    +0.000 NA
ATOM      8  C   UNL     1       4.637   4.960  16.758  0.00  0.00    +0.000 A 
ATOM      9  H   UNL     1       8.429   4.815  14.809  0.00  0.00    +0.000 HD
ATOM     10  H   UNL     1       7.370   3.455  14.742  0.00  0.00    +0.000 HD
ENDROOT
BRANCH   1  12
ATOM     11  C   UNL     1       2.823   7.491  18.629  0.00  0.00    +0.000 C 
ATOM     12  C   UNL     1       3.699   6.922  18.013  0.00  0.00    +0.000 C 
BRANCH  11  20
ATOM     13  C   UNL     1       2.047  10.407  17.933  0.00  0.00    +0.000 C 
ATOM     14  C   UNL     1       1.417   9.575  19.017  0.00  0.00    +0.000 A 
ATOM     15  C   UNL     1       0.347  10.182  19.707  0.00  0.00    +0.000 A 
ATOM     16  C   UNL     1      -0.243   9.519  20.760  0.00  0.00    +0.000 A 
ATOM     17  N   UNL     1       0.188   8.329  21.197  0.00  0.00    +0.000 NA
ATOM     18  C   UNL     1       1.221   7.732  20.534  0.00  0.00    +0.000 A 
ATOM     19  C   UNL     1       1.702   6.474  21.191  0.00  0.00    +0.000 C 
ATOM     20  C   UNL     1       1.836   8.273  19.384  0.00  0.00    +0.000 A 
ENDBRANCH  11  20
ENDBRANCH   1  12
BRANCH   8  21
ATOM     21  N   UNL     1       3.589   4.144  17.181  0.00  0.00    +0.000 N 
ATOM     22  H   UNL     1       3.082   4.674  17.890  0.00  0.00    +0.000 HD
BRANCH  21  23
ATOM     23  C   UNL     1       3.924   2.793  17.665  0.00  0.00    +0.000 C 
ATOM     24  C   UNL     1       2.663   1.907  17.779  0.00  0.00    +0.000 C 
ATOM     25  C   UNL     1       2.056   2.200  19.170  0.00  0.00    +0.000 C 
ATOM     26  C   UNL     1       2.977   3.267  19.780  0.00  0.00    +0.000 C 
ATOM     27  C   UNL     1       4.343   2.966  19.131  0.00  0.00    +0.000 C 
BRANCH  26  28
ATOM     28  O   UNL     1       3.030   3.188  21.194  0.00  0.00    +0.000 OA
ATOM     29  H   UNL     1       2.765   2.281  21.439  0.00  0.00    +0.000 HD
ENDBRANCH  26  28
BRANCH  27  30
ATOM     30  O   UNL     1       4.963   1.804  19.685  0.00  0.00    +0.000 OA
ATOM     31  H   UNL     1       5.903   1.788  19.435  0.00  0.00    +0.000 HD
ENDBRANCH  27  30
BRANCH  25  32
ATOM     32  C   UNL     1       0.586   2.592  19.057  0.00  0.00    +0.000 C 
BRANCH  32  33
ATOM     33  O   UNL     1       0.234   3.414  20.171  0.00  0.00    +0.000 OA
ATOM     34  H   UNL     1      -0.723   3.586  20.136  0.00  0.00    +0.000 HD
ENDBRANCH  32  33
ENDBRANCH  25  32
ENDBRANCH  21  23
ENDBRANCH   8  21
TORSDOF 8
ENDMDL
MODEL 7
REMARK VINA RESULT:      -7.6      3.132      6.708
REMARK  Name = 
REMARK  10 active torsions:
REMARK  status: ('A' for Active; 'I' for Inactive)
REMARK    1  A    between atoms: C_1  and  C_2
REMARK    2  A    between atoms: C_6  and  C_7
REMARK    3  A    between atoms: C_8  and  C_9
REMARK    4  A    between atoms: C_10  and  C_11
REMARK    5  A    between atoms: C_18  and  N_19
REMARK    6  A    between atoms: N_19  and  C_20
REMARK    7  A    between atoms: C_22  and  C_23
REMARK    8  A    between atoms: C_23  and  O_24
REMARK    9  A    between atoms: C_25  and  O_26
REMARK   10  A    between atoms: C_27  and  O_28
REMARK                            x       y       z     vdW  Elec       q    Type
REMARK                         _______ _______ _______ _____ _____    ______ ____
ROOT
ATOM      1  C   UNL     1       3.257   4.477  20.051  0.00  0.00    +0.000 A 
ATOM      2  C   UNL     1       2.695   3.362  20.645  0.00  0.00    +0.000 A 
ATOM      3 CL   UNL     1       1.070   3.357  21.222  0.00  0.00    +0.000 Cl
ATOM      4  N   UNL     1       3.295   2.157  20.819  0.00  0.00    +0.000 NA
ATOM      5  C   UNL     1       4.545   2.061  20.383  0.00  0.00    +0.000 A 
ATOM      6  N   UNL     1       5.245   0.890  20.562  0.00  0.00    +0.000 N 
ATOM      7  N   UNL     1       5.169   3.038  19.738  0.00  0.00    +0.000 NA
ATOM      8  C   UNL     1       4.533   4.210  19.566  0.00  0.00    +0.000 A 
ATOM      9  H   UNL     1       4.640   0.089  20.666  0.00  0.00    +0.000 HD
ATOM     10  H   UNL     1       6.002   0.814  19.895  0.00  0.00    +0.000 HD
ENDROOT
BRANCH   1  12
ATOM     11  C   UNL     1       2.109   6.888  19.898  0.00  0.00    +0.000 C 
ATOM     12  C   UNL     1       2.632   5.797  19.984  0.00  0.00    +0.000 C 
BRANCH  11  20
ATOM     13  C   UNL     1       0.120   8.198  21.877  0.00  0.00    +0.000 C 
ATOM     14  C   UNL     1       0.729   8.877  20.680  0.00  0.00    +0.000 A 
ATOM     15  C   UNL     1       0.395  10.237  20.514  0.00  0.00    +0.000 A 
ATOM     16  C   UNL     1       0.853  10.918  19.408  0.00  0.00    +0.000 A 
ATOM     17  N   UNL     1       1.571  10.327  18.444  0.00  0.00    +0.000 NA
ATOM     18  C   UNL     1       1.902   9.013  18.595  0.00  0.00    +0.000 A 
ATOM     19  C   UNL     1       2.587   8.429  17.397  0.00  0.00    +0.000 C 
ATOM     20  C   UNL     1       1.571   8.244  19.733  0.00  0.00    +0.000 A 
ENDBRANCH  11  20
ENDBRANCH   1  12
BRANCH   8  21
ATOM     21  N   UNL     1       5.196   5.154  18.785  0.00  0.00    +0.000 N 
ATOM     22  H   UNL     1       4.476   5.774  18.413  0.00  0.00    +0.000 HD
BRANCH  21  23
ATOM     23  C   UNL     1       6.079   4.660  17.714  0.00  0.00    +0.000 C 
ATOM     24  C   UNL     1       7.377   5.494  17.624  0.00  0.00    +0.000 C 
ATOM     25  C   UNL     1       7.047   6.707  16.725  0.00  0.00    +0.000 C 
ATOM     26  C   UNL     1       5.564   6.534  16.364  0.00  0.00    +0.000 C 
ATOM     27  C   UNL     1       5.371   5.004  16.397  0.00  0.00    +0.000 C 
BRANCH  26  28
ATOM     28  O   UNL     1       5.250   7.084  15.097  0.00  0.00    +0.000 OA
ATOM     29  H   UNL     1       4.293   6.950  14.958  0.00  0.00    +0.000 HD
ENDBRANCH  26  28
BRANCH  27  30
ATOM     30  O   UNL     1       5.946   4.360  15.258  0.00  0.00    +0.000 OA
ATOM     31  H   UNL     1       5.259   3.853  14.791  0.00  0.00    +0.000 HD
ENDBRANCH  27  30
BRANCH  25  32
ATOM     32  C   UNL     1       7.402   8.019  17.418  0.00  0.00    +0.000 C 
BRANCH  32  33
ATOM     33  O   UNL     1       8.325   7.756  18.476  0.00  0.00    +0.000 OA
ATOM     34  H   UNL     1       9.187   8.134  18.233  0.00  0.00    +0.000 HD
ENDBRANCH  32  33
ENDBRANCH  25  32
ENDBRANCH  21  23
ENDBRANCH   8  21
TORSDOF 8
ENDMDL
MODEL 8
REMARK VINA RESULT:      -7.6      3.119      6.731
REMARK  Name = 
REMARK  10 active torsions:
REMARK  status: ('A' for Active; 'I' for Inactive)
REMARK    1  A    between atoms: C_1  and  C_2
REMARK    2  A    between atoms: C_6  and  C_7
REMARK    3  A    between atoms: C_8  and  C_9
REMARK    4  A    between atoms: C_10  and  C_11
REMARK    5  A    between atoms: C_18  and  N_19
REMARK    6  A    between atoms: N_19  and  C_20
REMARK    7  A    between atoms: C_22  and  C_23
REMARK    8  A    between atoms: C_23  and  O_24
REMARK    9  A    between atoms: C_25  and  O_26
REMARK   10  A    between atoms: C_27  and  O_28
REMARK                            x       y       z     vdW  Elec       q    Type
REMARK                         _______ _______ _______ _____ _____    ______ ____
ROOT
ATOM      1  C   UNL     1       3.314   4.491  20.067  0.00  0.00    +0.000 A 
ATOM      2  C   UNL     1       2.730   3.385  20.657  0.00  0.00    +0.000 A 
ATOM      3 CL   UNL     1       1.101   3.405  21.220  0.00  0.00    +0.000 Cl
ATOM      4  N   UNL     1       3.312   2.173  20.837  0.00  0.00    +0.000 NA
ATOM      5  C   UNL     1       4.563   2.058  20.413  0.00  0.00    +0.000 A 
ATOM      6  N   UNL     1       5.245   0.877  20.599  0.00  0.00    +0.000 N 
ATOM      7  N   UNL     1       5.207   3.025  19.772  0.00  0.00    +0.000 NA
ATOM      8  C   UNL     1       4.589   4.205  19.593  0.00  0.00    +0.000 A 
ATOM      9  H   UNL     1       4.628   0.085  20.700  0.00  0.00    +0.000 HD
ATOM     10  H   UNL     1       6.006   0.789  19.939  0.00  0.00    +0.000 HD
ENDROOT
BRANCH   1  12
ATOM     11  C   UNL     1       2.192   6.914  19.904  0.00  0.00    +0.000 C 
ATOM     12  C   UNL     1       2.709   5.820  19.991  0.00  0.00    +0.000 C 
BRANCH  11  20
ATOM     13  C   UNL     1       2.629   8.587  17.335  0.00  0.00    +0.000 C 
ATOM     14  C   UNL     1       1.760   8.989  18.497  0.00  0.00    +0.000 A 
ATOM     15  C   UNL     1       1.054  10.199  18.340  0.00  0.00    +0.000 A 
ATOM     16  C   UNL     1       0.289  10.677  19.381  0.00  0.00    +0.000 A 
ATOM     17  N   UNL     1       0.222  10.063  20.569  0.00  0.00    +0.000 NA
ATOM     18  C   UNL     1       0.900   8.890  20.730  0.00  0.00    +0.000 A 
ATOM     19  C   UNL     1       0.859   8.366  22.134  0.00  0.00    +0.000 C 
ATOM     20  C   UNL     1       1.634   8.257  19.703  0.00  0.00    +0.000 A 
ENDBRANCH  11  20
ENDBRANCH   1  12
BRANCH   8  21
ATOM     21  N   UNL     1       5.273   5.138  18.816  0.00  0.00    +0.000 N 
ATOM     22  H   UNL     1       4.570   5.793  18.472  0.00  0.00    +0.000 HD
BRANCH  21  23
ATOM     23  C   UNL     1       6.115   4.632  17.717  0.00  0.00    +0.000 C 
ATOM     24  C   UNL     1       7.427   5.439  17.595  0.00  0.00    +0.000 C 
ATOM     25  C   UNL     1       7.098   6.664  16.712  0.00  0.00    +0.000 C 
ATOM     26  C   UNL     1       5.602   6.525  16.393  0.00  0.00    +0.000 C 
ATOM     27  C   UNL     1       5.376   4.999  16.423  0.00  0.00    +0.000 C 
BRANCH  26  28
ATOM     28  O   UNL     1       5.263   7.089  15.138  0.00  0.00    +0.000 OA
ATOM     29  H   UNL     1       4.461   6.628  14.826  0.00  0.00    +0.000 HD
ENDBRANCH  26  28
BRANCH  27  30
ATOM     30  O   UNL     1       5.905   4.350  15.264  0.00  0.00    +0.000 OA
ATOM     31  H   UNL     1       6.876   4.343  15.312  0.00  0.00    +0.000 HD
ENDBRANCH  27  30
BRANCH  25  32
ATOM     32  C   UNL     1       7.501   7.964  17.402  0.00  0.00    +0.000 C 
BRANCH  32  33
ATOM     33  O   UNL     1       8.306   7.660  18.542  0.00  0.00    +0.000 OA
ATOM     34  H   UNL     1       7.929   6.880  18.985  0.00  0.00    +0.000 HD
ENDBRANCH  32  33
ENDBRANCH  25  32
ENDBRANCH  21  23
ENDBRANCH   8  21
TORSDOF 8
ENDMDL
MODEL 9
REMARK VINA RESULT:      -7.6      1.927      5.950
REMARK  Name = 
REMARK  10 active torsions:
REMARK  status: ('A' for Active; 'I' for Inactive)
REMARK    1  A    between atoms: C_1  and  C_2
REMARK    2  A    between atoms: C_6  and  C_7
REMARK    3  A    between atoms: C_8  and  C_9
REMARK    4  A    between atoms: C_10  and  C_11
REMARK    5  A    between atoms: C_18  and  N_19
REMARK    6  A    between atoms: N_19  and  C_20
REMARK    7  A    between atoms: C_22  and  C_23
REMARK    8  A    between atoms: C_23  and  O_24
REMARK    9  A    between atoms: C_25  and  O_26
REMARK   10  A    between atoms: C_27  and  O_28
REMARK                            x       y       z     vdW  Elec       q    Type
REMARK                         _______ _______ _______ _____ _____    ______ ____
ROOT
ATOM      1  C   UNL     1       4.199   5.940  17.322  0.00  0.00    +0.000 A 
ATOM      2  C   UNL     1       5.450   6.236  16.814  0.00  0.00    +0.000 A 
ATOM      3 CL   UNL     1       6.252   7.720  17.169  0.00  0.00    +0.000 Cl
ATOM      4  N   UNL     1       6.209   5.427  16.032  0.00  0.00    +0.000 NA
ATOM      5  C   UNL     1       5.679   4.250  15.725  0.00  0.00    +0.000 A 
ATOM      6  N   UNL     1       6.359   3.387  14.897  0.00  0.00    +0.000 N 
ATOM      7  N   UNL     1       4.517   3.826  16.205  0.00  0.00    +0.000 NA
ATOM      8  C   UNL     1       3.805   4.648  16.995  0.00  0.00    +0.000 A 
ATOM      9  H   UNL     1       7.355   3.555  14.896  0.00  0.00    +0.000 HD
ATOM     10  H   UNL     1       6.052   2.433  15.034  0.00  0.00    +0.000 HD
ENDROOT
BRANCH   1  12
ATOM     11  C   UNL     1       2.665   7.643  18.703  0.00  0.00    +0.000 C 
ATOM     12  C   UNL     1       3.352   6.875  18.063  0.00  0.00    +0.000 C 
BRANCH  11  20
ATOM     13  C   UNL     1       1.201   6.615  21.231  0.00  0.00    +0.000 C 
ATOM     14  C   UNL     1       1.182   8.035  20.732  0.00  0.00    +0.000 A 
ATOM     15  C   UNL     1       0.485   8.956  21.541  0.00  0.00    +0.000 A 
ATOM     16  C   UNL     1       0.358  10.263  21.126  0.00  0.00    +0.000 A 
ATOM     17  N   UNL     1       0.831  10.695  19.950  0.00  0.00    +0.000 NA
ATOM     18  C   UNL     1       1.509   9.813  19.161  0.00  0.00    +0.000 A 
ATOM     19  C   UNL     1       1.872  10.372  17.818  0.00  0.00    +0.000 C 
ATOM     20  C   UNL     1       1.783   8.478  19.529  0.00  0.00    +0.000 A 
ENDBRANCH  11  20
ENDBRANCH   1  12
BRANCH   8  21
ATOM     21  N   UNL     1       2.652   4.104  17.557  0.00  0.00    +0.000 N 
ATOM     22  H   UNL     1       2.560   4.524  18.483  0.00  0.00    +0.000 HD
BRANCH  21  23
ATOM     23  C   UNL     1       2.548   2.636  17.624  0.00  0.00    +0.000 C 
ATOM     24  C   UNL     1       1.422   2.194  18.586  0.00  0.00    +0.000 C 
ATOM     25  C   UNL     1       2.048   2.165  19.998  0.00  0.00    +0.000 C 
ATOM     26  C   UNL     1       3.500   2.623  19.791  0.00  0.00    +0.000 C 
ATOM     27  C   UNL     1       3.812   2.161  18.353  0.00  0.00    +0.000 C 
BRANCH  26  28
ATOM     28  O   UNL     1       4.386   2.054  20.738  0.00  0.00    +0.000 OA
ATOM     29  H   UNL     1       4.644   1.177  20.396  0.00  0.00    +0.000 HD
ENDBRANCH  26  28
BRANCH  27  30
ATOM     30  O   UNL     1       4.019   0.749  18.271  0.00  0.00    +0.000 OA
ATOM     31  H   UNL     1       4.578   0.460  19.012  0.00  0.00    +0.000 HD
ENDBRANCH  27  30
BRANCH  25  32
ATOM     32  C   UNL     1       1.233   3.001  20.980  0.00  0.00    +0.000 C 
BRANCH  32  33
ATOM     33  O   UNL     1       2.015   3.247  22.149  0.00  0.00    +0.000 OA
ATOM     34  H   UNL     1       2.542   2.451  22.340  0.00  0.00    +0.000 HD
ENDBRANCH  32  33
ENDBRANCH  25  32
ENDBRANCH  21  23
ENDBRANCH   8  21
TORSDOF 8
ENDMDL
