MODEL 1
REMARK VINA RESULT:      -8.1      0.000      0.000
REMARK  Name = 
REMARK  5 active torsions:
REMARK  status: ('A' for Active; 'I' for Inactive)
REMARK    1  A    between atoms: C_1  and  O_2
REMARK    2  A    between atoms: O_2  and  C_3
REMARK    3  A    between atoms: C_8  and  C_9
REMARK    4  A    between atoms: N_12  and  N_13
REMARK    5  A    between atoms: C_14  and  C_15
REMARK                            x       y       z     vdW  Elec       q    Type
REMARK                         _______ _______ _______ _____ _____    ______ ____
ROOT
ATOM      1  C   UNL     1       4.907   5.235  16.480  0.00  0.00    +0.000 A 
ATOM      2  C   UNL     1       4.992   3.846  16.580  0.00  0.00    +0.000 A 
ATOM      3  C   UNL     1       4.302   3.165  17.586  0.00  0.00    +0.000 A 
ATOM      4  C   UNL     1       3.511   3.864  18.502  0.00  0.00    +0.000 A 
ATOM      5  N   UNL     1       2.814   3.172  19.498  0.00  0.00    +0.000 N 
ATOM      6  C   UNL     1       1.985   3.817  20.383  0.00  0.00    +0.000 A 
ATOM      7  C   UNL     1       1.242   2.982  21.388  0.00  0.00    +0.000 C 
ATOM      8  C   UNL     1       1.823   5.149  20.373  0.00  0.00    +0.000 A 
ATOM      9  C   UNL     1       2.560   6.002  19.379  0.00  0.00    +0.000 A 
ATOM     10  N   UNL     1       2.482   7.302  19.326  0.00  0.00    +0.000 NA
ATOM     11  C   UNL     1       3.422   5.263  18.401  0.00  0.00    +0.000 A 
ATOM     12  C   UNL     1       4.119   5.945  17.394  0.00  0.00    +0.000 A 
ATOM     13  H   UNL     1       2.894   2.165  19.546  0.00  0.00    +0.000 HD
ENDROOT
BRANCH   1  15
ATOM     14  C   UNL     1       6.345   5.316  14.591  0.00  0.00    +0.000 C 
ATOM     15  O   UNL     1       5.538   6.003  15.540  0.00  0.00    +0.000 OA
ENDBRANCH   1  15
BRANCH  10  16
ATOM     16  N   UNL     1       1.621   7.835  20.281  0.00  0.00    +0.000 NA
ATOM     17  C   UNL     1       1.304   9.064  20.041  0.00  0.00    +0.000 C 
BRANCH  17  18
ATOM     18  C   UNL     1       0.352   9.773  20.921  0.00  0.00    +0.000 A 
ATOM     19  C   UNL     1      -0.359  10.881  20.442  0.00  0.00    +0.000 A 
ATOM     20  C   UNL     1      -1.211  11.589  21.292  0.00  0.00    +0.000 A 
ATOM     21  C   UNL     1      -1.351  11.182  22.616  0.00  0.00    +0.000 A 
ATOM     22 CL   UNL     1      -2.376  12.073  23.675  0.00  0.00    +0.000 Cl
ATOM     23  C   UNL     1      -0.661  10.067  23.094  0.00  0.00    +0.000 A 
ATOM     24  C   UNL     1       0.195   9.356  22.245  0.00  0.00    +0.000 A 
ENDBRANCH  17  18
ENDBRANCH  10  16
TORSDOF 3
ENDMDL
MODEL 2
REMARK VINA RESULT:      -8.0      2.549      3.044
REMARK  Name = 
REMARK  5 active torsions:
REMARK  status: ('A' for Active; 'I' for Inactive)
REMARK    1  A    between atoms: C_1  and  O_2
REMARK    2  A    between atoms: O_2  and  C_3
REMARK    3  A    between atoms: C_8  and  C_9
REMARK    4  A    between atoms: N_12  and  N_13
REMARK    5  A    between atoms: C_14  and  C_15
REMARK                            x       y       z     vdW  Elec       q    Type
REMARK                         _______ _______ _______ _____ _____    ______ ____
ROOT
ATOM      1  C   UNL     1       6.985   6.598  17.334  0.00  0.00    +0.000 A 
ATOM      2  C   UNL     1       7.219   5.239  17.544  0.00  0.00    +0.000 A 
ATOM      3  C   UNL     1       6.167   4.382  17.874  0.00  0.00    +0.000 A 
ATOM      4  C   UNL     1       4.863   4.871  17.990  0.00  0.00    +0.000 A 
ATOM      5  N   UNL     1       3.813   4.003  18.308  0.00  0.00    +0.000 N 
ATOM      6  C   UNL     1       2.512   4.435  18.380  0.00  0.00    +0.000 A 
ATOM      7  C   UNL     1       1.448   3.418  18.683  0.00  0.00    +0.000 C 
ATOM      8  C   UNL     1       2.172   5.719  18.188  0.00  0.00    +0.000 A 
ATOM      9  C   UNL     1       3.221   6.752  17.889  0.00  0.00    +0.000 A 
ATOM     10  N   UNL     1       2.976   8.022  17.724  0.00  0.00    +0.000 NA
ATOM     11  C   UNL     1       4.624   6.240  17.776  0.00  0.00    +0.000 A 
ATOM     12  C   UNL     1       5.683   7.099  17.449  0.00  0.00    +0.000 A 
ATOM     13  H   UNL     1       4.013   3.023  18.456  0.00  0.00    +0.000 HD
ENDROOT
BRANCH   1  15
ATOM     14  C   UNL     1       7.996   8.692  17.823  0.00  0.00    +0.000 C 
ATOM     15  O   UNL     1       7.936   7.527  17.009  0.00  0.00    +0.000 OA
ENDBRANCH   1  15
BRANCH  10  16
ATOM     16  N   UNL     1       1.624   8.334  17.832  0.00  0.00    +0.000 NA
ATOM     17  C   UNL     1       1.418   9.551  18.213  0.00  0.00    +0.000 C 
BRANCH  17  18
ATOM     18  C   UNL     1       0.041  10.074  18.328  0.00  0.00    +0.000 A 
ATOM     19  C   UNL     1      -0.956   9.631  17.450  0.00  0.00    +0.000 A 
ATOM     20  C   UNL     1      -2.242  10.171  17.518  0.00  0.00    +0.000 A 
ATOM     21  C   UNL     1      -2.525  11.149  18.468  0.00  0.00    +0.000 A 
ATOM     22 CL   UNL     1      -4.100  11.841  18.532  0.00  0.00    +0.000 Cl
ATOM     23  C   UNL     1      -1.540  11.581  19.359  0.00  0.00    +0.000 A 
ATOM     24  C   UNL     1      -0.251  11.042  19.292  0.00  0.00    +0.000 A 
ENDBRANCH  17  18
ENDBRANCH  10  16
TORSDOF 3
ENDMDL
MODEL 3
REMARK VINA RESULT:      -8.0      2.467      2.969
REMARK  Name = 
REMARK  5 active torsions:
REMARK  status: ('A' for Active; 'I' for Inactive)
REMARK    1  A    between atoms: C_1  and  O_2
REMARK    2  A    between atoms: O_2  and  C_3
REMARK    3  A    between atoms: C_8  and  C_9
REMARK    4  A    between atoms: N_12  and  N_13
REMARK    5  A    between atoms: C_14  and  C_15
REMARK                            x       y       z     vdW  Elec       q    Type
REMARK                         _______ _______ _______ _____ _____    ______ ____
ROOT
ATOM      1  C   UNL     1       6.917   6.394  17.087  0.00  0.00    +0.000 A 
ATOM      2  C   UNL     1       7.066   5.007  17.122  0.00  0.00    +0.000 A 
ATOM      3  C   UNL     1       5.970   4.184  17.398  0.00  0.00    +0.000 A 
ATOM      4  C   UNL     1       4.709   4.738  17.635  0.00  0.00    +0.000 A 
ATOM      5  N   UNL     1       3.616   3.906  17.897  0.00  0.00    +0.000 N 
ATOM      6  C   UNL     1       2.351   4.407  18.082  0.00  0.00    +0.000 A 
ATOM      7  C   UNL     1       1.233   3.430  18.312  0.00  0.00    +0.000 C 
ATOM      8  C   UNL     1       2.093   5.724  18.062  0.00  0.00    +0.000 A 
ATOM      9  C   UNL     1       3.198   6.717  17.837  0.00  0.00    +0.000 A 
ATOM     10  N   UNL     1       3.035   8.011  17.837  0.00  0.00    +0.000 NA
ATOM     11  C   UNL     1       4.557   6.135  17.597  0.00  0.00    +0.000 A 
ATOM     12  C   UNL     1       5.658   6.958  17.325  0.00  0.00    +0.000 A 
ATOM     13  H   UNL     1       3.753   2.904  17.917  0.00  0.00    +0.000 HD
ENDROOT
BRANCH   1  15
ATOM     14  C   UNL     1       7.956   8.456  17.649  0.00  0.00    +0.000 C 
ATOM     15  O   UNL     1       7.916   7.292  16.830  0.00  0.00    +0.000 OA
ENDBRANCH   1  15
BRANCH  10  16
ATOM     16  N   UNL     1       1.713   8.393  18.047  0.00  0.00    +0.000 NA
ATOM     17  C   UNL     1       1.568   9.673  18.141  0.00  0.00    +0.000 C 
BRANCH  17  18
ATOM     18  C   UNL     1       0.224  10.261  18.308  0.00  0.00    +0.000 A 
ATOM     19  C   UNL     1       0.016  11.295  19.229  0.00  0.00    +0.000 A 
ATOM     20  C   UNL     1      -1.267  11.808  19.431  0.00  0.00    +0.000 A 
ATOM     21  C   UNL     1      -2.336  11.287  18.708  0.00  0.00    +0.000 A 
ATOM     22 CL   UNL     1      -3.923  11.894  18.979  0.00  0.00    +0.000 Cl
ATOM     23  C   UNL     1      -2.132  10.269  17.773  0.00  0.00    +0.000 A 
ATOM     24  C   UNL     1      -0.848   9.753  17.569  0.00  0.00    +0.000 A 
ENDBRANCH  17  18
ENDBRANCH  10  16
TORSDOF 3
ENDMDL
MODEL 4
REMARK VINA RESULT:      -7.9      0.389      1.082
REMARK  Name = 
REMARK  5 active torsions:
REMARK  status: ('A' for Active; 'I' for Inactive)
REMARK    1  A    between atoms: C_1  and  O_2
REMARK    2  A    between atoms: O_2  and  C_3
REMARK    3  A    between atoms: C_8  and  C_9
REMARK    4  A    between atoms: N_12  and  N_13
REMARK    5  A    between atoms: C_14  and  C_15
REMARK                            x       y       z     vdW  Elec       q    Type
REMARK                         _______ _______ _______ _____ _____    ______ ____
ROOT
ATOM      1  C   UNL     1       4.627   4.786  16.533  0.00  0.00    +0.000 A 
ATOM      2  C   UNL     1       4.660   3.401  16.696  0.00  0.00    +0.000 A 
ATOM      3  C   UNL     1       4.011   2.800  17.778  0.00  0.00    +0.000 A 
ATOM      4  C   UNL     1       3.315   3.577  18.708  0.00  0.00    +0.000 A 
ATOM      5  N   UNL     1       2.658   2.966  19.781  0.00  0.00    +0.000 N 
ATOM      6  C   UNL     1       1.919   3.689  20.685  0.00  0.00    +0.000 A 
ATOM      7  C   UNL     1       1.212   2.937  21.778  0.00  0.00    +0.000 C 
ATOM      8  C   UNL     1       1.814   5.025  20.619  0.00  0.00    +0.000 A 
ATOM      9  C   UNL     1       2.517   5.795  19.537  0.00  0.00    +0.000 A 
ATOM     10  N   UNL     1       2.491   7.094  19.424  0.00  0.00    +0.000 NA
ATOM     11  C   UNL     1       3.278   4.973  18.543  0.00  0.00    +0.000 A 
ATOM     12  C   UNL     1       3.934   5.573  17.459  0.00  0.00    +0.000 A 
ATOM     13  H   UNL     1       2.699   1.960  19.875  0.00  0.00    +0.000 HD
ENDROOT
BRANCH   1  15
ATOM     14  C   UNL     1       6.648   5.484  15.496  0.00  0.00    +0.000 C 
ATOM     15  O   UNL     1       5.225   5.479  15.516  0.00  0.00    +0.000 OA
ENDBRANCH   1  15
BRANCH  10  16
ATOM     16  N   UNL     1       1.721   7.710  20.406  0.00  0.00    +0.000 NA
ATOM     17  C   UNL     1       1.338   8.898  20.072  0.00  0.00    +0.000 C 
BRANCH  17  18
ATOM     18  C   UNL     1       0.463   9.679  20.970  0.00  0.00    +0.000 A 
ATOM     19  C   UNL     1       0.233   9.247  22.282  0.00  0.00    +0.000 A 
ATOM     20  C   UNL     1      -0.643   9.951  23.110  0.00  0.00    +0.000 A 
ATOM     21  C   UNL     1      -1.282  11.089  22.623  0.00  0.00    +0.000 A 
ATOM     22 CL   UNL     1      -2.388  11.940  23.630  0.00  0.00    +0.000 Cl
ATOM     23  C   UNL     1      -1.042  11.536  21.322  0.00  0.00    +0.000 A 
ATOM     24  C   UNL     1      -0.165  10.832  20.490  0.00  0.00    +0.000 A 
ENDBRANCH  17  18
ENDBRANCH  10  16
TORSDOF 3
ENDMDL
MODEL 5
REMARK VINA RESULT:      -7.9      1.641      2.002
REMARK  Name = 
REMARK  5 active torsions:
REMARK  status: ('A' for Active; 'I' for Inactive)
REMARK    1  A    between atoms: C_1  and  O_2
REMARK    2  A    between atoms: O_2  and  C_3
REMARK    3  A    between atoms: C_8  and  C_9
REMARK    4  A    between atoms: N_12  and  N_13
REMARK    5  A    between atoms: C_14  and  C_15
REMARK                            x       y       z     vdW  Elec       q    Type
REMARK                         _______ _______ _______ _____ _____    ______ ____
ROOT
ATOM      1  C   UNL     1       5.525   5.232  15.792  0.00  0.00    +0.000 A 
ATOM      2  C   UNL     1       5.499   3.894  16.185  0.00  0.00    +0.000 A 
ATOM      3  C   UNL     1       4.672   3.480  17.232  0.00  0.00    +0.000 A 
ATOM      4  C   UNL     1       3.852   4.398  17.895  0.00  0.00    +0.000 A 
ATOM      5  N   UNL     1       3.018   3.972  18.933  0.00  0.00    +0.000 N 
ATOM      6  C   UNL     1       2.160   4.832  19.573  0.00  0.00    +0.000 A 
ATOM      7  C   UNL     1       1.269   4.271  20.645  0.00  0.00    +0.000 C 
ATOM      8  C   UNL     1       2.097   6.138  19.270  0.00  0.00    +0.000 A 
ATOM      9  C   UNL     1       2.982   6.720  18.204  0.00  0.00    +0.000 A 
ATOM     10  N   UNL     1       3.005   7.982  17.875  0.00  0.00    +0.000 NA
ATOM     11  C   UNL     1       3.875   5.747  17.497  0.00  0.00    +0.000 A 
ATOM     12  C   UNL     1       4.710   6.160  16.450  0.00  0.00    +0.000 A 
ATOM     13  H   UNL     1       3.020   2.996  19.197  0.00  0.00    +0.000 HD
ENDROOT
BRANCH   1  15
ATOM     14  C   UNL     1       7.054   4.818  14.020  0.00  0.00    +0.000 C 
ATOM     15  O   UNL     1       6.295   5.748  14.785  0.00  0.00    +0.000 OA
ENDBRANCH   1  15
BRANCH  10  16
ATOM     16  N   UNL     1       2.101   8.750  18.603  0.00  0.00    +0.000 NA
ATOM     17  C   UNL     1       1.177   9.270  17.865  0.00  0.00    +0.000 C 
BRANCH  17  18
ATOM     18  C   UNL     1       0.097  10.071  18.478  0.00  0.00    +0.000 A 
ATOM     19  C   UNL     1      -1.108  10.270  17.792  0.00  0.00    +0.000 A 
ATOM     20  C   UNL     1      -2.104  11.077  18.345  0.00  0.00    +0.000 A 
ATOM     21  C   UNL     1      -1.892  11.679  19.582  0.00  0.00    +0.000 A 
ATOM     22 CL   UNL     1      -3.104  12.702  20.250  0.00  0.00    +0.000 Cl
ATOM     23  C   UNL     1      -0.700  11.469  20.280  0.00  0.00    +0.000 A 
ATOM     24  C   UNL     1       0.300  10.661  19.728  0.00  0.00    +0.000 A 
ENDBRANCH  17  18
ENDBRANCH  10  16
TORSDOF 3
ENDMDL
MODEL 6
REMARK VINA RESULT:      -7.7      1.746      2.021
REMARK  Name = 
REMARK  5 active torsions:
REMARK  status: ('A' for Active; 'I' for Inactive)
REMARK    1  A    between atoms: C_1  and  O_2
REMARK    2  A    between atoms: O_2  and  C_3
REMARK    3  A    between atoms: C_8  and  C_9
REMARK    4  A    between atoms: N_12  and  N_13
REMARK    5  A    between atoms: C_14  and  C_15
REMARK                            x       y       z     vdW  Elec       q    Type
REMARK                         _______ _______ _______ _____ _____    ______ ____
ROOT
ATOM      1  C   UNL     1       5.565   5.234  15.889  0.00  0.00    +0.000 A 
ATOM      2  C   UNL     1       5.571   3.889  16.260  0.00  0.00    +0.000 A 
ATOM      3  C   UNL     1       4.734   3.434  17.282  0.00  0.00    +0.000 A 
ATOM      4  C   UNL     1       3.873   4.316  17.942  0.00  0.00    +0.000 A 
ATOM      5  N   UNL     1       3.030   3.848  18.954  0.00  0.00    +0.000 N 
ATOM      6  C   UNL     1       2.134   4.672  19.589  0.00  0.00    +0.000 A 
ATOM      7  C   UNL     1       1.238   4.067  20.633  0.00  0.00    +0.000 C 
ATOM      8  C   UNL     1       2.038   5.980  19.306  0.00  0.00    +0.000 A 
ATOM      9  C   UNL     1       2.928   6.606  18.269  0.00  0.00    +0.000 A 
ATOM     10  N   UNL     1       2.920   7.873  17.961  0.00  0.00    +0.000 NA
ATOM     11  C   UNL     1       3.864   5.671  17.566  0.00  0.00    +0.000 A 
ATOM     12  C   UNL     1       4.708   6.127  16.544  0.00  0.00    +0.000 A 
ATOM     13  H   UNL     1       3.056   2.868  19.203  0.00  0.00    +0.000 HD
ENDROOT
BRANCH   1  15
ATOM     14  C   UNL     1       7.142   4.895  14.144  0.00  0.00    +0.000 C 
ATOM     15  O   UNL     1       6.340   5.789  14.907  0.00  0.00    +0.000 OA
ENDBRANCH   1  15
BRANCH  10  16
ATOM     16  N   UNL     1       1.978   8.602  18.681  0.00  0.00    +0.000 NA
ATOM     17  C   UNL     1       1.488   9.590  18.009  0.00  0.00    +0.000 C 
BRANCH  17  18
ATOM     18  C   UNL     1       0.431  10.439  18.597  0.00  0.00    +0.000 A 
ATOM     19  C   UNL     1       0.740  11.338  19.626  0.00  0.00    +0.000 A 
ATOM     20  C   UNL     1      -0.270  12.095  20.223  0.00  0.00    +0.000 A 
ATOM     21  C   UNL     1      -1.584  11.952  19.785  0.00  0.00    +0.000 A 
ATOM     22 CL   UNL     1      -2.836  12.859  20.542  0.00  0.00    +0.000 Cl
ATOM     23  C   UNL     1      -1.896  11.073  18.746  0.00  0.00    +0.000 A 
ATOM     24  C   UNL     1      -0.886  10.312  18.146  0.00  0.00    +0.000 A 
ENDBRANCH  17  18
ENDBRANCH  10  16
TORSDOF 3
ENDMDL
MODEL 7
REMARK VINA RESULT:      -7.4      1.118      1.154
REMARK  Name = 
REMARK  5 active torsions:
REMARK  status: ('A' for Active; 'I' for Inactive)
REMARK    1  A    between atoms: C_1  and  O_2
REMARK    2  A    between atoms: O_2  and  C_3
REMARK    3  A    between atoms: C_8  and  C_9
REMARK    4  A    between atoms: N_12  and  N_13
REMARK    5  A    between atoms: C_14  and  C_15
REMARK                            x       y       z     vdW  Elec       q    Type
REMARK                         _______ _______ _______ _____ _____    ______ ____
ROOT
ATOM      1  C   UNL     1       5.903   5.469  16.687  0.00  0.00    +0.000 A 
ATOM      2  C   UNL     1       5.766   4.123  16.343  0.00  0.00    +0.000 A 
ATOM      3  C   UNL     1       4.700   3.370  16.840  0.00  0.00    +0.000 A 
ATOM      4  C   UNL     1       3.750   3.955  17.682  0.00  0.00    +0.000 A 
ATOM      5  N   UNL     1       2.678   3.197  18.164  0.00  0.00    +0.000 N 
ATOM      6  C   UNL     1       1.696   3.747  18.950  0.00  0.00    +0.000 A 
ATOM      7  C   UNL     1       0.561   2.862  19.381  0.00  0.00    +0.000 C 
ATOM      8  C   UNL     1       1.724   5.032  19.335  0.00  0.00    +0.000 A 
ATOM      9  C   UNL     1       2.853   5.932  18.919  0.00  0.00    +0.000 A 
ATOM     10  N   UNL     1       2.970   7.180  19.279  0.00  0.00    +0.000 NA
ATOM     11  C   UNL     1       3.884   5.311  18.028  0.00  0.00    +0.000 A 
ATOM     12  C   UNL     1       4.958   6.063  17.531  0.00  0.00    +0.000 A 
ATOM     13  H   UNL     1       2.605   2.223  17.898  0.00  0.00    +0.000 HD
ENDROOT
BRANCH   1  15
ATOM     14  C   UNL     1       7.355   7.282  17.187  0.00  0.00    +0.000 C 
ATOM     15  O   UNL     1       6.905   6.298  16.262  0.00  0.00    +0.000 OA
ENDBRANCH   1  15
BRANCH  10  16
ATOM     16  N   UNL     1       1.920   7.615  20.083  0.00  0.00    +0.000 NA
ATOM     17  C   UNL     1       1.877   8.900  20.201  0.00  0.00    +0.000 C 
BRANCH  17  18
ATOM     18  C   UNL     1       0.793   9.542  20.972  0.00  0.00    +0.000 A 
ATOM     19  C   UNL     1       0.032  10.569  20.399  0.00  0.00    +0.000 A 
ATOM     20  C   UNL     1      -0.951  11.217  21.150  0.00  0.00    +0.000 A 
ATOM     21  C   UNL     1      -1.171  10.832  22.470  0.00  0.00    +0.000 A 
ATOM     22 CL   UNL     1      -2.359  11.652  23.407  0.00  0.00    +0.000 Cl
ATOM     23  C   UNL     1      -0.429   9.796  23.041  0.00  0.00    +0.000 A 
ATOM     24  C   UNL     1       0.556   9.145  22.291  0.00  0.00    +0.000 A 
ENDBRANCH  17  18
ENDBRANCH  10  16
TORSDOF 3
ENDMDL
MODEL 8
REMARK VINA RESULT:      -7.2      4.260      8.098
REMARK  Name = 
REMARK  5 active torsions:
REMARK  status: ('A' for Active; 'I' for Inactive)
REMARK    1  A    between atoms: C_1  and  O_2
REMARK    2  A    between atoms: O_2  and  C_3
REMARK    3  A    between atoms: C_8  and  C_9
REMARK    4  A    between atoms: N_12  and  N_13
REMARK    5  A    between atoms: C_14  and  C_15
REMARK                            x       y       z     vdW  Elec       q    Type
REMARK                         _______ _______ _______ _____ _____    ______ ____
ROOT
ATOM      1  C   UNL     1       2.252  13.961  18.631  0.00  0.00    +0.000 A 
ATOM      2  C   UNL     1       1.647  14.422  19.801  0.00  0.00    +0.000 A 
ATOM      3  C   UNL     1       0.995  13.532  20.659  0.00  0.00    +0.000 A 
ATOM      4  C   UNL     1       0.947  12.167  20.362  0.00  0.00    +0.000 A 
ATOM      5  N   UNL     1       0.303  11.283  21.234  0.00  0.00    +0.000 N 
ATOM      6  C   UNL     1       0.280   9.929  21.005  0.00  0.00    +0.000 A 
ATOM      7  C   UNL     1      -0.397   9.055  22.023  0.00  0.00    +0.000 C 
ATOM      8  C   UNL     1       0.836   9.377  19.917  0.00  0.00    +0.000 A 
ATOM      9  C   UNL     1       1.514  10.234  18.885  0.00  0.00    +0.000 A 
ATOM     10  N   UNL     1       2.048   9.778  17.786  0.00  0.00    +0.000 NA
ATOM     11  C   UNL     1       1.559  11.700  19.186  0.00  0.00    +0.000 A 
ATOM     12  C   UNL     1       2.208  12.596  18.325  0.00  0.00    +0.000 A 
ATOM     13  H   UNL     1      -0.128  11.646  22.074  0.00  0.00    +0.000 HD
ENDROOT
BRANCH   1  15
ATOM     14  C   UNL     1       4.300  14.959  17.957  0.00  0.00    +0.000 C 
ATOM     15  O   UNL     1       2.915  14.738  17.721  0.00  0.00    +0.000 OA
ENDBRANCH   1  15
BRANCH  10  16
ATOM     16  N   UNL     1       1.949   8.395  17.666  0.00  0.00    +0.000 NA
ATOM     17  C   UNL     1       3.087   7.797  17.788  0.00  0.00    +0.000 C 
BRANCH  17  18
ATOM     18  C   UNL     1       3.163   6.323  17.745  0.00  0.00    +0.000 A 
ATOM     19  C   UNL     1       2.059   5.548  18.125  0.00  0.00    +0.000 A 
ATOM     20  C   UNL     1       2.152   4.155  18.144  0.00  0.00    +0.000 A 
ATOM     21  C   UNL     1       3.348   3.543  17.778  0.00  0.00    +0.000 A 
ATOM     22 CL   UNL     1       3.475   1.827  17.833  0.00  0.00    +0.000 Cl
ATOM     23  C   UNL     1       4.446   4.308  17.380  0.00  0.00    +0.000 A 
ATOM     24  C   UNL     1       4.356   5.704  17.360  0.00  0.00    +0.000 A 
ENDBRANCH  17  18
ENDBRANCH  10  16
TORSDOF 3
ENDMDL
MODEL 9
REMARK VINA RESULT:      -7.1      4.325      9.026
REMARK  Name = 
REMARK  5 active torsions:
REMARK  status: ('A' for Active; 'I' for Inactive)
REMARK    1  A    between atoms: C_1  and  O_2
REMARK    2  A    between atoms: O_2  and  C_3
REMARK    3  A    between atoms: C_8  and  C_9
REMARK    4  A    between atoms: N_12  and  N_13
REMARK    5  A    between atoms: C_14  and  C_15
REMARK                            x       y       z     vdW  Elec       q    Type
REMARK                         _______ _______ _______ _____ _____    ______ ____
ROOT
ATOM      1  C   UNL     1      -1.269  13.069  22.372  0.00  0.00    +0.000 A 
ATOM      2  C   UNL     1      -2.367  13.631  21.720  0.00  0.00    +0.000 A 
ATOM      3  C   UNL     1      -2.748  13.176  20.455  0.00  0.00    +0.000 A 
ATOM      4  C   UNL     1      -2.039  12.148  19.828  0.00  0.00    +0.000 A 
ATOM      5  N   UNL     1      -2.435  11.690  18.567  0.00  0.00    +0.000 N 
ATOM      6  C   UNL     1      -1.798  10.647  17.941  0.00  0.00    +0.000 A 
ATOM      7  C   UNL     1      -2.325  10.198  16.608  0.00  0.00    +0.000 C 
ATOM      8  C   UNL     1      -0.736  10.030  18.481  0.00  0.00    +0.000 A 
ATOM      9  C   UNL     1      -0.190  10.467  19.810  0.00  0.00    +0.000 A 
ATOM     10  N   UNL     1       0.856   9.941  20.385  0.00  0.00    +0.000 NA
ATOM     11  C   UNL     1      -0.934  11.578  20.485  0.00  0.00    +0.000 A 
ATOM     12  C   UNL     1      -0.552  12.040  21.752  0.00  0.00    +0.000 A 
ATOM     13  H   UNL     1      -3.234  12.117  18.117  0.00  0.00    +0.000 HD
ENDROOT
BRANCH   1  15
ATOM     14  C   UNL     1      -1.299  14.662  24.135  0.00  0.00    +0.000 C 
ATOM     15  O   UNL     1      -0.808  13.435  23.607  0.00  0.00    +0.000 OA
ENDBRANCH   1  15
BRANCH  10  16
ATOM     16  N   UNL     1       1.418   8.904  19.647  0.00  0.00    +0.000 NA
ATOM     17  C   UNL     1       1.684   7.863  20.365  0.00  0.00    +0.000 C 
BRANCH  17  18
ATOM     18  C   UNL     1       2.232   6.644  19.736  0.00  0.00    +0.000 A 
ATOM     19  C   UNL     1       2.866   6.718  18.489  0.00  0.00    +0.000 A 
ATOM     20  C   UNL     1       3.329   5.557  17.867  0.00  0.00    +0.000 A 
ATOM     21  C   UNL     1       3.159   4.327  18.497  0.00  0.00    +0.000 A 
ATOM     22 CL   UNL     1       3.699   2.891  17.717  0.00  0.00    +0.000 Cl
ATOM     23  C   UNL     1       2.546   4.249  19.749  0.00  0.00    +0.000 A 
ATOM     24  C   UNL     1       2.080   5.410  20.375  0.00  0.00    +0.000 A 
ENDBRANCH  17  18
ENDBRANCH  10  16
TORSDOF 3
ENDMDL
