MODEL 1
REMARK VINA RESULT:      -7.5      0.000      0.000
REMARK  Name = 
REMARK  5 active torsions:
REMARK  status: ('A' for Active; 'I' for Inactive)
REMARK    1  A    between atoms: C_2  and  C_14
REMARK    2  A    between atoms: N_3  and  N_4
REMARK    3  A    between atoms: C_5  and  C_6
REMARK    4  A    between atoms: C_12  and  O_13
REMARK    5  A    between atoms: C_19  and  O_20
REMARK                            x       y       z     vdW  Elec       q    Type
REMARK                         _______ _______ _______ _____ _____    ______ ____
ROOT
ATOM      1  O   UNL     1       8.113   6.036  19.316  0.00  0.00    +0.000 OA
ATOM      2  C   UNL     1       7.475   6.529  18.388  0.00  0.00    +0.000 C 
ATOM      3  N   UNL     1       7.671   7.806  17.889  0.00  0.00    +0.000 N 
ATOM      4  H   UNL     1       7.094   8.135  17.120  0.00  0.00    +0.000 HD
ENDROOT
BRANCH   2   5
ATOM      5  C   UNL     1       6.395   5.722  17.732  0.00  0.00    +0.000 A 
ATOM      6  C   UNL     1       5.069   6.153  17.918  0.00  0.00    +0.000 A 
ATOM      7  C   UNL     1       4.002   5.473  17.327  0.00  0.00    +0.000 A 
ATOM      8  C   UNL     1       4.246   4.349  16.543  0.00  0.00    +0.000 A 
ATOM      9  C   UNL     1       5.554   3.901  16.351  0.00  0.00    +0.000 A 
ATOM     10  C   UNL     1       6.622   4.584  16.941  0.00  0.00    +0.000 A 
BRANCH  10  11
ATOM     11  O   UNL     1       7.895   4.119  16.724  0.00  0.00    +0.000 OA
ATOM     12  H   UNL     1       7.936   3.187  17.003  0.00  0.00    +0.000 HD
ENDBRANCH  10  11
ENDBRANCH   2   5
BRANCH   3  13
ATOM     13  N   UNL     1       8.597   8.622  18.456  0.00  0.00    +0.000 NA
ATOM     14  C   UNL     1       8.551   9.868  18.110  0.00  0.00    +0.000 C 
BRANCH  14  15
ATOM     15  C   UNL     1       9.513  10.836  18.678  0.00  0.00    +0.000 A 
ATOM     16  C   UNL     1      10.275  11.631  17.811  0.00  0.00    +0.000 A 
ATOM     17  C   UNL     1      11.179  12.553  18.331  0.00  0.00    +0.000 A 
ATOM     18  I   UNL     1      12.302  13.733  17.041  0.00  0.00    +0.000 I 
ATOM     19  C   UNL     1      11.333  12.690  19.711  0.00  0.00    +0.000 A 
ATOM     20  C   UNL     1      10.577  11.896  20.579  0.00  0.00    +0.000 A 
ATOM     21  C   UNL     1       9.667  10.971  20.062  0.00  0.00    +0.000 A 
BRANCH  21  22
ATOM     22  O   UNL     1       8.924  10.203  20.915  0.00  0.00    +0.000 OA
ATOM     23  H   UNL     1       9.393  10.130  21.764  0.00  0.00    +0.000 HD
ENDBRANCH  21  22
ENDBRANCH  14  15
ENDBRANCH   3  13
TORSDOF 5
ENDMDL
MODEL 2
REMARK VINA RESULT:      -7.3      3.244      8.217
REMARK  Name = 
REMARK  5 active torsions:
REMARK  status: ('A' for Active; 'I' for Inactive)
REMARK    1  A    between atoms: C_2  and  C_14
REMARK    2  A    between atoms: N_3  and  N_4
REMARK    3  A    between atoms: C_5  and  C_6
REMARK    4  A    between atoms: C_12  and  O_13
REMARK    5  A    between atoms: C_19  and  O_20
REMARK                            x       y       z     vdW  Elec       q    Type
REMARK                         _______ _______ _______ _____ _____    ______ ____
ROOT
ATOM      1  O   UNL     1       7.867  10.805  17.481  0.00  0.00    +0.000 OA
ATOM      2  C   UNL     1       8.727  10.208  18.126  0.00  0.00    +0.000 C 
ATOM      3  N   UNL     1       8.736   8.843  18.351  0.00  0.00    +0.000 N 
ATOM      4  H   UNL     1       9.487   8.432  18.901  0.00  0.00    +0.000 HD
ENDROOT
BRANCH   2   5
ATOM      5  C   UNL     1       9.858  10.986  18.730  0.00  0.00    +0.000 A 
ATOM      6  C   UNL     1      10.744  11.625  17.842  0.00  0.00    +0.000 A 
ATOM      7  C   UNL     1      11.812  12.387  18.319  0.00  0.00    +0.000 A 
ATOM      8  C   UNL     1      12.014  12.519  19.689  0.00  0.00    +0.000 A 
ATOM      9  C   UNL     1      11.150  11.888  20.586  0.00  0.00    +0.000 A 
ATOM     10  C   UNL     1      10.078  11.127  20.109  0.00  0.00    +0.000 A 
BRANCH  10  11
ATOM     11  O   UNL     1       9.246  10.527  21.021  0.00  0.00    +0.000 OA
ATOM     12  H   UNL     1       9.011  11.181  21.704  0.00  0.00    +0.000 HD
ENDBRANCH  10  11
ENDBRANCH   2   5
BRANCH   3  13
ATOM     13  N   UNL     1       7.724   8.069  17.880  0.00  0.00    +0.000 NA
ATOM     14  C   UNL     1       7.737   6.826  18.239  0.00  0.00    +0.000 C 
BRANCH  14  15
ATOM     15  C   UNL     1       6.673   5.906  17.783  0.00  0.00    +0.000 A 
ATOM     16  C   UNL     1       5.696   5.487  18.695  0.00  0.00    +0.000 A 
ATOM     17  C   UNL     1       4.683   4.628  18.279  0.00  0.00    +0.000 A 
ATOM     18  I   UNL     1       3.232   4.013  19.634  0.00  0.00    +0.000 I 
ATOM     19  C   UNL     1       4.636   4.179  16.959  0.00  0.00    +0.000 A 
ATOM     20  C   UNL     1       5.612   4.592  16.046  0.00  0.00    +0.000 A 
ATOM     21  C   UNL     1       6.629   5.457  16.459  0.00  0.00    +0.000 A 
BRANCH  21  22
ATOM     22  O   UNL     1       7.576   5.865  15.562  0.00  0.00    +0.000 OA
ATOM     23  H   UNL     1       7.994   5.081  15.165  0.00  0.00    +0.000 HD
ENDBRANCH  21  22
ENDBRANCH  14  15
ENDBRANCH   3  13
TORSDOF 5
ENDMDL
MODEL 3
REMARK VINA RESULT:      -7.2      1.069      1.069
REMARK  Name = 
REMARK  5 active torsions:
REMARK  status: ('A' for Active; 'I' for Inactive)
REMARK    1  A    between atoms: C_2  and  C_14
REMARK    2  A    between atoms: N_3  and  N_4
REMARK    3  A    between atoms: C_5  and  C_6
REMARK    4  A    between atoms: C_12  and  O_13
REMARK    5  A    between atoms: C_19  and  O_20
REMARK                            x       y       z     vdW  Elec       q    Type
REMARK                         _______ _______ _______ _____ _____    ______ ____
ROOT
ATOM      1  O   UNL     1       8.236   6.686  18.898  0.00  0.00    +0.000 OA
ATOM      2  C   UNL     1       7.650   7.093  17.897  0.00  0.00    +0.000 C 
ATOM      3  N   UNL     1       7.577   8.420  17.512  0.00  0.00    +0.000 N 
ATOM      4  H   UNL     1       7.066   8.669  16.668  0.00  0.00    +0.000 HD
ENDROOT
BRANCH   2   5
ATOM      5  C   UNL     1       6.947   6.108  17.010  0.00  0.00    +0.000 A 
ATOM      6  C   UNL     1       5.917   6.605  16.190  0.00  0.00    +0.000 A 
ATOM      7  C   UNL     1       5.223   5.762  15.319  0.00  0.00    +0.000 A 
ATOM      8  C   UNL     1       5.547   4.410  15.257  0.00  0.00    +0.000 A 
ATOM      9  C   UNL     1       6.561   3.897  16.067  0.00  0.00    +0.000 A 
ATOM     10  C   UNL     1       7.258   4.741  16.938  0.00  0.00    +0.000 A 
BRANCH  10  11
ATOM     11  O   UNL     1       8.254   4.202  17.713  0.00  0.00    +0.000 OA
ATOM     12  H   UNL     1       8.911   4.896  17.900  0.00  0.00    +0.000 HD
ENDBRANCH  10  11
ENDBRANCH   2   5
BRANCH   3  13
ATOM     13  N   UNL     1       8.146   9.383  18.282  0.00  0.00    +0.000 NA
ATOM     14  C   UNL     1       9.119  10.047  17.746  0.00  0.00    +0.000 C 
BRANCH  14  15
ATOM     15  C   UNL     1       9.796  11.121  18.504  0.00  0.00    +0.000 A 
ATOM     16  C   UNL     1      10.365  12.194  17.805  0.00  0.00    +0.000 A 
ATOM     17  C   UNL     1      11.000  13.217  18.504  0.00  0.00    +0.000 A 
ATOM     18  I   UNL     1      11.837  14.810  17.464  0.00  0.00    +0.000 I 
ATOM     19  C   UNL     1      11.075  13.179  19.896  0.00  0.00    +0.000 A 
ATOM     20  C   UNL     1      10.512  12.108  20.597  0.00  0.00    +0.000 A 
ATOM     21  C   UNL     1       9.871  11.080  19.900  0.00  0.00    +0.000 A 
BRANCH  21  22
ATOM     22  O   UNL     1       9.315  10.040  20.589  0.00  0.00    +0.000 OA
ATOM     23  H   UNL     1       9.720   9.992  21.472  0.00  0.00    +0.000 HD
ENDBRANCH  21  22
ENDBRANCH  14  15
ENDBRANCH   3  13
TORSDOF 5
ENDMDL
MODEL 4
REMARK VINA RESULT:      -7.1      3.488      8.187
REMARK  Name = 
REMARK  5 active torsions:
REMARK  status: ('A' for Active; 'I' for Inactive)
REMARK    1  A    between atoms: C_2  and  C_14
REMARK    2  A    between atoms: N_3  and  N_4
REMARK    3  A    between atoms: C_5  and  C_6
REMARK    4  A    between atoms: C_12  and  O_13
REMARK    5  A    between atoms: C_19  and  O_20
REMARK                            x       y       z     vdW  Elec       q    Type
REMARK                         _______ _______ _______ _____ _____    ______ ____
ROOT
ATOM      1  O   UNL     1       7.908  10.496  17.437  0.00  0.00    +0.000 OA
ATOM      2  C   UNL     1       8.651   9.974  18.265  0.00  0.00    +0.000 C 
ATOM      3  N   UNL     1       8.668   8.623  18.567  0.00  0.00    +0.000 N 
ATOM      4  H   UNL     1       9.315   8.277  19.271  0.00  0.00    +0.000 HD
ENDROOT
BRANCH   2   5
ATOM      5  C   UNL     1       9.617  10.834  19.026  0.00  0.00    +0.000 A 
ATOM      6  C   UNL     1       9.346  11.050  20.390  0.00  0.00    +0.000 A 
ATOM      7  C   UNL     1      10.202  11.820  21.179  0.00  0.00    +0.000 A 
ATOM      8  C   UNL     1      11.341  12.389  20.615  0.00  0.00    +0.000 A 
ATOM      9  C   UNL     1      11.624  12.191  19.263  0.00  0.00    +0.000 A 
ATOM     10  C   UNL     1      10.768  11.417  18.473  0.00  0.00    +0.000 A 
BRANCH  10  11
ATOM     11  O   UNL     1      11.082  11.239  17.149  0.00  0.00    +0.000 OA
ATOM     12  H   UNL     1      11.528  10.379  17.050  0.00  0.00    +0.000 HD
ENDBRANCH  10  11
ENDBRANCH   2   5
BRANCH   3  13
ATOM     13  N   UNL     1       7.794   7.780  17.959  0.00  0.00    +0.000 NA
ATOM     14  C   UNL     1       7.718   6.583  18.446  0.00  0.00    +0.000 C 
BRANCH  14  15
ATOM     15  C   UNL     1       6.790   5.595  17.856  0.00  0.00    +0.000 A 
ATOM     16  C   UNL     1       5.890   4.921  18.693  0.00  0.00    +0.000 A 
ATOM     17  C   UNL     1       5.004   3.994  18.152  0.00  0.00    +0.000 A 
ATOM     18  I   UNL     1       3.668   3.000  19.395  0.00  0.00    +0.000 I 
ATOM     19  C   UNL     1       5.008   3.729  16.782  0.00  0.00    +0.000 A 
ATOM     20  C   UNL     1       5.907   4.398  15.945  0.00  0.00    +0.000 A 
ATOM     21  C   UNL     1       6.797   5.331  16.483  0.00  0.00    +0.000 A 
BRANCH  21  22
ATOM     22  O   UNL     1       7.668   5.988  15.660  0.00  0.00    +0.000 OA
ATOM     23  H   UNL     1       7.170   6.621  15.114  0.00  0.00    +0.000 HD
ENDBRANCH  21  22
ENDBRANCH  14  15
ENDBRANCH   3  13
TORSDOF 5
ENDMDL
MODEL 5
REMARK VINA RESULT:      -6.7      3.090      7.915
REMARK  Name = 
REMARK  5 active torsions:
REMARK  status: ('A' for Active; 'I' for Inactive)
REMARK    1  A    between atoms: C_2  and  C_14
REMARK    2  A    between atoms: N_3  and  N_4
REMARK    3  A    between atoms: C_5  and  C_6
REMARK    4  A    between atoms: C_12  and  O_13
REMARK    5  A    between atoms: C_19  and  O_20
REMARK                            x       y       z     vdW  Elec       q    Type
REMARK                         _______ _______ _______ _____ _____    ______ ____
ROOT
ATOM      1  O   UNL     1       7.916  10.640  17.390  0.00  0.00    +0.000 OA
ATOM      2  C   UNL     1       8.654  10.089  18.204  0.00  0.00    +0.000 C 
ATOM      3  N   UNL     1       8.651   8.732  18.476  0.00  0.00    +0.000 N 
ATOM      4  H   UNL     1       9.294   8.360  19.171  0.00  0.00    +0.000 HD
ENDROOT
BRANCH   2   5
ATOM      5  C   UNL     1       9.634  10.917  18.981  0.00  0.00    +0.000 A 
ATOM      6  C   UNL     1       9.366  11.113  20.349  0.00  0.00    +0.000 A 
ATOM      7  C   UNL     1      10.236  11.853  21.152  0.00  0.00    +0.000 A 
ATOM      8  C   UNL     1      11.384  12.411  20.600  0.00  0.00    +0.000 A 
ATOM      9  C   UNL     1      11.665  12.233  19.244  0.00  0.00    +0.000 A 
ATOM     10  C   UNL     1      10.796  11.490  18.440  0.00  0.00    +0.000 A 
BRANCH  10  11
ATOM     11  O   UNL     1      11.108  11.330  17.113  0.00  0.00    +0.000 OA
ATOM     12  H   UNL     1      10.522  10.650  16.736  0.00  0.00    +0.000 HD
ENDBRANCH  10  11
ENDBRANCH   2   5
BRANCH   3  13
ATOM     13  N   UNL     1       7.763   7.916  17.853  0.00  0.00    +0.000 NA
ATOM     14  C   UNL     1       7.749   6.680  18.238  0.00  0.00    +0.000 C 
BRANCH  14  15
ATOM     15  C   UNL     1       6.812   5.717  17.623  0.00  0.00    +0.000 A 
ATOM     16  C   UNL     1       6.928   5.430  16.256  0.00  0.00    +0.000 A 
ATOM     17  C   UNL     1       6.058   4.519  15.664  0.00  0.00    +0.000 A 
ATOM     18  I   UNL     1       6.236   4.093  13.638  0.00  0.00    +0.000 I 
ATOM     19  C   UNL     1       5.071   3.889  16.423  0.00  0.00    +0.000 A 
ATOM     20  C   UNL     1       4.950   4.176  17.786  0.00  0.00    +0.000 A 
ATOM     21  C   UNL     1       5.823   5.088  18.386  0.00  0.00    +0.000 A 
BRANCH  21  22
ATOM     22  O   UNL     1       5.707   5.358  19.721  0.00  0.00    +0.000 OA
ATOM     23  H   UNL     1       5.748   4.522  20.217  0.00  0.00    +0.000 HD
ENDBRANCH  21  22
ENDBRANCH  14  15
ENDBRANCH   3  13
TORSDOF 5
ENDMDL
MODEL 6
REMARK VINA RESULT:      -6.7      2.946      7.971
REMARK  Name = 
REMARK  5 active torsions:
REMARK  status: ('A' for Active; 'I' for Inactive)
REMARK    1  A    between atoms: C_2  and  C_14
REMARK    2  A    between atoms: N_3  and  N_4
REMARK    3  A    between atoms: C_5  and  C_6
REMARK    4  A    between atoms: C_12  and  O_13
REMARK    5  A    between atoms: C_19  and  O_20
REMARK                            x       y       z     vdW  Elec       q    Type
REMARK                         _______ _______ _______ _____ _____    ______ ____
ROOT
ATOM      1  O   UNL     1       7.856  10.754  17.486  0.00  0.00    +0.000 OA
ATOM      2  C   UNL     1       8.713  10.197  18.169  0.00  0.00    +0.000 C 
ATOM      3  N   UNL     1       8.769   8.833  18.401  0.00  0.00    +0.000 N 
ATOM      4  H   UNL     1       9.513   8.456  18.984  0.00  0.00    +0.000 HD
ENDROOT
BRANCH   2   5
ATOM      5  C   UNL     1       9.785  11.022  18.816  0.00  0.00    +0.000 A 
ATOM      6  C   UNL     1      10.656  11.725  17.962  0.00  0.00    +0.000 A 
ATOM      7  C   UNL     1      11.669  12.535  18.479  0.00  0.00    +0.000 A 
ATOM      8  C   UNL     1      11.830  12.651  19.856  0.00  0.00    +0.000 A 
ATOM      9  C   UNL     1      10.980  11.958  20.720  0.00  0.00    +0.000 A 
ATOM     10  C   UNL     1       9.963  11.149  20.202  0.00  0.00    +0.000 A 
BRANCH  10  11
ATOM     11  O   UNL     1       9.143  10.487  21.082  0.00  0.00    +0.000 OA
ATOM     12  H   UNL     1       8.877  11.108  21.784  0.00  0.00    +0.000 HD
ENDBRANCH  10  11
ENDBRANCH   2   5
BRANCH   3  13
ATOM     13  N   UNL     1       7.811   8.017  17.892  0.00  0.00    +0.000 NA
ATOM     14  C   UNL     1       7.930   6.756  18.159  0.00  0.00    +0.000 C 
BRANCH  14  15
ATOM     15  C   UNL     1       6.932   5.789  17.655  0.00  0.00    +0.000 A 
ATOM     16  C   UNL     1       6.910   5.481  16.287  0.00  0.00    +0.000 A 
ATOM     17  C   UNL     1       5.982   4.566  15.798  0.00  0.00    +0.000 A 
ATOM     18  I   UNL     1       5.957   4.109  13.771  0.00  0.00    +0.000 I 
ATOM     19  C   UNL     1       5.072   3.955  16.661  0.00  0.00    +0.000 A 
ATOM     20  C   UNL     1       5.088   4.262  18.025  0.00  0.00    +0.000 A 
ATOM     21  C   UNL     1       6.020   5.178  18.521  0.00  0.00    +0.000 A 
BRANCH  21  22
ATOM     22  O   UNL     1       6.038   5.469  19.856  0.00  0.00    +0.000 OA
ATOM     23  H   UNL     1       5.214   5.931  20.090  0.00  0.00    +0.000 HD
ENDBRANCH  21  22
ENDBRANCH  14  15
ENDBRANCH   3  13
TORSDOF 5
ENDMDL
MODEL 7
REMARK VINA RESULT:      -6.7      7.326      9.818
REMARK  Name = 
REMARK  5 active torsions:
REMARK  status: ('A' for Active; 'I' for Inactive)
REMARK    1  A    between atoms: C_2  and  C_14
REMARK    2  A    between atoms: N_3  and  N_4
REMARK    3  A    between atoms: C_5  and  C_6
REMARK    4  A    between atoms: C_12  and  O_13
REMARK    5  A    between atoms: C_19  and  O_20
REMARK                            x       y       z     vdW  Elec       q    Type
REMARK                         _______ _______ _______ _____ _____    ______ ____
ROOT
ATOM      1  O   UNL     1       1.351   8.981  19.052  0.00  0.00    +0.000 OA
ATOM      2  C   UNL     1       1.238   8.729  20.250  0.00  0.00    +0.000 C 
ATOM      3  N   UNL     1       1.754   7.604  20.869  0.00  0.00    +0.000 N 
ATOM      4  H   UNL     1       1.610   7.473  21.867  0.00  0.00    +0.000 HD
ENDROOT
BRANCH   2   5
ATOM      5  C   UNL     1       0.488   9.684  21.131  0.00  0.00    +0.000 A 
ATOM      6  C   UNL     1      -0.104   9.153  22.292  0.00  0.00    +0.000 A 
ATOM      7  C   UNL     1      -0.804   9.974  23.179  0.00  0.00    +0.000 A 
ATOM      8  C   UNL     1      -0.925  11.335  22.917  0.00  0.00    +0.000 A 
ATOM      9  C   UNL     1      -0.350  11.879  21.768  0.00  0.00    +0.000 A 
ATOM     10  C   UNL     1       0.353  11.058  20.880  0.00  0.00    +0.000 A 
BRANCH  10  11
ATOM     11  O   UNL     1       0.911  11.630  19.764  0.00  0.00    +0.000 OA
ATOM     12  H   UNL     1       0.797  12.595  19.820  0.00  0.00    +0.000 HD
ENDBRANCH  10  11
ENDBRANCH   2   5
BRANCH   3  13
ATOM     13  N   UNL     1       2.407   6.664  20.138  0.00  0.00    +0.000 NA
ATOM     14  C   UNL     1       1.798   5.533  19.981  0.00  0.00    +0.000 C 
BRANCH  14  15
ATOM     15  C   UNL     1       2.425   4.450  19.194  0.00  0.00    +0.000 A 
ATOM     16  C   UNL     1       3.388   4.777  18.231  0.00  0.00    +0.000 A 
ATOM     17  C   UNL     1       3.994   3.768  17.487  0.00  0.00    +0.000 A 
ATOM     18  I   UNL     1       5.426   4.257  16.063  0.00  0.00    +0.000 I 
ATOM     19  C   UNL     1       3.646   2.433  17.694  0.00  0.00    +0.000 A 
ATOM     20  C   UNL     1       2.682   2.103  18.652  0.00  0.00    +0.000 A 
ATOM     21  C   UNL     1       2.074   3.112  19.403  0.00  0.00    +0.000 A 
BRANCH  21  22
ATOM     22  O   UNL     1       1.138   2.785  20.345  0.00  0.00    +0.000 OA
ATOM     23  H   UNL     1       1.292   1.870  20.637  0.00  0.00    +0.000 HD
ENDBRANCH  21  22
ENDBRANCH  14  15
ENDBRANCH   3  13
TORSDOF 5
ENDMDL
MODEL 8
REMARK VINA RESULT:      -6.7      2.121      2.593
REMARK  Name = 
REMARK  5 active torsions:
REMARK  status: ('A' for Active; 'I' for Inactive)
REMARK    1  A    between atoms: C_2  and  C_14
REMARK    2  A    between atoms: N_3  and  N_4
REMARK    3  A    between atoms: C_5  and  C_6
REMARK    4  A    between atoms: C_12  and  O_13
REMARK    5  A    between atoms: C_19  and  O_20
REMARK                            x       y       z     vdW  Elec       q    Type
REMARK                         _______ _______ _______ _____ _____    ______ ____
ROOT
ATOM      1  O   UNL     1       7.915   6.119  19.244  0.00  0.00    +0.000 OA
ATOM      2  C   UNL     1       7.573   6.592  18.162  0.00  0.00    +0.000 C 
ATOM      3  N   UNL     1       7.867   7.876  17.736  0.00  0.00    +0.000 N 
ATOM      4  H   UNL     1       7.540   8.187  16.824  0.00  0.00    +0.000 HD
ENDROOT
BRANCH   2   5
ATOM      5  C   UNL     1       6.774   5.748  17.215  0.00  0.00    +0.000 A 
ATOM      6  C   UNL     1       7.354   5.461  15.965  0.00  0.00    +0.000 A 
ATOM      7  C   UNL     1       6.689   4.665  15.030  0.00  0.00    +0.000 A 
ATOM      8  C   UNL     1       5.433   4.147  15.329  0.00  0.00    +0.000 A 
ATOM      9  C   UNL     1       4.838   4.424  16.561  0.00  0.00    +0.000 A 
ATOM     10  C   UNL     1       5.504   5.219  17.498  0.00  0.00    +0.000 A 
BRANCH  10  11
ATOM     11  O   UNL     1       4.891   5.465  18.702  0.00  0.00    +0.000 OA
ATOM     12  H   UNL     1       5.196   4.801  19.346  0.00  0.00    +0.000 HD
ENDBRANCH  10  11
ENDBRANCH   2   5
BRANCH   3  13
ATOM     13  N   UNL     1       8.546   8.723  18.551  0.00  0.00    +0.000 NA
ATOM     14  C   UNL     1       8.690   9.937  18.125  0.00  0.00    +0.000 C 
BRANCH  14  15
ATOM     15  C   UNL     1       9.408  10.936  18.944  0.00  0.00    +0.000 A 
ATOM     16  C   UNL     1       8.890  11.291  20.197  0.00  0.00    +0.000 A 
ATOM     17  C   UNL     1       9.560  12.224  20.985  0.00  0.00    +0.000 A 
ATOM     18  I   UNL     1       8.790  12.743  22.844  0.00  0.00    +0.000 I 
ATOM     19  C   UNL     1      10.743  12.809  20.533  0.00  0.00    +0.000 A 
ATOM     20  C   UNL     1      11.261  12.460  19.282  0.00  0.00    +0.000 A 
ATOM     21  C   UNL     1      10.594  11.522  18.489  0.00  0.00    +0.000 A 
BRANCH  21  22
ATOM     22  O   UNL     1      11.109  11.177  17.271  0.00  0.00    +0.000 OA
ATOM     23  H   UNL     1      10.853  11.851  16.618  0.00  0.00    +0.000 HD
ENDBRANCH  21  22
ENDBRANCH  14  15
ENDBRANCH   3  13
TORSDOF 5
ENDMDL
MODEL 9
REMARK VINA RESULT:      -6.6      3.422      8.268
REMARK  Name = 
REMARK  5 active torsions:
REMARK  status: ('A' for Active; 'I' for Inactive)
REMARK    1  A    between atoms: C_2  and  C_14
REMARK    2  A    between atoms: N_3  and  N_4
REMARK    3  A    between atoms: C_5  and  C_6
REMARK    4  A    between atoms: C_12  and  O_13
REMARK    5  A    between atoms: C_19  and  O_20
REMARK                            x       y       z     vdW  Elec       q    Type
REMARK                         _______ _______ _______ _____ _____    ______ ____
ROOT
ATOM      1  O   UNL     1       7.529  11.184  17.176  0.00  0.00    +0.000 OA
ATOM      2  C   UNL     1       8.391  10.605  17.835  0.00  0.00    +0.000 C 
ATOM      3  N   UNL     1       8.455   9.234  18.015  0.00  0.00    +0.000 N 
ATOM      4  H   UNL     1       9.201   8.838  18.581  0.00  0.00    +0.000 HD
ENDROOT
BRANCH   2   5
ATOM      5  C   UNL     1       9.459  11.411  18.512  0.00  0.00    +0.000 A 
ATOM      6  C   UNL     1      10.052  10.854  19.660  0.00  0.00    +0.000 A 
ATOM      7  C   UNL     1      11.069  11.527  20.341  0.00  0.00    +0.000 A 
ATOM      8  C   UNL     1      11.505  12.767  19.887  0.00  0.00    +0.000 A 
ATOM      9  C   UNL     1      10.926  13.339  18.753  0.00  0.00    +0.000 A 
ATOM     10  C   UNL     1       9.909  12.665  18.069  0.00  0.00    +0.000 A 
BRANCH  10  11
ATOM     11  O   UNL     1       9.368  13.255  16.954  0.00  0.00    +0.000 OA
ATOM     12  H   UNL     1       9.304  14.214  17.112  0.00  0.00    +0.000 HD
ENDBRANCH  10  11
ENDBRANCH   2   5
BRANCH   3  13
ATOM     13  N   UNL     1       7.500   8.432  17.476  0.00  0.00    +0.000 NA
ATOM     14  C   UNL     1       7.476   7.207  17.894  0.00  0.00    +0.000 C 
BRANCH  14  15
ATOM     15  C   UNL     1       6.469   6.260  17.371  0.00  0.00    +0.000 A 
ATOM     16  C   UNL     1       5.325   5.991  18.135  0.00  0.00    +0.000 A 
ATOM     17  C   UNL     1       4.363   5.107  17.653  0.00  0.00    +0.000 A 
ATOM     18  I   UNL     1       2.666   4.715  18.787  0.00  0.00    +0.000 I 
ATOM     19  C   UNL     1       4.531   4.487  16.415  0.00  0.00    +0.000 A 
ATOM     20  C   UNL     1       5.673   4.750  15.652  0.00  0.00    +0.000 A 
ATOM     21  C   UNL     1       6.640   5.638  16.130  0.00  0.00    +0.000 A 
BRANCH  21  22
ATOM     22  O   UNL     1       7.750   5.899  15.377  0.00  0.00    +0.000 OA
ATOM     23  H   UNL     1       8.445   6.263  15.954  0.00  0.00    +0.000 HD
ENDBRANCH  21  22
ENDBRANCH  14  15
ENDBRANCH   3  13
TORSDOF 5
ENDMDL
