MODEL 1
REMARK VINA RESULT:      -6.7      0.000      0.000
REMARK  Name = 
REMARK  5 active torsions:
REMARK  status: ('A' for Active; 'I' for Inactive)
REMARK    1  A    between atoms: C_1  and  C_2
REMARK    2  A    between atoms: C_6  and  C_7
REMARK    3  A    between atoms: N_9  and  C_10
REMARK    4  A    between atoms: N_9  and  C_11
REMARK    5  A    between atoms: C_15  and  C_17
REMARK                            x       y       z     vdW  Elec       q    Type
REMARK                         _______ _______ _______ _____ _____    ______ ____
ROOT
ATOM      1  C   UNL     1       0.712  10.223  19.876  0.00  0.00    +0.000 C 
ATOM      2  C   UNL     1       0.359  11.267  20.865  0.00  0.00    +0.000 A 
ATOM      3  N   UNL     1      -0.729  10.972  21.660  0.00  0.00    +0.000 NA
ATOM      4  C   UNL     1      -1.000  12.058  22.329  0.00  0.00    +0.000 A 
ATOM      5  N   UNL     1      -0.103  13.051  22.027  0.00  0.00    +0.000 N 
ATOM      6  C   UNL     1       0.854  12.553  21.133  0.00  0.00    +0.000 A 
ATOM      7  C   UNL     1      -0.265  14.418  22.505  0.00  0.00    +0.000 C 
ATOM      8  C   UNL     1      -1.383  14.557  23.556  0.00  0.00    +0.000 C 
ATOM      9  N   UNL     1      -2.520  13.678  23.249  0.00  0.00    +0.000 N 
ATOM     10  C   UNL     1      -3.785  14.215  23.012  0.00  0.00    +0.000 C 
ATOM     11  O   UNL     1      -4.006  15.413  23.174  0.00  0.00    +0.000 OA
ATOM     12  C   UNL     1      -2.144  12.263  23.277  0.00  0.00    +0.000 C 
ENDROOT
BRANCH  10  13
ATOM     13  C   UNL     1      -4.902  13.319  22.537  0.00  0.00    +0.000 A 
ATOM     14  C   UNL     1      -5.801  12.927  23.459  0.00  0.00    +0.000 A 
ATOM     15  C   UNL     1      -7.016  12.161  23.096  0.00  0.00    +0.000 A 
ATOM     16  O   UNL     1      -7.915  11.984  23.913  0.00  0.00    +0.000 OA
ATOM     17  N   UNL     1      -7.088  11.689  21.822  0.00  0.00    +0.000 N 
ATOM     18  C   UNL     1      -6.093  11.897  20.867  0.00  0.00    +0.000 A 
ATOM     19  C   UNL     1      -6.228  11.270  19.625  0.00  0.00    +0.000 A 
ATOM     20  C   UNL     1      -5.238  11.429  18.664  0.00  0.00    +0.000 A 
ATOM     21  C   UNL     1      -4.129  12.224  18.944  0.00  0.00    +0.000 A 
ATOM     22  C   UNL     1      -4.006  12.866  20.184  0.00  0.00    +0.000 A 
ATOM     23  C   UNL     1      -4.987  12.708  21.178  0.00  0.00    +0.000 A 
ATOM     24  H   UNL     1      -7.916  11.153  21.598  0.00  0.00    +0.000 HD
ENDBRANCH  10  13
BRANCH   6  25
ATOM     25  C   UNL     1       1.945  13.381  20.614  0.00  0.00    +0.000 C 
ATOM     26  O   UNL     1       3.026  13.375  21.207  0.00  0.00    +0.000 OA
ATOM     27  N   UNL     1       1.839  14.134  19.429  0.00  0.00    +0.000 N 
ATOM     28  C   UNL     1       0.715  14.174  18.514  0.00  0.00    +0.000 C 
ATOM     29  C   UNL     1       3.002  14.893  18.972  0.00  0.00    +0.000 C 
ENDBRANCH   6  25
TORSDOF 2
ENDMDL
MODEL 2
REMARK VINA RESULT:      -6.7      5.533      9.882
REMARK  Name = 
REMARK  5 active torsions:
REMARK  status: ('A' for Active; 'I' for Inactive)
REMARK    1  A    between atoms: C_1  and  C_2
REMARK    2  A    between atoms: C_6  and  C_7
REMARK    3  A    between atoms: N_9  and  C_10
REMARK    4  A    between atoms: N_9  and  C_11
REMARK    5  A    between atoms: C_15  and  C_17
REMARK                            x       y       z     vdW  Elec       q    Type
REMARK                         _______ _______ _______ _____ _____    ______ ____
ROOT
ATOM      1  C   UNL     1       1.042   9.263  23.365  0.00  0.00    +0.000 C 
ATOM      2  C   UNL     1       1.049   9.233  21.884  0.00  0.00    +0.000 A 
ATOM      3  N   UNL     1       1.146   7.975  21.327  0.00  0.00    +0.000 NA
ATOM      4  C   UNL     1       1.319   8.152  20.047  0.00  0.00    +0.000 A 
ATOM      5  N   UNL     1       1.303   9.489  19.735  0.00  0.00    +0.000 N 
ATOM      6  C   UNL     1       1.048  10.230  20.896  0.00  0.00    +0.000 A 
ATOM      7  C   UNL     1       1.635   9.981  18.405  0.00  0.00    +0.000 C 
ATOM      8  C   UNL     1       1.758   8.854  17.361  0.00  0.00    +0.000 C 
ATOM      9  N   UNL     1       2.366   7.650  17.942  0.00  0.00    +0.000 N 
ATOM     10  C   UNL     1       3.565   7.149  17.435  0.00  0.00    +0.000 C 
ATOM     11  O   UNL     1       4.073   7.624  16.421  0.00  0.00    +0.000 OA
ATOM     12  C   UNL     1       1.550   7.085  19.019  0.00  0.00    +0.000 C 
ENDROOT
BRANCH  10  13
ATOM     13  C   UNL     1       4.262   6.014  18.143  0.00  0.00    +0.000 A 
ATOM     14  C   UNL     1       5.509   6.250  18.588  0.00  0.00    +0.000 A 
ATOM     15  C   UNL     1       6.248   5.267  19.414  0.00  0.00    +0.000 A 
ATOM     16  O   UNL     1       7.299   5.577  19.971  0.00  0.00    +0.000 OA
ATOM     17  N   UNL     1       5.699   4.029  19.537  0.00  0.00    +0.000 N 
ATOM     18  C   UNL     1       4.494   3.659  18.938  0.00  0.00    +0.000 A 
ATOM     19  C   UNL     1       4.084   2.327  19.045  0.00  0.00    +0.000 A 
ATOM     20  C   UNL     1       2.908   1.918  18.430  0.00  0.00    +0.000 A 
ATOM     21  C   UNL     1       2.143   2.845  17.726  0.00  0.00    +0.000 A 
ATOM     22  C   UNL     1       2.547   4.184  17.636  0.00  0.00    +0.000 A 
ATOM     23  C   UNL     1       3.741   4.618  18.237  0.00  0.00    +0.000 A 
ATOM     24  H   UNL     1       6.225   3.366  20.091  0.00  0.00    +0.000 HD
ENDBRANCH  10  13
BRANCH   6  25
ATOM     25  C   UNL     1       0.977  11.693  20.890  0.00  0.00    +0.000 C 
ATOM     26  O   UNL     1       2.004  12.337  21.115  0.00  0.00    +0.000 OA
ATOM     27  N   UNL     1      -0.197  12.402  20.571  0.00  0.00    +0.000 N 
ATOM     28  C   UNL     1      -1.468  11.848  20.147  0.00  0.00    +0.000 C 
ATOM     29  C   UNL     1      -0.152  13.863  20.549  0.00  0.00    +0.000 C 
ENDBRANCH   6  25
TORSDOF 2
ENDMDL
MODEL 3
REMARK VINA RESULT:      -6.6      1.559      1.850
REMARK  Name = 
REMARK  5 active torsions:
REMARK  status: ('A' for Active; 'I' for Inactive)
REMARK    1  A    between atoms: C_1  and  C_2
REMARK    2  A    between atoms: C_6  and  C_7
REMARK    3  A    between atoms: N_9  and  C_10
REMARK    4  A    between atoms: N_9  and  C_11
REMARK    5  A    between atoms: C_15  and  C_17
REMARK                            x       y       z     vdW  Elec       q    Type
REMARK                         _______ _______ _______ _____ _____    ______ ____
ROOT
ATOM      1  C   UNL     1      -0.038   9.993  22.539  0.00  0.00    +0.000 C 
ATOM      2  C   UNL     1      -0.410  11.418  22.390  0.00  0.00    +0.000 A 
ATOM      3  N   UNL     1      -1.489  11.821  23.148  0.00  0.00    +0.000 NA
ATOM      4  C   UNL     1      -1.781  13.031  22.759  0.00  0.00    +0.000 A 
ATOM      5  N   UNL     1      -0.905  13.454  21.790  0.00  0.00    +0.000 N 
ATOM      6  C   UNL     1       0.059  12.460  21.575  0.00  0.00    +0.000 A 
ATOM      7  C   UNL     1      -1.094  14.701  21.061  0.00  0.00    +0.000 C 
ATOM      8  C   UNL     1      -2.211  15.580  21.655  0.00  0.00    +0.000 C 
ATOM      9  N   UNL     1      -3.330  14.764  22.146  0.00  0.00    +0.000 N 
ATOM     10  C   UNL     1      -4.607  14.917  21.606  0.00  0.00    +0.000 C 
ATOM     11  O   UNL     1      -4.852  15.814  20.801  0.00  0.00    +0.000 OA
ATOM     12  C   UNL     1      -2.926  13.873  23.236  0.00  0.00    +0.000 C 
ENDROOT
BRANCH  10  13
ATOM     13  C   UNL     1      -5.707  13.963  22.000  0.00  0.00    +0.000 A 
ATOM     14  C   UNL     1      -6.193  14.079  23.250  0.00  0.00    +0.000 A 
ATOM     15  C   UNL     1      -7.362  13.296  23.714  0.00  0.00    +0.000 A 
ATOM     16  O   UNL     1      -7.909  13.556  24.783  0.00  0.00    +0.000 OA
ATOM     17  N   UNL     1      -7.802  12.302  22.896  0.00  0.00    +0.000 N 
ATOM     18  C   UNL     1      -7.215  12.004  21.665  0.00  0.00    +0.000 A 
ATOM     19  C   UNL     1      -7.686  10.890  20.963  0.00  0.00    +0.000 A 
ATOM     20  C   UNL     1      -7.101  10.544  19.752  0.00  0.00    +0.000 A 
ATOM     21  C   UNL     1      -6.062  11.322  19.244  0.00  0.00    +0.000 A 
ATOM     22  C   UNL     1      -5.605  12.448  19.942  0.00  0.00    +0.000 A 
ATOM     23  C   UNL     1      -6.171  12.809  21.177  0.00  0.00    +0.000 A 
ATOM     24  H   UNL     1      -8.589  11.767  23.237  0.00  0.00    +0.000 HD
ENDBRANCH  10  13
BRANCH   6  25
ATOM     25  C   UNL     1       1.132  12.613  20.590  0.00  0.00    +0.000 C 
ATOM     26  O   UNL     1       2.171  13.184  20.928  0.00  0.00    +0.000 OA
ATOM     27  N   UNL     1       1.060  12.077  19.289  0.00  0.00    +0.000 N 
ATOM     28  C   UNL     1      -0.002  11.261  18.735  0.00  0.00    +0.000 C 
ATOM     29  C   UNL     1       2.204  12.246  18.395  0.00  0.00    +0.000 C 
ENDBRANCH   6  25
TORSDOF 2
ENDMDL
MODEL 4
REMARK VINA RESULT:      -6.6      2.582      4.648
REMARK  Name = 
REMARK  5 active torsions:
REMARK  status: ('A' for Active; 'I' for Inactive)
REMARK    1  A    between atoms: C_1  and  C_2
REMARK    2  A    between atoms: C_6  and  C_7
REMARK    3  A    between atoms: N_9  and  C_10
REMARK    4  A    between atoms: N_9  and  C_11
REMARK    5  A    between atoms: C_15  and  C_17
REMARK                            x       y       z     vdW  Elec       q    Type
REMARK                         _______ _______ _______ _____ _____    ______ ____
ROOT
ATOM      1  C   UNL     1       0.480  17.313  18.826  0.00  0.00    +0.000 C 
ATOM      2  C   UNL     1       0.529  15.855  19.081  0.00  0.00    +0.000 A 
ATOM      3  N   UNL     1      -0.668  15.293  19.474  0.00  0.00    +0.000 NA
ATOM      4  C   UNL     1      -0.400  14.066  19.825  0.00  0.00    +0.000 A 
ATOM      5  N   UNL     1       0.932  13.789  19.642  0.00  0.00    +0.000 N 
ATOM      6  C   UNL     1       1.563  14.907  19.081  0.00  0.00    +0.000 A 
ATOM      7  C   UNL     1       1.539  12.547  20.105  0.00  0.00    +0.000 C 
ATOM      8  C   UNL     1       0.501  11.513  20.580  0.00  0.00    +0.000 C 
ATOM      9  N   UNL     1      -0.622  12.160  21.273  0.00  0.00    +0.000 N 
ATOM     10  C   UNL     1      -0.901  11.854  22.605  0.00  0.00    +0.000 C 
ATOM     11  O   UNL     1      -0.300  10.955  23.189  0.00  0.00    +0.000 OA
ATOM     12  C   UNL     1      -1.362  13.067  20.394  0.00  0.00    +0.000 C 
ENDROOT
BRANCH  10  13
ATOM     13  C   UNL     1      -1.948  12.643  23.351  0.00  0.00    +0.000 A 
ATOM     14  C   UNL     1      -3.151  12.061  23.509  0.00  0.00    +0.000 A 
ATOM     15  C   UNL     1      -4.217  12.671  24.336  0.00  0.00    +0.000 A 
ATOM     16  O   UNL     1      -5.229  12.038  24.626  0.00  0.00    +0.000 OA
ATOM     17  N   UNL     1      -4.009  13.945  24.767  0.00  0.00    +0.000 N 
ATOM     18  C   UNL     1      -2.859  14.678  24.474  0.00  0.00    +0.000 A 
ATOM     19  C   UNL     1      -2.806  16.015  24.879  0.00  0.00    +0.000 A 
ATOM     20  C   UNL     1      -1.690  16.782  24.573  0.00  0.00    +0.000 A 
ATOM     21  C   UNL     1      -0.629  16.205  23.878  0.00  0.00    +0.000 A 
ATOM     22  C   UNL     1      -0.677  14.859  23.489  0.00  0.00    +0.000 A 
ATOM     23  C   UNL     1      -1.803  14.067  23.774  0.00  0.00    +0.000 A 
ATOM     24  H   UNL     1      -4.755  14.351  25.315  0.00  0.00    +0.000 HD
ENDBRANCH  10  13
BRANCH   6  25
ATOM     25  C   UNL     1       2.995  14.924  18.774  0.00  0.00    +0.000 C 
ATOM     26  O   UNL     1       3.358  14.668  17.624  0.00  0.00    +0.000 OA
ATOM     27  N   UNL     1       3.976  15.285  19.718  0.00  0.00    +0.000 N 
ATOM     28  C   UNL     1       3.760  15.749  21.074  0.00  0.00    +0.000 C 
ATOM     29  C   UNL     1       5.377  15.314  19.300  0.00  0.00    +0.000 C 
ENDBRANCH   6  25
TORSDOF 2
ENDMDL
MODEL 5
REMARK VINA RESULT:      -6.6      6.591     11.553
REMARK  Name = 
REMARK  5 active torsions:
REMARK  status: ('A' for Active; 'I' for Inactive)
REMARK    1  A    between atoms: C_1  and  C_2
REMARK    2  A    between atoms: C_6  and  C_7
REMARK    3  A    between atoms: N_9  and  C_10
REMARK    4  A    between atoms: N_9  and  C_11
REMARK    5  A    between atoms: C_15  and  C_17
REMARK                            x       y       z     vdW  Elec       q    Type
REMARK                         _______ _______ _______ _____ _____    ______ ____
ROOT
ATOM      1  C   UNL     1       2.312  13.426  18.185  0.00  0.00    +0.000 C 
ATOM      2  C   UNL     1       3.383  14.446  18.250  0.00  0.00    +0.000 A 
ATOM      3  N   UNL     1       4.646  13.985  17.942  0.00  0.00    +0.000 NA
ATOM      4  C   UNL     1       5.471  14.956  18.224  0.00  0.00    +0.000 A 
ATOM      5  N   UNL     1       4.788  16.057  18.676  0.00  0.00    +0.000 N 
ATOM      6  C   UNL     1       3.412  15.797  18.633  0.00  0.00    +0.000 A 
ATOM      7  C   UNL     1       5.468  17.227  19.216  0.00  0.00    +0.000 C 
ATOM      8  C   UNL     1       6.993  17.187  18.998  0.00  0.00    +0.000 C 
ATOM      9  N   UNL     1       7.519  15.822  19.136  0.00  0.00    +0.000 N 
ATOM     10  C   UNL     1       8.465  15.525  20.116  0.00  0.00    +0.000 C 
ATOM     11  O   UNL     1       8.969  16.412  20.802  0.00  0.00    +0.000 OA
ATOM     12  C   UNL     1       6.966  14.915  18.128  0.00  0.00    +0.000 C 
ENDROOT
BRANCH  10  13
ATOM     13  C   UNL     1       8.872  14.092  20.354  0.00  0.00    +0.000 A 
ATOM     14  C   UNL     1       8.482  13.534  21.515  0.00  0.00    +0.000 A 
ATOM     15  C   UNL     1       8.700  12.099  21.810  0.00  0.00    +0.000 A 
ATOM     16  O   UNL     1       8.167  11.568  22.781  0.00  0.00    +0.000 OA
ATOM     17  N   UNL     1       9.494  11.407  20.948  0.00  0.00    +0.000 N 
ATOM     18  C   UNL     1      10.090  11.979  19.824  0.00  0.00    +0.000 A 
ATOM     19  C   UNL     1      10.974  11.197  19.074  0.00  0.00    +0.000 A 
ATOM     20  C   UNL     1      11.610  11.746  17.970  0.00  0.00    +0.000 A 
ATOM     21  C   UNL     1      11.349  13.067  17.612  0.00  0.00    +0.000 A 
ATOM     22  C   UNL     1      10.449  13.843  18.355  0.00  0.00    +0.000 A 
ATOM     23  C   UNL     1       9.804  13.314  19.486  0.00  0.00    +0.000 A 
ATOM     24  H   UNL     1       9.646  10.434  21.175  0.00  0.00    +0.000 HD
ENDBRANCH  10  13
BRANCH   6  25
ATOM     25  C   UNL     1       2.416  16.781  19.062  0.00  0.00    +0.000 C 
ATOM     26  O   UNL     1       2.098  17.682  18.282  0.00  0.00    +0.000 OA
ATOM     27  N   UNL     1       1.753  16.710  20.302  0.00  0.00    +0.000 N 
ATOM     28  C   UNL     1       1.875  15.667  21.303  0.00  0.00    +0.000 C 
ATOM     29  C   UNL     1       0.742  17.717  20.618  0.00  0.00    +0.000 C 
ENDBRANCH   6  25
TORSDOF 2
ENDMDL
MODEL 6
REMARK VINA RESULT:      -6.5      6.680     11.352
REMARK  Name = 
REMARK  5 active torsions:
REMARK  status: ('A' for Active; 'I' for Inactive)
REMARK    1  A    between atoms: C_1  and  C_2
REMARK    2  A    between atoms: C_6  and  C_7
REMARK    3  A    between atoms: N_9  and  C_10
REMARK    4  A    between atoms: N_9  and  C_11
REMARK    5  A    between atoms: C_15  and  C_17
REMARK                            x       y       z     vdW  Elec       q    Type
REMARK                         _______ _______ _______ _____ _____    ______ ____
ROOT
ATOM      1  C   UNL     1       1.962  13.304  18.501  0.00  0.00    +0.000 C 
ATOM      2  C   UNL     1       3.020  14.339  18.470  0.00  0.00    +0.000 A 
ATOM      3  N   UNL     1       4.266  13.887  18.088  0.00  0.00    +0.000 NA
ATOM      4  C   UNL     1       5.094  14.874  18.292  0.00  0.00    +0.000 A 
ATOM      5  N   UNL     1       4.427  15.977  18.764  0.00  0.00    +0.000 N 
ATOM      6  C   UNL     1       3.056  15.698  18.820  0.00  0.00    +0.000 A 
ATOM      7  C   UNL     1       5.126  17.168  19.231  0.00  0.00    +0.000 C 
ATOM      8  C   UNL     1       6.633  17.143  18.912  0.00  0.00    +0.000 C 
ATOM      9  N   UNL     1       7.186  15.788  19.044  0.00  0.00    +0.000 N 
ATOM     10  C   UNL     1       8.200  15.526  19.965  0.00  0.00    +0.000 C 
ATOM     11  O   UNL     1       8.736  16.435  20.596  0.00  0.00    +0.000 OA
ATOM     12  C   UNL     1       6.581  14.851  18.097  0.00  0.00    +0.000 C 
ENDROOT
BRANCH  10  13
ATOM     13  C   UNL     1       8.643  14.104  20.208  0.00  0.00    +0.000 A 
ATOM     14  C   UNL     1       8.315  13.559  21.393  0.00  0.00    +0.000 A 
ATOM     15  C   UNL     1       8.571  12.132  21.700  0.00  0.00    +0.000 A 
ATOM     16  O   UNL     1       8.091  11.608  22.702  0.00  0.00    +0.000 OA
ATOM     17  N   UNL     1       9.338  11.440  20.815  0.00  0.00    +0.000 N 
ATOM     18  C   UNL     1       9.873  12.004  19.656  0.00  0.00    +0.000 A 
ATOM     19  C   UNL     1      10.736  11.224  18.881  0.00  0.00    +0.000 A 
ATOM     20  C   UNL     1      11.313  11.766  17.740  0.00  0.00    +0.000 A 
ATOM     21  C   UNL     1      11.013  13.076  17.374  0.00  0.00    +0.000 A 
ATOM     22  C   UNL     1      10.133  13.849  18.144  0.00  0.00    +0.000 A 
ATOM     23  C   UNL     1       9.549  13.328  19.311  0.00  0.00    +0.000 A 
ATOM     24  H   UNL     1       9.517  10.473  21.050  0.00  0.00    +0.000 HD
ENDBRANCH  10  13
BRANCH   6  25
ATOM     25  C   UNL     1       2.077  16.680  19.293  0.00  0.00    +0.000 C 
ATOM     26  O   UNL     1       1.817  16.724  20.497  0.00  0.00    +0.000 OA
ATOM     27  N   UNL     1       1.466  17.623  18.444  0.00  0.00    +0.000 N 
ATOM     28  C   UNL     1       1.729  17.833  17.034  0.00  0.00    +0.000 C 
ATOM     29  C   UNL     1       0.535  18.591  19.022  0.00  0.00    +0.000 C 
ENDBRANCH   6  25
TORSDOF 2
ENDMDL
MODEL 7
REMARK VINA RESULT:      -6.4      2.455      6.615
REMARK  Name = 
REMARK  5 active torsions:
REMARK  status: ('A' for Active; 'I' for Inactive)
REMARK    1  A    between atoms: C_1  and  C_2
REMARK    2  A    between atoms: C_6  and  C_7
REMARK    3  A    between atoms: N_9  and  C_10
REMARK    4  A    between atoms: N_9  and  C_11
REMARK    5  A    between atoms: C_15  and  C_17
REMARK                            x       y       z     vdW  Elec       q    Type
REMARK                         _______ _______ _______ _____ _____    ______ ____
ROOT
ATOM      1  C   UNL     1      -5.698  12.657  24.131  0.00  0.00    +0.000 C 
ATOM      2  C   UNL     1      -4.848  13.244  23.070  0.00  0.00    +0.000 A 
ATOM      3  N   UNL     1      -4.306  12.332  22.188  0.00  0.00    +0.000 NA
ATOM      4  C   UNL     1      -3.457  12.994  21.451  0.00  0.00    +0.000 A 
ATOM      5  N   UNL     1      -3.448  14.322  21.796  0.00  0.00    +0.000 N 
ATOM      6  C   UNL     1      -4.403  14.546  22.797  0.00  0.00    +0.000 A 
ATOM      7  C   UNL     1      -2.479  15.262  21.247  0.00  0.00    +0.000 C 
ATOM      8  C   UNL     1      -1.655  14.666  20.090  0.00  0.00    +0.000 C 
ATOM      9  N   UNL     1      -1.349  13.248  20.324  0.00  0.00    +0.000 N 
ATOM     10  C   UNL     1      -0.027  12.816  20.416  0.00  0.00    +0.000 C 
ATOM     11  O   UNL     1       0.908  13.579  20.184  0.00  0.00    +0.000 OA
ATOM     12  C   UNL     1      -2.561  12.428  20.391  0.00  0.00    +0.000 C 
ENDROOT
BRANCH  10  13
ATOM     13  C   UNL     1       0.270  11.392  20.820  0.00  0.00    +0.000 A 
ATOM     14  C   UNL     1       0.116  11.085  22.121  0.00  0.00    +0.000 A 
ATOM     15  C   UNL     1       0.243   9.697  22.621  0.00  0.00    +0.000 A 
ATOM     16  O   UNL     1      -0.092   9.407  23.766  0.00  0.00    +0.000 OA
ATOM     17  N   UNL     1       0.726   8.770  21.749  0.00  0.00    +0.000 N 
ATOM     18  C   UNL     1       1.089   9.067  20.435  0.00  0.00    +0.000 A 
ATOM     19  C   UNL     1       1.675   8.055  19.667  0.00  0.00    +0.000 A 
ATOM     20  C   UNL     1       2.079   8.327  18.367  0.00  0.00    +0.000 A 
ATOM     21  C   UNL     1       1.883   9.601  17.838  0.00  0.00    +0.000 A 
ATOM     22  C   UNL     1       1.278  10.607  18.604  0.00  0.00    +0.000 A 
ATOM     23  C   UNL     1       0.874  10.361  19.927  0.00  0.00    +0.000 A 
ATOM     24  H   UNL     1       0.823   7.832  22.113  0.00  0.00    +0.000 HD
ENDBRANCH  10  13
BRANCH   6  25
ATOM     25  C   UNL     1      -4.626  15.870  23.382  0.00  0.00    +0.000 C 
ATOM     26  O   UNL     1      -5.444  16.623  22.849  0.00  0.00    +0.000 OA
ATOM     27  N   UNL     1      -3.998  16.301  24.566  0.00  0.00    +0.000 N 
ATOM     28  C   UNL     1      -3.114  15.531  25.419  0.00  0.00    +0.000 C 
ATOM     29  C   UNL     1      -4.322  17.625  25.093  0.00  0.00    +0.000 C 
ENDBRANCH   6  25
TORSDOF 2
ENDMDL
MODEL 8
REMARK VINA RESULT:      -6.4      1.527      1.760
REMARK  Name = 
REMARK  5 active torsions:
REMARK  status: ('A' for Active; 'I' for Inactive)
REMARK    1  A    between atoms: C_1  and  C_2
REMARK    2  A    between atoms: C_6  and  C_7
REMARK    3  A    between atoms: N_9  and  C_10
REMARK    4  A    between atoms: N_9  and  C_11
REMARK    5  A    between atoms: C_15  and  C_17
REMARK                            x       y       z     vdW  Elec       q    Type
REMARK                         _______ _______ _______ _____ _____    ______ ____
ROOT
ATOM      1  C   UNL     1       0.347  10.307  21.116  0.00  0.00    +0.000 C 
ATOM      2  C   UNL     1      -0.188  11.684  21.222  0.00  0.00    +0.000 A 
ATOM      3  N   UNL     1      -1.259  11.828  22.079  0.00  0.00    +0.000 NA
ATOM      4  C   UNL     1      -1.704  13.042  21.910  0.00  0.00    +0.000 A 
ATOM      5  N   UNL     1      -0.938  13.716  20.992  0.00  0.00    +0.000 N 
ATOM      6  C   UNL     1       0.116  12.892  20.576  0.00  0.00    +0.000 A 
ATOM      7  C   UNL     1      -1.305  15.035  20.491  0.00  0.00    +0.000 C 
ATOM      8  C   UNL     1      -2.476  15.667  21.267  0.00  0.00    +0.000 C 
ATOM      9  N   UNL     1      -3.468  14.656  21.657  0.00  0.00    +0.000 N 
ATOM     10  C   UNL     1      -4.783  14.743  21.200  0.00  0.00    +0.000 C 
ATOM     11  O   UNL     1      -5.172  15.722  20.567  0.00  0.00    +0.000 OA
ATOM     12  C   UNL     1      -2.906  13.654  22.565  0.00  0.00    +0.000 C 
ENDROOT
BRANCH  10  13
ATOM     13  C   UNL     1      -5.746  13.614  21.471  0.00  0.00    +0.000 A 
ATOM     14  C   UNL     1      -6.264  13.541  22.711  0.00  0.00    +0.000 A 
ATOM     15  C   UNL     1      -7.321  12.566  23.066  0.00  0.00    +0.000 A 
ATOM     16  O   UNL     1      -7.916  12.644  24.137  0.00  0.00    +0.000 OA
ATOM     17  N   UNL     1      -7.605  11.605  22.146  0.00  0.00    +0.000 N 
ATOM     18  C   UNL     1      -6.963  11.508  20.911  0.00  0.00    +0.000 A 
ATOM     19  C   UNL     1      -7.263  10.413  20.094  0.00  0.00    +0.000 A 
ATOM     20  C   UNL     1      -6.616  10.269  18.874  0.00  0.00    +0.000 A 
ATOM     21  C   UNL     1      -5.686  11.226  18.472  0.00  0.00    +0.000 A 
ATOM     22  C   UNL     1      -5.402  12.332  19.285  0.00  0.00    +0.000 A 
ATOM     23  C   UNL     1      -6.032  12.491  20.530  0.00  0.00    +0.000 A 
ATOM     24  H   UNL     1      -8.316  10.937  22.412  0.00  0.00    +0.000 HD
ENDBRANCH  10  13
BRANCH   6  25
ATOM     25  C   UNL     1       1.107  13.328  19.590  0.00  0.00    +0.000 C 
ATOM     26  O   UNL     1       0.884  13.122  18.395  0.00  0.00    +0.000 OA
ATOM     27  N   UNL     1       2.275  14.034  19.937  0.00  0.00    +0.000 N 
ATOM     28  C   UNL     1       2.660  14.496  21.256  0.00  0.00    +0.000 C 
ATOM     29  C   UNL     1       3.180  14.464  18.873  0.00  0.00    +0.000 C 
ENDBRANCH   6  25
TORSDOF 2
ENDMDL
MODEL 9
REMARK VINA RESULT:      -6.3      7.261     11.431
REMARK  Name = 
REMARK  5 active torsions:
REMARK  status: ('A' for Active; 'I' for Inactive)
REMARK    1  A    between atoms: C_1  and  C_2
REMARK    2  A    between atoms: C_6  and  C_7
REMARK    3  A    between atoms: N_9  and  C_10
REMARK    4  A    between atoms: N_9  and  C_11
REMARK    5  A    between atoms: C_15  and  C_17
REMARK                            x       y       z     vdW  Elec       q    Type
REMARK                         _______ _______ _______ _____ _____    ______ ____
ROOT
ATOM      1  C   UNL     1       2.694  13.518  18.329  0.00  0.00    +0.000 C 
ATOM      2  C   UNL     1       3.812  14.486  18.256  0.00  0.00    +0.000 A 
ATOM      3  N   UNL     1       5.061  13.922  18.098  0.00  0.00    +0.000 NA
ATOM      4  C   UNL     1       5.922  14.892  18.236  0.00  0.00    +0.000 A 
ATOM      5  N   UNL     1       5.279  16.086  18.445  0.00  0.00    +0.000 N 
ATOM      6  C   UNL     1       3.894  15.881  18.385  0.00  0.00    +0.000 A 
ATOM      7  C   UNL     1       5.996  17.306  18.793  0.00  0.00    +0.000 C 
ATOM      8  C   UNL     1       7.524  17.162  18.659  0.00  0.00    +0.000 C 
ATOM      9  N   UNL     1       7.975  15.825  19.069  0.00  0.00    +0.000 N 
ATOM     10  C   UNL     1       8.865  15.675  20.132  0.00  0.00    +0.000 C 
ATOM     11  O   UNL     1       9.387  16.652  20.666  0.00  0.00    +0.000 OA
ATOM     12  C   UNL     1       7.416  14.771  18.220  0.00  0.00    +0.000 C 
ENDROOT
BRANCH  10  13
ATOM     13  C   UNL     1       9.190  14.295  20.648  0.00  0.00    +0.000 A 
ATOM     14  C   UNL     1      10.222  13.656  20.068  0.00  0.00    +0.000 A 
ATOM     15  C   UNL     1      10.727  12.358  20.572  0.00  0.00    +0.000 A 
ATOM     16  O   UNL     1      11.784  11.889  20.158  0.00  0.00    +0.000 OA
ATOM     17  N   UNL     1       9.977  11.732  21.519  0.00  0.00    +0.000 N 
ATOM     18  C   UNL     1       8.786  12.254  22.026  0.00  0.00    +0.000 A 
ATOM     19  C   UNL     1       8.046  11.468  22.915  0.00  0.00    +0.000 A 
ATOM     20  C   UNL     1       6.840  11.944  23.412  0.00  0.00    +0.000 A 
ATOM     21  C   UNL     1       6.388  13.205  23.028  0.00  0.00    +0.000 A 
ATOM     22  C   UNL     1       7.141  13.997  22.151  0.00  0.00    +0.000 A 
ATOM     23  C   UNL     1       8.358  13.531  21.624  0.00  0.00    +0.000 A 
ATOM     24  H   UNL     1      10.327  10.838  21.839  0.00  0.00    +0.000 HD
ENDBRANCH  10  13
BRANCH   6  25
ATOM     25  C   UNL     1       2.934  16.970  18.578  0.00  0.00    +0.000 C 
ATOM     26  O   UNL     1       2.504  17.564  17.587  0.00  0.00    +0.000 OA
ATOM     27  N   UNL     1       2.425  17.328  19.842  0.00  0.00    +0.000 N 
ATOM     28  C   UNL     1       2.690  16.678  21.110  0.00  0.00    +0.000 C 
ATOM     29  C   UNL     1       1.436  18.401  19.923  0.00  0.00    +0.000 C 
ENDBRANCH   6  25
TORSDOF 2
ENDMDL
