MODEL 1
REMARK VINA RESULT:      -6.6      0.000      0.000
REMARK  Name = 
REMARK  10 active torsions:
REMARK  status: ('A' for Active; 'I' for Inactive)
REMARK    1  A    between atoms: C_1  and  C_2
REMARK    2  A    between atoms: C_2  and  C_3
REMARK    3  A    between atoms: C_3  and  N_4
REMARK    4  A    between atoms: C_8  and  S_9
REMARK    5  A    between atoms: S_9  and  N_12
REMARK    6  A    between atoms: N_12  and  C_13
REMARK    7  A    between atoms: C_13  and  C_14
REMARK    8  A    between atoms: C_14  and  N_15
REMARK    9  A    between atoms: C_20  and  C_21
REMARK   10  A    between atoms: C_21  and  O_22
REMARK                            x       y       z     vdW  Elec       q    Type
REMARK                         _______ _______ _______ _____ _____    ______ ____
ROOT
ATOM      1  N   UNL     1       5.555   4.228  15.745  0.00  0.00    +0.000 NA
ATOM      2  H   UNL     1       6.074   3.404  16.051  0.00  0.00    +0.000 HD
ENDROOT
BRANCH   1   3
ATOM      3  S   UNL     1       6.427   5.654  15.779  0.00  0.00    +0.000 S 
ATOM      4  O   UNL     1       5.498   6.758  15.703  0.00  0.00    +0.000 OA
ATOM      5  O   UNL     1       7.542   5.514  14.877  0.00  0.00    +0.000 OA
BRANCH   3  10
ATOM      6  N   UNL     1       7.664   6.910  17.942  0.00  0.00    +0.000 N 
ATOM      7  N   UNL     1       8.208   6.705  19.165  0.00  0.00    +0.000 NA
ATOM      8  C   UNL     1       7.940   5.428  19.431  0.00  0.00    +0.000 A 
ATOM      9  C   UNL     1       7.264   4.805  18.380  0.00  0.00    +0.000 A 
ATOM     10  C   UNL     1       7.113   5.774  17.401  0.00  0.00    +0.000 A 
BRANCH   6  11
ATOM     11  C   UNL     1       7.770   8.248  17.384  0.00  0.00    +0.000 C 
BRANCH  11  13
ATOM     12  C   UNL     1       8.475  10.627  17.798  0.00  0.00    +0.000 C 
ATOM     13  C   UNL     1       8.519   9.198  18.313  0.00  0.00    +0.000 C 
ENDBRANCH  11  13
ENDBRANCH   6  11
ENDBRANCH   3  10
ENDBRANCH   1   3
BRANCH   1  14
ATOM     14  C   UNL     1       4.162   4.281  16.220  0.00  0.00    +0.000 C 
BRANCH  14  15
ATOM     15  C   UNL     1       4.003   3.393  17.472  0.00  0.00    +0.000 C 
BRANCH  15  16
ATOM     16  N   UNL     1       2.750   3.609  18.260  0.00  0.00    +0.000 NA
ATOM     17  C   UNL     1       2.000   2.332  18.354  0.00  0.00    +0.000 C 
ATOM     18  C   UNL     1       0.716   2.460  19.168  0.00  0.00    +0.000 C 
ATOM     19  C   UNL     1       1.014   2.960  20.568  0.00  0.00    +0.000 C 
ATOM     20  C   UNL     1       1.800   4.258  20.487  0.00  0.00    +0.000 C 
ATOM     21  C   UNL     1       3.083   4.107  19.638  0.00  0.00    +0.000 C 
BRANCH  21  22
ATOM     22  C   UNL     1       3.814   5.477  19.648  0.00  0.00    +0.000 C 
BRANCH  22  23
ATOM     23  O   UNL     1       2.934   6.542  20.006  0.00  0.00    +0.000 OA
ATOM     24  H   UNL     1       2.268   6.148  20.601  0.00  0.00    +0.000 HD
ENDBRANCH  22  23
ENDBRANCH  21  22
ENDBRANCH  15  16
ENDBRANCH  14  15
ENDBRANCH   1  14
TORSDOF 9
ENDMDL
MODEL 2
REMARK VINA RESULT:      -6.5      2.182      2.804
REMARK  Name = 
REMARK  10 active torsions:
REMARK  status: ('A' for Active; 'I' for Inactive)
REMARK    1  A    between atoms: C_1  and  C_2
REMARK    2  A    between atoms: C_2  and  C_3
REMARK    3  A    between atoms: C_3  and  N_4
REMARK    4  A    between atoms: C_8  and  S_9
REMARK    5  A    between atoms: S_9  and  N_12
REMARK    6  A    between atoms: N_12  and  C_13
REMARK    7  A    between atoms: C_13  and  C_14
REMARK    8  A    between atoms: C_14  and  N_15
REMARK    9  A    between atoms: C_20  and  C_21
REMARK   10  A    between atoms: C_21  and  O_22
REMARK                            x       y       z     vdW  Elec       q    Type
REMARK                         _______ _______ _______ _____ _____    ______ ____
ROOT
ATOM      1  N   UNL     1       4.516   5.732  19.352  0.00  0.00    +0.000 NA
ATOM      2  H   UNL     1       4.537   6.413  20.112  0.00  0.00    +0.000 HD
ENDROOT
BRANCH   1   3
ATOM      3  S   UNL     1       5.891   4.789  19.221  0.00  0.00    +0.000 S 
ATOM      4  O   UNL     1       5.496   3.400  19.262  0.00  0.00    +0.000 OA
ATOM      5  O   UNL     1       6.891   5.339  20.100  0.00  0.00    +0.000 OA
BRANCH   3  10
ATOM      6  N   UNL     1       7.342   6.026  17.184  0.00  0.00    +0.000 N 
ATOM      7  N   UNL     1       7.570   6.036  15.849  0.00  0.00    +0.000 NA
ATOM      8  C   UNL     1       6.899   4.978  15.396  0.00  0.00    +0.000 A 
ATOM      9  C   UNL     1       6.219   4.313  16.419  0.00  0.00    +0.000 A 
ATOM     10  C   UNL     1       6.492   5.021  17.577  0.00  0.00    +0.000 A 
BRANCH   6  11
ATOM     11  C   UNL     1       7.982   7.065  17.974  0.00  0.00    +0.000 C 
BRANCH  11  13
ATOM     12  C   UNL     1       8.461   9.529  18.130  0.00  0.00    +0.000 C 
ATOM     13  C   UNL     1       7.562   8.462  17.530  0.00  0.00    +0.000 C 
ENDBRANCH  11  13
ENDBRANCH   6  11
ENDBRANCH   3  10
ENDBRANCH   1   3
BRANCH   1  14
ATOM     14  C   UNL     1       3.924   6.236  18.101  0.00  0.00    +0.000 C 
BRANCH  14  15
ATOM     15  C   UNL     1       2.393   6.053  18.137  0.00  0.00    +0.000 C 
BRANCH  15  16
ATOM     16  N   UNL     1       1.915   4.641  18.258  0.00  0.00    +0.000 NA
ATOM     17  C   UNL     1       2.681   3.779  17.324  0.00  0.00    +0.000 C 
ATOM     18  C   UNL     1       2.272   2.312  17.403  0.00  0.00    +0.000 C 
ATOM     19  C   UNL     1       2.441   1.781  18.814  0.00  0.00    +0.000 C 
ATOM     20  C   UNL     1       1.677   2.667  19.784  0.00  0.00    +0.000 C 
ATOM     21  C   UNL     1       2.094   4.150  19.667  0.00  0.00    +0.000 C 
BRANCH  21  22
ATOM     22  C   UNL     1       1.276   4.951  20.717  0.00  0.00    +0.000 C 
BRANCH  22  23
ATOM     23  O   UNL     1       2.081   5.924  21.381  0.00  0.00    +0.000 OA
ATOM     24  H   UNL     1       2.961   5.873  20.962  0.00  0.00    +0.000 HD
ENDBRANCH  22  23
ENDBRANCH  21  22
ENDBRANCH  15  16
ENDBRANCH  14  15
ENDBRANCH   1  14
TORSDOF 9
ENDMDL
MODEL 3
REMARK VINA RESULT:      -6.4      1.531      1.700
REMARK  Name = 
REMARK  10 active torsions:
REMARK  status: ('A' for Active; 'I' for Inactive)
REMARK    1  A    between atoms: C_1  and  C_2
REMARK    2  A    between atoms: C_2  and  C_3
REMARK    3  A    between atoms: C_3  and  N_4
REMARK    4  A    between atoms: C_8  and  S_9
REMARK    5  A    between atoms: S_9  and  N_12
REMARK    6  A    between atoms: N_12  and  C_13
REMARK    7  A    between atoms: C_13  and  C_14
REMARK    8  A    between atoms: C_14  and  N_15
REMARK    9  A    between atoms: C_20  and  C_21
REMARK   10  A    between atoms: C_21  and  O_22
REMARK                            x       y       z     vdW  Elec       q    Type
REMARK                         _______ _______ _______ _____ _____    ______ ____
ROOT
ATOM      1  N   UNL     1       4.959   4.723  15.919  0.00  0.00    +0.000 NA
ATOM      2  H   UNL     1       5.275   3.757  15.823  0.00  0.00    +0.000 HD
ENDROOT
BRANCH   1   3
ATOM      3  S   UNL     1       6.177   5.866  15.841  0.00  0.00    +0.000 S 
ATOM      4  O   UNL     1       5.569   7.174  15.754  0.00  0.00    +0.000 OA
ATOM      5  O   UNL     1       7.160   5.403  14.895  0.00  0.00    +0.000 OA
BRANCH   3  10
ATOM      6  N   UNL     1       7.589   6.937  17.996  0.00  0.00    +0.000 N 
ATOM      7  N   UNL     1       8.198   6.635  19.167  0.00  0.00    +0.000 NA
ATOM      8  C   UNL     1       7.899   5.352  19.368  0.00  0.00    +0.000 A 
ATOM      9  C   UNL     1       7.138   4.822  18.325  0.00  0.00    +0.000 A 
ATOM     10  C   UNL     1       6.964   5.857  17.420  0.00  0.00    +0.000 A 
BRANCH   6  11
ATOM     11  C   UNL     1       7.710   8.304  17.518  0.00  0.00    +0.000 C 
BRANCH  11  13
ATOM     12  C   UNL     1       8.739  10.567  17.898  0.00  0.00    +0.000 C 
ATOM     13  C   UNL     1       8.671   9.126  18.371  0.00  0.00    +0.000 C 
ENDBRANCH  11  13
ENDBRANCH   6  11
ENDBRANCH   3  10
ENDBRANCH   1   3
BRANCH   1  14
ATOM     14  C   UNL     1       3.914   4.923  16.937  0.00  0.00    +0.000 C 
BRANCH  14  15
ATOM     15  C   UNL     1       3.692   3.613  17.722  0.00  0.00    +0.000 C 
BRANCH  15  16
ATOM     16  N   UNL     1       3.160   3.775  19.110  0.00  0.00    +0.000 NA
ATOM     17  C   UNL     1       1.717   4.114  19.049  0.00  0.00    +0.000 C 
ATOM     18  C   UNL     1       1.088   4.273  20.429  0.00  0.00    +0.000 C 
ATOM     19  C   UNL     1       1.263   3.009  21.249  0.00  0.00    +0.000 C 
ATOM     20  C   UNL     1       2.735   2.639  21.304  0.00  0.00    +0.000 C 
ATOM     21  C   UNL     1       3.353   2.507  19.893  0.00  0.00    +0.000 C 
BRANCH  21  22
ATOM     22  C   UNL     1       4.842   2.102  20.071  0.00  0.00    +0.000 C 
BRANCH  22  23
ATOM     23  O   UNL     1       5.086   1.546  21.362  0.00  0.00    +0.000 OA
ATOM     24  H   UNL     1       5.115   0.578  21.234  0.00  0.00    +0.000 HD
ENDBRANCH  22  23
ENDBRANCH  21  22
ENDBRANCH  15  16
ENDBRANCH  14  15
ENDBRANCH   1  14
TORSDOF 9
ENDMDL
MODEL 4
REMARK VINA RESULT:      -6.3      2.342      3.218
REMARK  Name = 
REMARK  10 active torsions:
REMARK  status: ('A' for Active; 'I' for Inactive)
REMARK    1  A    between atoms: C_1  and  C_2
REMARK    2  A    between atoms: C_2  and  C_3
REMARK    3  A    between atoms: C_3  and  N_4
REMARK    4  A    between atoms: C_8  and  S_9
REMARK    5  A    between atoms: S_9  and  N_12
REMARK    6  A    between atoms: N_12  and  C_13
REMARK    7  A    between atoms: C_13  and  C_14
REMARK    8  A    between atoms: C_14  and  N_15
REMARK    9  A    between atoms: C_20  and  C_21
REMARK   10  A    between atoms: C_21  and  O_22
REMARK                            x       y       z     vdW  Elec       q    Type
REMARK                         _______ _______ _______ _____ _____    ______ ____
ROOT
ATOM      1  N   UNL     1       4.644   6.005  19.846  0.00  0.00    +0.000 NA
ATOM      2  H   UNL     1       5.008   6.814  20.351  0.00  0.00    +0.000 HD
ENDROOT
BRANCH   1   3
ATOM      3  S   UNL     1       5.816   4.968  19.255  0.00  0.00    +0.000 S 
ATOM      4  O   UNL     1       5.343   3.612  19.409  0.00  0.00    +0.000 OA
ATOM      5  O   UNL     1       7.092   5.407  19.760  0.00  0.00    +0.000 OA
BRANCH   3  10
ATOM      6  N   UNL     1       6.119   6.418  16.890  0.00  0.00    +0.000 N 
ATOM      7  N   UNL     1       5.994   6.358  15.543  0.00  0.00    +0.000 NA
ATOM      8  C   UNL     1       5.710   5.079  15.299  0.00  0.00    +0.000 A 
ATOM      9  C   UNL     1       5.619   4.329  16.473  0.00  0.00    +0.000 A 
ATOM     10  C   UNL     1       5.860   5.218  17.508  0.00  0.00    +0.000 A 
BRANCH   6  11
ATOM     11  C   UNL     1       6.464   7.706  17.469  0.00  0.00    +0.000 C 
BRANCH  11  13
ATOM     12  C   UNL     1       8.325   9.273  18.104  0.00  0.00    +0.000 C 
ATOM     13  C   UNL     1       7.971   7.872  17.637  0.00  0.00    +0.000 C 
ENDBRANCH  11  13
ENDBRANCH   6  11
ENDBRANCH   3  10
ENDBRANCH   1   3
BRANCH   1  14
ATOM     14  C   UNL     1       3.501   6.300  18.965  0.00  0.00    +0.000 C 
BRANCH  14  15
ATOM     15  C   UNL     1       2.211   5.706  19.568  0.00  0.00    +0.000 C 
BRANCH  15  16
ATOM     16  N   UNL     1       1.777   4.395  18.997  0.00  0.00    +0.000 NA
ATOM     17  C   UNL     1       2.431   4.189  17.681  0.00  0.00    +0.000 C 
ATOM     18  C   UNL     1       2.059   2.857  17.038  0.00  0.00    +0.000 C 
ATOM     19  C   UNL     1       2.416   1.700  17.951  0.00  0.00    +0.000 C 
ATOM     20  C   UNL     1       1.768   1.907  19.310  0.00  0.00    +0.000 C 
ATOM     21  C   UNL     1       2.142   3.274  19.928  0.00  0.00    +0.000 C 
BRANCH  21  22
ATOM     22  C   UNL     1       1.452   3.364  21.317  0.00  0.00    +0.000 C 
BRANCH  22  23
ATOM     23  O   UNL     1       2.363   3.077  22.377  0.00  0.00    +0.000 OA
ATOM     24  H   UNL     1       2.129   3.688  23.102  0.00  0.00    +0.000 HD
ENDBRANCH  22  23
ENDBRANCH  21  22
ENDBRANCH  15  16
ENDBRANCH  14  15
ENDBRANCH   1  14
TORSDOF 9
ENDMDL
MODEL 5
REMARK VINA RESULT:      -6.3      2.665      4.015
REMARK  Name = 
REMARK  10 active torsions:
REMARK  status: ('A' for Active; 'I' for Inactive)
REMARK    1  A    between atoms: C_1  and  C_2
REMARK    2  A    between atoms: C_2  and  C_3
REMARK    3  A    between atoms: C_3  and  N_4
REMARK    4  A    between atoms: C_8  and  S_9
REMARK    5  A    between atoms: S_9  and  N_12
REMARK    6  A    between atoms: N_12  and  C_13
REMARK    7  A    between atoms: C_13  and  C_14
REMARK    8  A    between atoms: C_14  and  N_15
REMARK    9  A    between atoms: C_20  and  C_21
REMARK   10  A    between atoms: C_21  and  O_22
REMARK                            x       y       z     vdW  Elec       q    Type
REMARK                         _______ _______ _______ _____ _____    ______ ____
ROOT
ATOM      1  N   UNL     1       6.519   5.120  19.751  0.00  0.00    +0.000 NA
ATOM      2  H   UNL     1       6.732   5.630  20.609  0.00  0.00    +0.000 HD
ENDROOT
BRANCH   1   3
ATOM      3  S   UNL     1       7.435   5.572  18.426  0.00  0.00    +0.000 S 
ATOM      4  O   UNL     1       8.034   4.386  17.860  0.00  0.00    +0.000 OA
ATOM      5  O   UNL     1       8.206   6.731  18.795  0.00  0.00    +0.000 OA
BRANCH   3  10
ATOM      6  N   UNL     1       6.205   5.601  15.922  0.00  0.00    +0.000 N 
ATOM      7  N   UNL     1       5.308   6.257  15.147  0.00  0.00    +0.000 NA
ATOM      8  C   UNL     1       4.768   7.159  15.966  0.00  0.00    +0.000 A 
ATOM      9  C   UNL     1       5.333   7.111  17.243  0.00  0.00    +0.000 A 
ATOM     10  C   UNL     1       6.289   6.109  17.195  0.00  0.00    +0.000 A 
BRANCH   6  11
ATOM     11  C   UNL     1       6.947   4.515  15.304  0.00  0.00    +0.000 C 
BRANCH  11  13
ATOM     12  C   UNL     1       6.125   3.569  13.123  0.00  0.00    +0.000 C 
ATOM     13  C   UNL     1       6.980   4.637  13.783  0.00  0.00    +0.000 C 
ENDBRANCH  11  13
ENDBRANCH   6  11
ENDBRANCH   3  10
ENDBRANCH   1   3
BRANCH   1  14
ATOM     14  C   UNL     1       5.084   4.878  19.525  0.00  0.00    +0.000 C 
BRANCH  14  15
ATOM     15  C   UNL     1       4.843   3.377  19.262  0.00  0.00    +0.000 C 
BRANCH  15  16
ATOM     16  N   UNL     1       3.493   2.863  19.650  0.00  0.00    +0.000 NA
ATOM     17  C   UNL     1       3.229   3.195  21.072  0.00  0.00    +0.000 C 
ATOM     18  C   UNL     1       1.856   2.727  21.543  0.00  0.00    +0.000 C 
ATOM     19  C   UNL     1       0.759   3.327  20.686  0.00  0.00    +0.000 C 
ATOM     20  C   UNL     1       1.028   3.011  19.224  0.00  0.00    +0.000 C 
ATOM     21  C   UNL     1       2.433   3.475  18.779  0.00  0.00    +0.000 C 
BRANCH  21  22
ATOM     22  C   UNL     1       2.585   3.129  17.272  0.00  0.00    +0.000 C 
BRANCH  22  23
ATOM     23  O   UNL     1       2.180   1.790  16.996  0.00  0.00    +0.000 OA
ATOM     24  H   UNL     1       2.886   1.218  17.354  0.00  0.00    +0.000 HD
ENDBRANCH  22  23
ENDBRANCH  21  22
ENDBRANCH  15  16
ENDBRANCH  14  15
ENDBRANCH   1  14
TORSDOF 9
ENDMDL
MODEL 6
REMARK VINA RESULT:      -6.2      2.314      3.236
REMARK  Name = 
REMARK  10 active torsions:
REMARK  status: ('A' for Active; 'I' for Inactive)
REMARK    1  A    between atoms: C_1  and  C_2
REMARK    2  A    between atoms: C_2  and  C_3
REMARK    3  A    between atoms: C_3  and  N_4
REMARK    4  A    between atoms: C_8  and  S_9
REMARK    5  A    between atoms: S_9  and  N_12
REMARK    6  A    between atoms: N_12  and  C_13
REMARK    7  A    between atoms: C_13  and  C_14
REMARK    8  A    between atoms: C_14  and  N_15
REMARK    9  A    between atoms: C_20  and  C_21
REMARK   10  A    between atoms: C_21  and  O_22
REMARK                            x       y       z     vdW  Elec       q    Type
REMARK                         _______ _______ _______ _____ _____    ______ ____
ROOT
ATOM      1  N   UNL     1       3.667   5.438  17.434  0.00  0.00    +0.000 NA
ATOM      2  H   UNL     1       2.780   5.044  17.120  0.00  0.00    +0.000 HD
ENDROOT
BRANCH   1   3
ATOM      3  S   UNL     1       4.909   4.328  17.583  0.00  0.00    +0.000 S 
ATOM      4  O   UNL     1       4.382   3.014  17.295  0.00  0.00    +0.000 OA
ATOM      5  O   UNL     1       5.629   4.627  18.794  0.00  0.00    +0.000 OA
BRANCH   3  10
ATOM      6  N   UNL     1       7.076   5.530  16.300  0.00  0.00    +0.000 N 
ATOM      7  N   UNL     1       7.710   5.665  15.111  0.00  0.00    +0.000 NA
ATOM      8  C   UNL     1       7.082   4.807  14.308  0.00  0.00    +0.000 A 
ATOM      9  C   UNL     1       6.034   4.152  14.958  0.00  0.00    +0.000 A 
ATOM     10  C   UNL     1       6.021   4.651  16.251  0.00  0.00    +0.000 A 
BRANCH   6  11
ATOM     11  C   UNL     1       7.566   6.332  17.409  0.00  0.00    +0.000 C 
BRANCH  11  13
ATOM     12  C   UNL     1       8.212   8.696  17.974  0.00  0.00    +0.000 C 
ATOM     13  C   UNL     1       7.219   7.809  17.244  0.00  0.00    +0.000 C 
ENDBRANCH  11  13
ENDBRANCH   6  11
ENDBRANCH   3  10
ENDBRANCH   1   3
BRANCH   1  14
ATOM     14  C   UNL     1       3.542   6.452  18.495  0.00  0.00    +0.000 C 
BRANCH  14  15
ATOM     15  C   UNL     1       2.401   6.062  19.458  0.00  0.00    +0.000 C 
BRANCH  15  16
ATOM     16  N   UNL     1       2.381   4.629  19.886  0.00  0.00    +0.000 NA
ATOM     17  C   UNL     1       2.459   4.556  21.366  0.00  0.00    +0.000 C 
ATOM     18  C   UNL     1       2.419   3.124  21.890  0.00  0.00    +0.000 C 
ATOM     19  C   UNL     1       1.160   2.417  21.428  0.00  0.00    +0.000 C 
ATOM     20  C   UNL     1       1.056   2.502  19.915  0.00  0.00    +0.000 C 
ATOM     21  C   UNL     1       1.122   3.961  19.409  0.00  0.00    +0.000 C 
BRANCH  21  22
ATOM     22  C   UNL     1       0.979   3.928  17.863  0.00  0.00    +0.000 C 
BRANCH  22  23
ATOM     23  O   UNL     1       1.716   2.849  17.289  0.00  0.00    +0.000 OA
ATOM     24  H   UNL     1       1.466   2.828  16.345  0.00  0.00    +0.000 HD
ENDBRANCH  22  23
ENDBRANCH  21  22
ENDBRANCH  15  16
ENDBRANCH  14  15
ENDBRANCH   1  14
TORSDOF 9
ENDMDL
MODEL 7
REMARK VINA RESULT:      -6.2      3.397      4.907
REMARK  Name = 
REMARK  10 active torsions:
REMARK  status: ('A' for Active; 'I' for Inactive)
REMARK    1  A    between atoms: C_1  and  C_2
REMARK    2  A    between atoms: C_2  and  C_3
REMARK    3  A    between atoms: C_3  and  N_4
REMARK    4  A    between atoms: C_8  and  S_9
REMARK    5  A    between atoms: S_9  and  N_12
REMARK    6  A    between atoms: N_12  and  C_13
REMARK    7  A    between atoms: C_13  and  C_14
REMARK    8  A    between atoms: C_14  and  N_15
REMARK    9  A    between atoms: C_20  and  C_21
REMARK   10  A    between atoms: C_21  and  O_22
REMARK                            x       y       z     vdW  Elec       q    Type
REMARK                         _______ _______ _______ _____ _____    ______ ____
ROOT
ATOM      1  N   UNL     1       3.279   4.234  19.661  0.00  0.00    +0.000 NA
ATOM      2  H   UNL     1       3.988   4.596  20.300  0.00  0.00    +0.000 HD
ENDROOT
BRANCH   1   3
ATOM      3  S   UNL     1       3.874   3.686  18.198  0.00  0.00    +0.000 S 
ATOM      4  O   UNL     1       3.086   4.272  17.138  0.00  0.00    +0.000 OA
ATOM      5  O   UNL     1       4.091   2.267  18.311  0.00  0.00    +0.000 OA
BRANCH   3  10
ATOM      6  N   UNL     1       6.269   4.291  16.899  0.00  0.00    +0.000 N 
ATOM      7  N   UNL     1       7.484   4.870  17.051  0.00  0.00    +0.000 NA
ATOM      8  C   UNL     1       7.430   5.428  18.259  0.00  0.00    +0.000 A 
ATOM      9  C   UNL     1       6.210   5.185  18.894  0.00  0.00    +0.000 A 
ATOM     10  C   UNL     1       5.469   4.419  18.009  0.00  0.00    +0.000 A 
BRANCH   6  11
ATOM     11  C   UNL     1       6.009   3.614  15.639  0.00  0.00    +0.000 C 
BRANCH  11  13
ATOM     12  C   UNL     1       6.148   3.739  13.131  0.00  0.00    +0.000 C 
ATOM     13  C   UNL     1       6.388   4.475  14.438  0.00  0.00    +0.000 C 
ENDBRANCH  11  13
ENDBRANCH   6  11
ENDBRANCH   3  10
ENDBRANCH   1   3
BRANCH   1  14
ATOM     14  C   UNL     1       2.032   5.017  19.629  0.00  0.00    +0.000 C 
BRANCH  14  15
ATOM     15  C   UNL     1       2.147   6.222  20.587  0.00  0.00    +0.000 C 
BRANCH  15  16
ATOM     16  N   UNL     1       2.222   7.563  19.929  0.00  0.00    +0.000 NA
ATOM     17  C   UNL     1       2.179   7.393  18.456  0.00  0.00    +0.000 C 
ATOM     18  C   UNL     1       2.226   8.721  17.707  0.00  0.00    +0.000 C 
ATOM     19  C   UNL     1       1.081   9.619  18.132  0.00  0.00    +0.000 C 
ATOM     20  C   UNL     1       1.100   9.786  19.642  0.00  0.00    +0.000 C 
ATOM     21  C   UNL     1       1.076   8.426  20.376  0.00  0.00    +0.000 C 
BRANCH  21  22
ATOM     22  C   UNL     1       1.071   8.718  21.902  0.00  0.00    +0.000 C 
BRANCH  22  23
ATOM     23  O   UNL     1       1.286  10.102  22.174  0.00  0.00    +0.000 OA
ATOM     24  H   UNL     1       0.844  10.278  23.027  0.00  0.00    +0.000 HD
ENDBRANCH  22  23
ENDBRANCH  21  22
ENDBRANCH  15  16
ENDBRANCH  14  15
ENDBRANCH   1  14
TORSDOF 9
ENDMDL
MODEL 8
REMARK VINA RESULT:      -6.1      2.388      3.773
REMARK  Name = 
REMARK  10 active torsions:
REMARK  status: ('A' for Active; 'I' for Inactive)
REMARK    1  A    between atoms: C_1  and  C_2
REMARK    2  A    between atoms: C_2  and  C_3
REMARK    3  A    between atoms: C_3  and  N_4
REMARK    4  A    between atoms: C_8  and  S_9
REMARK    5  A    between atoms: S_9  and  N_12
REMARK    6  A    between atoms: N_12  and  C_13
REMARK    7  A    between atoms: C_13  and  C_14
REMARK    8  A    between atoms: C_14  and  N_15
REMARK    9  A    between atoms: C_20  and  C_21
REMARK   10  A    between atoms: C_21  and  O_22
REMARK                            x       y       z     vdW  Elec       q    Type
REMARK                         _______ _______ _______ _____ _____    ______ ____
ROOT
ATOM      1  N   UNL     1       6.419   3.846  18.651  0.00  0.00    +0.000 NA
ATOM      2  H   UNL     1       6.925   3.214  19.272  0.00  0.00    +0.000 HD
ENDROOT
BRANCH   1   3
ATOM      3  S   UNL     1       7.386   4.927  17.817  0.00  0.00    +0.000 S 
ATOM      4  O   UNL     1       8.319   4.174  17.011  0.00  0.00    +0.000 OA
ATOM      5  O   UNL     1       7.806   5.950  18.741  0.00  0.00    +0.000 OA
BRANCH   3  10
ATOM      6  N   UNL     1       6.054   5.239  15.385  0.00  0.00    +0.000 N 
ATOM      7  N   UNL     1       5.302   6.090  14.647  0.00  0.00    +0.000 NA
ATOM      8  C   UNL     1       5.052   7.104  15.474  0.00  0.00    +0.000 A 
ATOM      9  C   UNL     1       5.662   6.928  16.718  0.00  0.00    +0.000 A 
ATOM     10  C   UNL     1       6.337   5.721  16.641  0.00  0.00    +0.000 A 
BRANCH   6  11
ATOM     11  C   UNL     1       6.467   3.997  14.752  0.00  0.00    +0.000 C 
BRANCH  11  13
ATOM     12  C   UNL     1       6.773   3.735  12.269  0.00  0.00    +0.000 C 
ATOM     13  C   UNL     1       5.772   3.781  13.411  0.00  0.00    +0.000 C 
ENDBRANCH  11  13
ENDBRANCH   6  11
ENDBRANCH   3  10
ENDBRANCH   1   3
BRANCH   1  14
ATOM     14  C   UNL     1       5.156   4.363  19.205  0.00  0.00    +0.000 C 
BRANCH  14  15
ATOM     15  C   UNL     1       4.018   4.167  18.182  0.00  0.00    +0.000 C 
BRANCH  15  16
ATOM     16  N   UNL     1       2.672   3.874  18.764  0.00  0.00    +0.000 NA
ATOM     17  C   UNL     1       2.594   2.439  19.129  0.00  0.00    +0.000 C 
ATOM     18  C   UNL     1       1.256   2.059  19.755  0.00  0.00    +0.000 C 
ATOM     19  C   UNL     1       0.983   2.897  20.990  0.00  0.00    +0.000 C 
ATOM     20  C   UNL     1       1.079   4.371  20.635  0.00  0.00    +0.000 C 
ATOM     21  C   UNL     1       2.435   4.723  19.981  0.00  0.00    +0.000 C 
BRANCH  21  22
ATOM     22  C   UNL     1       2.432   6.249  19.689  0.00  0.00    +0.000 C 
BRANCH  22  23
ATOM     23  O   UNL     1       1.893   6.993  20.781  0.00  0.00    +0.000 OA
ATOM     24  H   UNL     1       2.496   6.838  21.533  0.00  0.00    +0.000 HD
ENDBRANCH  22  23
ENDBRANCH  21  22
ENDBRANCH  15  16
ENDBRANCH  14  15
ENDBRANCH   1  14
TORSDOF 9
ENDMDL
MODEL 9
REMARK VINA RESULT:      -6.1      2.002      2.686
REMARK  Name = 
REMARK  10 active torsions:
REMARK  status: ('A' for Active; 'I' for Inactive)
REMARK    1  A    between atoms: C_1  and  C_2
REMARK    2  A    between atoms: C_2  and  C_3
REMARK    3  A    between atoms: C_3  and  N_4
REMARK    4  A    between atoms: C_8  and  S_9
REMARK    5  A    between atoms: S_9  and  N_12
REMARK    6  A    between atoms: N_12  and  C_13
REMARK    7  A    between atoms: C_13  and  C_14
REMARK    8  A    between atoms: C_14  and  N_15
REMARK    9  A    between atoms: C_20  and  C_21
REMARK   10  A    between atoms: C_21  and  O_22
REMARK                            x       y       z     vdW  Elec       q    Type
REMARK                         _______ _______ _______ _____ _____    ______ ____
ROOT
ATOM      1  N   UNL     1       4.905   5.532  19.137  0.00  0.00    +0.000 NA
ATOM      2  H   UNL     1       4.284   5.704  19.929  0.00  0.00    +0.000 HD
ENDROOT
BRANCH   1   3
ATOM      3  S   UNL     1       4.321   6.067  17.664  0.00  0.00    +0.000 S 
ATOM      4  O   UNL     1       4.301   7.512  17.680  0.00  0.00    +0.000 OA
ATOM      5  O   UNL     1       3.161   5.278  17.334  0.00  0.00    +0.000 OA
BRANCH   3  10
ATOM      6  N   UNL     1       6.876   6.028  16.545  0.00  0.00    +0.000 N 
ATOM      7  N   UNL     1       7.589   5.675  15.449  0.00  0.00    +0.000 NA
ATOM      8  C   UNL     1       6.714   5.018  14.690  0.00  0.00    +0.000 A 
ATOM      9  C   UNL     1       5.444   4.976  15.270  0.00  0.00    +0.000 A 
ATOM     10  C   UNL     1       5.554   5.662  16.469  0.00  0.00    +0.000 A 
BRANCH   6  11
ATOM     11  C   UNL     1       7.582   6.747  17.593  0.00  0.00    +0.000 C 
BRANCH  11  13
ATOM     12  C   UNL     1       8.506   8.974  18.310  0.00  0.00    +0.000 C 
ATOM     13  C   UNL     1       7.551   8.256  17.372  0.00  0.00    +0.000 C 
ENDBRANCH  11  13
ENDBRANCH   6  11
ENDBRANCH   3  10
ENDBRANCH   1   3
BRANCH   1  14
ATOM     14  C   UNL     1       5.569   4.218  19.160  0.00  0.00    +0.000 C 
BRANCH  14  15
ATOM     15  C   UNL     1       4.634   3.170  19.798  0.00  0.00    +0.000 C 
BRANCH  15  16
ATOM     16  N   UNL     1       3.207   3.225  19.355  0.00  0.00    +0.000 NA
ATOM     17  C   UNL     1       2.940   2.111  18.413  0.00  0.00    +0.000 C 
ATOM     18  C   UNL     1       1.493   2.078  17.929  0.00  0.00    +0.000 C 
ATOM     19  C   UNL     1       0.536   1.973  19.101  0.00  0.00    +0.000 C 
ATOM     20  C   UNL     1       0.812   3.097  20.085  0.00  0.00    +0.000 C 
ATOM     21  C   UNL     1       2.289   3.121  20.540  0.00  0.00    +0.000 C 
BRANCH  21  22
ATOM     22  C   UNL     1       2.446   4.284  21.557  0.00  0.00    +0.000 C 
BRANCH  22  23
ATOM     23  O   UNL     1       2.355   5.557  20.920  0.00  0.00    +0.000 OA
ATOM     24  H   UNL     1       2.852   6.177  21.488  0.00  0.00    +0.000 HD
ENDBRANCH  22  23
ENDBRANCH  21  22
ENDBRANCH  15  16
ENDBRANCH  14  15
ENDBRANCH   1  14
TORSDOF 9
ENDMDL
