MODEL 1
REMARK VINA RESULT:      -8.6      0.000      0.000
REMARK  Name = 
REMARK  6 active torsions:
REMARK  status: ('A' for Active; 'I' for Inactive)
REMARK    1  A    between atoms: C_1  and  C_2
REMARK    2  A    between atoms: C_2  and  N_3
REMARK    3  A    between atoms: N_3  and  C_4
REMARK    4  A    between atoms: C_4  and  C_5
REMARK    5  A    between atoms: C_6  and  C_8
REMARK    6  A    between atoms: C_9  and  C_10
REMARK                            x       y       z     vdW  Elec       q    Type
REMARK                         _______ _______ _______ _____ _____    ______ ____
ROOT
ATOM      1  C   UNL     1       1.224   9.597  18.345  0.00  0.00    +0.000 A 
ATOM      2  C   UNL     1       1.388  10.492  19.406  0.00  0.00    +0.000 A 
ATOM      3  C   UNL     1       0.327  11.293  19.851  0.00  0.00    +0.000 A 
ATOM      4  C   UNL     1      -0.904  11.162  19.197  0.00  0.00    +0.000 A 
ATOM      5  N   UNL     1      -2.107  11.796  19.425  0.00  0.00    +0.000 N 
ATOM      6  C   UNL     1      -3.066  11.353  18.542  0.00  0.00    +0.000 A 
ATOM      7  C   UNL     1      -2.447  10.449  17.700  0.00  0.00    +0.000 A 
ATOM      8  C   UNL     1      -1.096  10.294  18.124  0.00  0.00    +0.000 A 
ATOM      9  C   UNL     1      -0.012   9.502  17.691  0.00  0.00    +0.000 A 
ATOM     10  C   UNL     1      -3.141   9.776  16.577  0.00  0.00    +0.000 C 
ATOM     11  C   UNL     1      -3.724  10.779  15.604  0.00  0.00    +0.000 C 
ATOM     12  O   UNL     1      -3.427  10.745  14.406  0.00  0.00    +0.000 OA
ATOM     13  N   UNL     1      -4.691  11.646  16.020  0.00  0.00    +0.000 N 
ATOM     14  C   UNL     1      -5.173  11.956  17.295  0.00  0.00    +0.000 A 
ATOM     15  N   UNL     1      -6.429  12.464  17.246  0.00  0.00    +0.000 NA
ATOM     16  C   UNL     1      -7.039  12.754  18.412  0.00  0.00    +0.000 A 
ATOM     17  C   UNL     1      -6.437  12.606  19.645  0.00  0.00    +0.000 A 
ATOM     18  C   UNL     1      -5.123  12.146  19.683  0.00  0.00    +0.000 A 
ATOM     19  C   UNL     1      -4.455  11.813  18.497  0.00  0.00    +0.000 A 
ATOM     20  H   UNL     1      -2.251  12.499  20.134  0.00  0.00    +0.000 HD
ATOM     21  H   UNL     1      -5.216  12.081  15.273  0.00  0.00    +0.000 HD
ENDROOT
BRANCH   1  23
ATOM     22  C   UNL     1       2.500   7.509  18.337  0.00  0.00    +0.000 C 
ATOM     23  C   UNL     1       2.349   8.769  17.903  0.00  0.00    +0.000 C 
BRANCH  22  25
ATOM     24  N   UNL     1       3.626   5.314  18.153  0.00  0.00    +0.000 N 
ATOM     25  C   UNL     1       3.670   6.690  17.898  0.00  0.00    +0.000 C 
ATOM     26  O   UNL     1       4.632   7.236  17.357  0.00  0.00    +0.000 OA
BRANCH  24  28
ATOM     27  C   UNL     1       4.828   3.917  16.465  0.00  0.00    +0.000 C 
ATOM     28  C   UNL     1       4.840   4.547  17.850  0.00  0.00    +0.000 C 
ENDBRANCH  24  28
BRANCH  24  29
ATOM     29  C   UNL     1       2.455   4.662  18.752  0.00  0.00    +0.000 C 
ATOM     30  C   UNL     1       1.424   4.016  17.842  0.00  0.00    +0.000 C 
ENDBRANCH  24  29
ENDBRANCH  22  25
ENDBRANCH   1  23
TORSDOF 4
ENDMDL
MODEL 2
REMARK VINA RESULT:      -8.1      4.342      4.975
REMARK  Name = 
REMARK  6 active torsions:
REMARK  status: ('A' for Active; 'I' for Inactive)
REMARK    1  A    between atoms: C_1  and  C_2
REMARK    2  A    between atoms: C_2  and  N_3
REMARK    3  A    between atoms: N_3  and  C_4
REMARK    4  A    between atoms: C_4  and  C_5
REMARK    5  A    between atoms: C_6  and  C_8
REMARK    6  A    between atoms: C_9  and  C_10
REMARK                            x       y       z     vdW  Elec       q    Type
REMARK                         _______ _______ _______ _____ _____    ______ ____
ROOT
ATOM      1  C   UNL     1       2.590   7.184  18.676  0.00  0.00    +0.000 A 
ATOM      2  C   UNL     1       2.331   6.422  19.818  0.00  0.00    +0.000 A 
ATOM      3  C   UNL     1       1.641   6.962  20.912  0.00  0.00    +0.000 A 
ATOM      4  C   UNL     1       1.216   8.293  20.818  0.00  0.00    +0.000 A 
ATOM      5  N   UNL     1       0.513   9.070  21.714  0.00  0.00    +0.000 N 
ATOM      6  C   UNL     1       0.303  10.331  21.204  0.00  0.00    +0.000 A 
ATOM      7  C   UNL     1       0.926  10.374  19.972  0.00  0.00    +0.000 A 
ATOM      8  C   UNL     1       1.475   9.087  19.703  0.00  0.00    +0.000 A 
ATOM      9  C   UNL     1       2.176   8.522  18.616  0.00  0.00    +0.000 A 
ATOM     10  C   UNL     1       0.962  11.585  19.119  0.00  0.00    +0.000 C 
ATOM     11  C   UNL     1       1.593  12.756  19.843  0.00  0.00    +0.000 C 
ATOM     12  O   UNL     1       2.564  13.348  19.362  0.00  0.00    +0.000 OA
ATOM     13  N   UNL     1       1.008  13.253  20.970  0.00  0.00    +0.000 N 
ATOM     14  C   UNL     1      -0.033  12.766  21.767  0.00  0.00    +0.000 A 
ATOM     15  N   UNL     1      -0.634  13.760  22.466  0.00  0.00    +0.000 NA
ATOM     16  C   UNL     1      -1.694  13.438  23.234  0.00  0.00    +0.000 A 
ATOM     17  C   UNL     1      -2.166  12.150  23.382  0.00  0.00    +0.000 A 
ATOM     18  C   UNL     1      -1.502  11.126  22.712  0.00  0.00    +0.000 A 
ATOM     19  C   UNL     1      -0.407  11.415  21.886  0.00  0.00    +0.000 A 
ATOM     20  H   UNL     1       0.213   8.754  22.623  0.00  0.00    +0.000 HD
ATOM     21  H   UNL     1       1.317  14.179  21.231  0.00  0.00    +0.000 HD
ENDROOT
BRANCH   1  23
ATOM     22  C   UNL     1       4.580   6.929  17.275  0.00  0.00    +0.000 C 
ATOM     23  C   UNL     1       3.311   6.592  17.546  0.00  0.00    +0.000 C 
BRANCH  22  25
ATOM     24  N   UNL     1       6.201   5.307  16.349  0.00  0.00    +0.000 N 
ATOM     25  C   UNL     1       5.288   6.338  16.100  0.00  0.00    +0.000 C 
ATOM     26  O   UNL     1       5.072   6.777  14.970  0.00  0.00    +0.000 OA
BRANCH  24  28
ATOM     27  C   UNL     1       6.269   3.812  14.347  0.00  0.00    +0.000 C 
ATOM     28  C   UNL     1       6.995   4.836  15.208  0.00  0.00    +0.000 C 
ENDBRANCH  24  28
BRANCH  24  29
ATOM     29  C   UNL     1       6.416   4.754  17.692  0.00  0.00    +0.000 C 
ATOM     30  C   UNL     1       7.592   5.252  18.516  0.00  0.00    +0.000 C 
ENDBRANCH  24  29
ENDBRANCH  22  25
ENDBRANCH   1  23
TORSDOF 4
ENDMDL
MODEL 3
REMARK VINA RESULT:      -7.9      4.198      4.628
REMARK  Name = 
REMARK  6 active torsions:
REMARK  status: ('A' for Active; 'I' for Inactive)
REMARK    1  A    between atoms: C_1  and  C_2
REMARK    2  A    between atoms: C_2  and  N_3
REMARK    3  A    between atoms: N_3  and  C_4
REMARK    4  A    between atoms: C_4  and  C_5
REMARK    5  A    between atoms: C_6  and  C_8
REMARK    6  A    between atoms: C_9  and  C_10
REMARK                            x       y       z     vdW  Elec       q    Type
REMARK                         _______ _______ _______ _____ _____    ______ ____
ROOT
ATOM      1  C   UNL     1       2.398   7.850  18.541  0.00  0.00    +0.000 A 
ATOM      2  C   UNL     1       2.234   7.057  19.679  0.00  0.00    +0.000 A 
ATOM      3  C   UNL     1       1.567   7.542  20.813  0.00  0.00    +0.000 A 
ATOM      4  C   UNL     1       1.068   8.849  20.762  0.00  0.00    +0.000 A 
ATOM      5  N   UNL     1       0.366   9.572  21.704  0.00  0.00    +0.000 N 
ATOM      6  C   UNL     1       0.064  10.827  21.227  0.00  0.00    +0.000 A 
ATOM      7  C   UNL     1       0.626  10.923  19.969  0.00  0.00    +0.000 A 
ATOM      8  C   UNL     1       1.231   9.673  19.651  0.00  0.00    +0.000 A 
ATOM      9  C   UNL     1       1.909   9.165  18.524  0.00  0.00    +0.000 A 
ATOM     10  C   UNL     1       0.556  12.148  19.137  0.00  0.00    +0.000 C 
ATOM     11  C   UNL     1       1.156  13.340  19.853  0.00  0.00    +0.000 C 
ATOM     12  O   UNL     1       2.070  13.992  19.338  0.00  0.00    +0.000 OA
ATOM     13  N   UNL     1       0.598  13.786  21.014  0.00  0.00    +0.000 N 
ATOM     14  C   UNL     1      -0.376  13.231  21.849  0.00  0.00    +0.000 A 
ATOM     15  N   UNL     1      -0.997  14.179  22.593  0.00  0.00    +0.000 NA
ATOM     16  C   UNL     1      -2.000  13.788  23.403  0.00  0.00    +0.000 A 
ATOM     17  C   UNL     1      -2.395  12.474  23.549  0.00  0.00    +0.000 A 
ATOM     18  C   UNL     1      -1.708  11.499  22.831  0.00  0.00    +0.000 A 
ATOM     19  C   UNL     1      -0.670  11.860  21.961  0.00  0.00    +0.000 A 
ATOM     20  H   UNL     1       0.127   9.226  22.620  0.00  0.00    +0.000 HD
ATOM     21  H   UNL     1       0.868  14.724  21.278  0.00  0.00    +0.000 HD
ENDROOT
BRANCH   1  23
ATOM     22  C   UNL     1       4.353   6.858  17.453  0.00  0.00    +0.000 C 
ATOM     23  C   UNL     1       3.096   7.317  17.368  0.00  0.00    +0.000 C 
BRANCH  22  25
ATOM     24  N   UNL     1       5.557   5.040  16.288  0.00  0.00    +0.000 N 
ATOM     25  C   UNL     1       5.058   6.347  16.240  0.00  0.00    +0.000 C 
ATOM     26  O   UNL     1       5.200   7.077  15.259  0.00  0.00    +0.000 OA
BRANCH  24  28
ATOM     27  C   UNL     1       5.553   4.016  14.008  0.00  0.00    +0.000 C 
ATOM     28  C   UNL     1       6.373   4.601  15.149  0.00  0.00    +0.000 C 
ENDBRANCH  24  28
BRANCH  24  29
ATOM     29  C   UNL     1       5.341   4.156  17.441  0.00  0.00    +0.000 C 
ATOM     30  C   UNL     1       4.118   3.255  17.460  0.00  0.00    +0.000 C 
ENDBRANCH  24  29
ENDBRANCH  22  25
ENDBRANCH   1  23
TORSDOF 4
ENDMDL
MODEL 4
REMARK VINA RESULT:      -7.7      4.299      5.012
REMARK  Name = 
REMARK  6 active torsions:
REMARK  status: ('A' for Active; 'I' for Inactive)
REMARK    1  A    between atoms: C_1  and  C_2
REMARK    2  A    between atoms: C_2  and  N_3
REMARK    3  A    between atoms: N_3  and  C_4
REMARK    4  A    between atoms: C_4  and  C_5
REMARK    5  A    between atoms: C_6  and  C_8
REMARK    6  A    between atoms: C_9  and  C_10
REMARK                            x       y       z     vdW  Elec       q    Type
REMARK                         _______ _______ _______ _____ _____    ______ ____
ROOT
ATOM      1  C   UNL     1       2.499   6.940  18.920  0.00  0.00    +0.000 A 
ATOM      2  C   UNL     1       2.190   6.274  20.109  0.00  0.00    +0.000 A 
ATOM      3  C   UNL     1       1.505   6.921  21.147  0.00  0.00    +0.000 A 
ATOM      4  C   UNL     1       1.138   8.257  20.949  0.00  0.00    +0.000 A 
ATOM      5  N   UNL     1       0.453   9.126  21.773  0.00  0.00    +0.000 N 
ATOM      6  C   UNL     1       0.303  10.353  21.168  0.00  0.00    +0.000 A 
ATOM      7  C   UNL     1       0.948  10.280  19.948  0.00  0.00    +0.000 A 
ATOM      8  C   UNL     1       1.447   8.956  19.784  0.00  0.00    +0.000 A 
ATOM      9  C   UNL     1       2.141   8.286  18.755  0.00  0.00    +0.000 A 
ATOM     10  C   UNL     1       1.046  11.423  19.011  0.00  0.00    +0.000 C 
ATOM     11  C   UNL     1       1.714  12.618  19.659  0.00  0.00    +0.000 C 
ATOM     12  O   UNL     1       2.716  13.134  19.155  0.00  0.00    +0.000 OA
ATOM     13  N   UNL     1       1.132  13.219  20.736  0.00  0.00    +0.000 N 
ATOM     14  C   UNL     1       0.060  12.835  21.547  0.00  0.00    +0.000 A 
ATOM     15  N   UNL     1      -0.511  13.900  22.160  0.00  0.00    +0.000 NA
ATOM     16  C   UNL     1      -1.596  13.678  22.929  0.00  0.00    +0.000 A 
ATOM     17  C   UNL     1      -2.123  12.425  23.162  0.00  0.00    +0.000 A 
ATOM     18  C   UNL     1      -1.491  11.329  22.580  0.00  0.00    +0.000 A 
ATOM     19  C   UNL     1      -0.372  11.512  21.756  0.00  0.00    +0.000 A 
ATOM     20  H   UNL     1       0.126   8.889  22.697  0.00  0.00    +0.000 HD
ATOM     21  H   UNL     1       1.474  14.149  20.935  0.00  0.00    +0.000 HD
ENDROOT
BRANCH   1  23
ATOM     22  C   UNL     1       4.038   5.216  18.116  0.00  0.00    +0.000 C 
ATOM     23  C   UNL     1       3.212   6.239  17.849  0.00  0.00    +0.000 C 
BRANCH  22  25
ATOM     24  N   UNL     1       6.153   4.784  16.908  0.00  0.00    +0.000 N 
ATOM     25  C   UNL     1       4.779   4.533  17.014  0.00  0.00    +0.000 C 
ATOM     26  O   UNL     1       4.176   3.800  16.230  0.00  0.00    +0.000 OA
BRANCH  24  28
ATOM     27  C   UNL     1       6.579   5.002  14.455  0.00  0.00    +0.000 C 
ATOM     28  C   UNL     1       6.840   4.225  15.738  0.00  0.00    +0.000 C 
ENDBRANCH  24  28
BRANCH  24  29
ATOM     29  C   UNL     1       6.876   5.618  17.876  0.00  0.00    +0.000 C 
ATOM     30  C   UNL     1       7.321   7.011  17.463  0.00  0.00    +0.000 C 
ENDBRANCH  24  29
ENDBRANCH  22  25
ENDBRANCH   1  23
TORSDOF 4
ENDMDL
MODEL 5
REMARK VINA RESULT:      -7.7      3.673      4.055
REMARK  Name = 
REMARK  6 active torsions:
REMARK  status: ('A' for Active; 'I' for Inactive)
REMARK    1  A    between atoms: C_1  and  C_2
REMARK    2  A    between atoms: C_2  and  N_3
REMARK    3  A    between atoms: N_3  and  C_4
REMARK    4  A    between atoms: C_4  and  C_5
REMARK    5  A    between atoms: C_6  and  C_8
REMARK    6  A    between atoms: C_9  and  C_10
REMARK                            x       y       z     vdW  Elec       q    Type
REMARK                         _______ _______ _______ _____ _____    ______ ____
ROOT
ATOM      1  C   UNL     1       1.963   8.259  18.971  0.00  0.00    +0.000 A 
ATOM      2  C   UNL     1       1.960   7.611  20.208  0.00  0.00    +0.000 A 
ATOM      3  C   UNL     1       1.282   8.151  21.311  0.00  0.00    +0.000 A 
ATOM      4  C   UNL     1       0.605   9.362  21.126  0.00  0.00    +0.000 A 
ATOM      5  N   UNL     1      -0.148  10.106  22.010  0.00  0.00    +0.000 N 
ATOM      6  C   UNL     1      -0.641  11.236  21.397  0.00  0.00    +0.000 A 
ATOM      7  C   UNL     1      -0.152  11.236  20.105  0.00  0.00    +0.000 A 
ATOM      8  C   UNL     1       0.605  10.045  19.912  0.00  0.00    +0.000 A 
ATOM      9  C   UNL     1       1.297   9.484  18.819  0.00  0.00    +0.000 A 
ATOM     10  C   UNL     1      -0.427  12.319  19.131  0.00  0.00    +0.000 C 
ATOM     11  C   UNL     1       0.033  13.664  19.652  0.00  0.00    +0.000 C 
ATOM     12  O   UNL     1       0.825  14.356  19.004  0.00  0.00    +0.000 OA
ATOM     13  N   UNL     1      -0.530  14.185  20.780  0.00  0.00    +0.000 N 
ATOM     14  C   UNL     1      -1.381  13.623  21.736  0.00  0.00    +0.000 A 
ATOM     15  N   UNL     1      -2.094  14.572  22.391  0.00  0.00    +0.000 NA
ATOM     16  C   UNL     1      -2.998  14.164  23.304  0.00  0.00    +0.000 A 
ATOM     17  C   UNL     1      -3.200  12.841  23.639  0.00  0.00    +0.000 A 
ATOM     18  C   UNL     1      -2.417  11.877  23.008  0.00  0.00    +0.000 A 
ATOM     19  C   UNL     1      -1.478  12.252  22.038  0.00  0.00    +0.000 A 
ATOM     20  H   UNL     1      -0.297   9.857  22.975  0.00  0.00    +0.000 HD
ATOM     21  H   UNL     1      -0.381  15.177  20.905  0.00  0.00    +0.000 HD
ENDROOT
BRANCH   1  23
ATOM     22  C   UNL     1       3.696   6.818  18.017  0.00  0.00    +0.000 C 
ATOM     23  C   UNL     1       2.676   7.670  17.835  0.00  0.00    +0.000 C 
BRANCH  22  25
ATOM     24  N   UNL     1       4.523   4.858  16.756  0.00  0.00    +0.000 N 
ATOM     25  C   UNL     1       4.430   6.252  16.846  0.00  0.00    +0.000 C 
ATOM     26  O   UNL     1       4.943   7.007  16.020  0.00  0.00    +0.000 OA
BRANCH  24  28
ATOM     27  C   UNL     1       6.843   4.247  16.055  0.00  0.00    +0.000 C 
ATOM     28  C   UNL     1       5.369   4.319  15.684  0.00  0.00    +0.000 C 
ENDBRANCH  24  28
BRANCH  24  29
ATOM     29  C   UNL     1       3.866   3.962  17.717  0.00  0.00    +0.000 C 
ATOM     30  C   UNL     1       2.483   3.422  17.394  0.00  0.00    +0.000 C 
ENDBRANCH  24  29
ENDBRANCH  22  25
ENDBRANCH   1  23
TORSDOF 4
ENDMDL
MODEL 6
REMARK VINA RESULT:      -7.6      4.474      6.281
REMARK  Name = 
REMARK  6 active torsions:
REMARK  status: ('A' for Active; 'I' for Inactive)
REMARK    1  A    between atoms: C_1  and  C_2
REMARK    2  A    between atoms: C_2  and  N_3
REMARK    3  A    between atoms: N_3  and  C_4
REMARK    4  A    between atoms: C_4  and  C_5
REMARK    5  A    between atoms: C_6  and  C_8
REMARK    6  A    between atoms: C_9  and  C_10
REMARK                            x       y       z     vdW  Elec       q    Type
REMARK                         _______ _______ _______ _____ _____    ______ ____
ROOT
ATOM      1  C   UNL     1       4.757   6.297  16.631  0.00  0.00    +0.000 A 
ATOM      2  C   UNL     1       4.957   5.419  17.699  0.00  0.00    +0.000 A 
ATOM      3  C   UNL     1       4.280   5.586  18.914  0.00  0.00    +0.000 A 
ATOM      4  C   UNL     1       3.392   6.664  19.019  0.00  0.00    +0.000 A 
ATOM      5  N   UNL     1       2.589   7.058  20.069  0.00  0.00    +0.000 N 
ATOM      6  C   UNL     1       1.864   8.178  19.731  0.00  0.00    +0.000 A 
ATOM      7  C   UNL     1       2.249   8.535  18.453  0.00  0.00    +0.000 A 
ATOM      8  C   UNL     1       3.184   7.569  17.981  0.00  0.00    +0.000 A 
ATOM      9  C   UNL     1       3.880   7.383  16.769  0.00  0.00    +0.000 A 
ATOM     10  C   UNL     1       1.720   9.724  17.746  0.00  0.00    +0.000 C 
ATOM     11  C   UNL     1       1.978  10.995  18.528  0.00  0.00    +0.000 C 
ATOM     12  O   UNL     1       2.588  11.940  18.017  0.00  0.00    +0.000 OA
ATOM     13  N   UNL     1       1.418  11.160  19.760  0.00  0.00    +0.000 N 
ATOM     14  C   UNL     1       0.750  10.267  20.603  0.00  0.00    +0.000 A 
ATOM     15  N   UNL     1      -0.066  10.912  21.471  0.00  0.00    +0.000 NA
ATOM     16  C   UNL     1      -0.817  10.166  22.306  0.00  0.00    +0.000 A 
ATOM     17  C   UNL     1      -0.762   8.788  22.355  0.00  0.00    +0.000 A 
ATOM     18  C   UNL     1       0.127   8.136  21.505  0.00  0.00    +0.000 A 
ATOM     19  C   UNL     1       0.913   8.869  20.605  0.00  0.00    +0.000 A 
ATOM     20  H   UNL     1       2.556   6.593  20.962  0.00  0.00    +0.000 HD
ATOM     21  H   UNL     1       1.402  12.115  20.092  0.00  0.00    +0.000 HD
ENDROOT
BRANCH   1  23
ATOM     22  C   UNL     1       6.199   4.989  15.148  0.00  0.00    +0.000 C 
ATOM     23  C   UNL     1       5.476   6.096  15.370  0.00  0.00    +0.000 C 
BRANCH  22  25
ATOM     24  N   UNL     1       6.336   4.066  12.858  0.00  0.00    +0.000 N 
ATOM     25  C   UNL     1       6.949   4.816  13.868  0.00  0.00    +0.000 C 
ATOM     26  O   UNL     1       8.071   5.307  13.744  0.00  0.00    +0.000 OA
BRANCH  24  28
ATOM     27  C   UNL     1       7.314   2.294  11.391  0.00  0.00    +0.000 C 
ATOM     28  C   UNL     1       7.142   3.781  11.664  0.00  0.00    +0.000 C 
ENDBRANCH  24  28
BRANCH  24  29
ATOM     29  C   UNL     1       4.977   3.526  12.993  0.00  0.00    +0.000 C 
ATOM     30  C   UNL     1       4.149   3.293  11.741  0.00  0.00    +0.000 C 
ENDBRANCH  24  29
ENDBRANCH  22  25
ENDBRANCH   1  23
TORSDOF 4
ENDMDL
MODEL 7
REMARK VINA RESULT:      -7.6      6.425      9.980
REMARK  Name = 
REMARK  6 active torsions:
REMARK  status: ('A' for Active; 'I' for Inactive)
REMARK    1  A    between atoms: C_1  and  C_2
REMARK    2  A    between atoms: C_2  and  N_3
REMARK    3  A    between atoms: N_3  and  C_4
REMARK    4  A    between atoms: C_4  and  C_5
REMARK    5  A    between atoms: C_6  and  C_8
REMARK    6  A    between atoms: C_9  and  C_10
REMARK                            x       y       z     vdW  Elec       q    Type
REMARK                         _______ _______ _______ _____ _____    ______ ____
ROOT
ATOM      1  C   UNL     1       7.829   8.329  17.926  0.00  0.00    +0.000 A 
ATOM      2  C   UNL     1       8.620   7.453  18.672  0.00  0.00    +0.000 A 
ATOM      3  C   UNL     1       8.127   6.212  19.099  0.00  0.00    +0.000 A 
ATOM      4  C   UNL     1       6.813   5.880  18.747  0.00  0.00    +0.000 A 
ATOM      5  N   UNL     1       6.081   4.741  19.007  0.00  0.00    +0.000 N 
ATOM      6  C   UNL     1       4.822   4.837  18.460  0.00  0.00    +0.000 A 
ATOM      7  C   UNL     1       4.732   6.086  17.877  0.00  0.00    +0.000 A 
ATOM      8  C   UNL     1       5.991   6.738  18.020  0.00  0.00    +0.000 A 
ATOM      9  C   UNL     1       6.508   7.983  17.606  0.00  0.00    +0.000 A 
ATOM     10  C   UNL     1       3.507   6.589  17.213  0.00  0.00    +0.000 C 
ATOM     11  C   UNL     1       2.323   6.587  18.158  0.00  0.00    +0.000 C 
ATOM     12  O   UNL     1       1.683   7.622  18.372  0.00  0.00    +0.000 OA
ATOM     13  N   UNL     1       1.870   5.410  18.676  0.00  0.00    +0.000 N 
ATOM     14  C   UNL     1       2.412   4.121  18.666  0.00  0.00    +0.000 A 
ATOM     15  N   UNL     1       1.456   3.175  18.832  0.00  0.00    +0.000 NA
ATOM     16  C   UNL     1       1.833   1.882  18.785  0.00  0.00    +0.000 A 
ATOM     17  C   UNL     1       3.142   1.475  18.625  0.00  0.00    +0.000 A 
ATOM     18  C   UNL     1       4.126   2.454  18.521  0.00  0.00    +0.000 A 
ATOM     19  C   UNL     1       3.779   3.812  18.545  0.00  0.00    +0.000 A 
ATOM     20  H   UNL     1       6.424   3.957  19.541  0.00  0.00    +0.000 HD
ATOM     21  H   UNL     1       0.935   5.452  19.061  0.00  0.00    +0.000 HD
ENDROOT
BRANCH   1  23
ATOM     22  C   UNL     1       8.657  10.589  18.370  0.00  0.00    +0.000 C 
ATOM     23  C   UNL     1       8.371   9.618  17.489  0.00  0.00    +0.000 C 
BRANCH  22  25
ATOM     24  N   UNL     1      10.504  12.227  18.228  0.00  0.00    +0.000 N 
ATOM     25  C   UNL     1       9.180  11.907  17.904  0.00  0.00    +0.000 C 
ATOM     26  O   UNL     1       8.446  12.672  17.279  0.00  0.00    +0.000 OA
BRANCH  24  28
ATOM     27  C   UNL     1      11.813  13.637  16.633  0.00  0.00    +0.000 C 
ATOM     28  C   UNL     1      10.959  13.581  17.891  0.00  0.00    +0.000 C 
ENDBRANCH  24  28
BRANCH  24  29
ATOM     29  C   UNL     1      11.391  11.289  18.928  0.00  0.00    +0.000 C 
ATOM     30  C   UNL     1      12.333  11.822  19.995  0.00  0.00    +0.000 C 
ENDBRANCH  24  29
ENDBRANCH  22  25
ENDBRANCH   1  23
TORSDOF 4
ENDMDL
MODEL 8
REMARK VINA RESULT:      -7.5      3.472      3.935
REMARK  Name = 
REMARK  6 active torsions:
REMARK  status: ('A' for Active; 'I' for Inactive)
REMARK    1  A    between atoms: C_1  and  C_2
REMARK    2  A    between atoms: C_2  and  N_3
REMARK    3  A    between atoms: N_3  and  C_4
REMARK    4  A    between atoms: C_4  and  C_5
REMARK    5  A    between atoms: C_6  and  C_8
REMARK    6  A    between atoms: C_9  and  C_10
REMARK                            x       y       z     vdW  Elec       q    Type
REMARK                         _______ _______ _______ _____ _____    ______ ____
ROOT
ATOM      1  C   UNL     1       0.996   8.840  20.929  0.00  0.00    +0.000 A 
ATOM      2  C   UNL     1       0.881   8.701  22.314  0.00  0.00    +0.000 A 
ATOM      3  C   UNL     1       0.098   9.583  23.071  0.00  0.00    +0.000 A 
ATOM      4  C   UNL     1      -0.570  10.607  22.388  0.00  0.00    +0.000 A 
ATOM      5  N   UNL     1      -1.410  11.593  22.861  0.00  0.00    +0.000 N 
ATOM      6  C   UNL     1      -1.853  12.389  21.829  0.00  0.00    +0.000 A 
ATOM      7  C   UNL     1      -1.244  11.929  20.678  0.00  0.00    +0.000 A 
ATOM      8  C   UNL     1      -0.461  10.786  21.011  0.00  0.00    +0.000 A 
ATOM      9  C   UNL     1       0.336   9.889  20.272  0.00  0.00    +0.000 A 
ATOM     10  C   UNL     1      -1.435  12.556  19.349  0.00  0.00    +0.000 C 
ATOM     11  C   UNL     1      -1.039  14.018  19.363  0.00  0.00    +0.000 C 
ATOM     12  O   UNL     1      -0.195  14.452  18.572  0.00  0.00    +0.000 OA
ATOM     13  N   UNL     1      -1.711  14.896  20.160  0.00  0.00    +0.000 N 
ATOM     14  C   UNL     1      -2.644  14.696  21.182  0.00  0.00    +0.000 A 
ATOM     15  N   UNL     1      -3.424  15.788  21.369  0.00  0.00    +0.000 NA
ATOM     16  C   UNL     1      -4.406  15.711  22.289  0.00  0.00    +0.000 A 
ATOM     17  C   UNL     1      -4.628  14.601  23.078  0.00  0.00    +0.000 A 
ATOM     18  C   UNL     1      -3.780  13.507  22.925  0.00  0.00    +0.000 A 
ATOM     19  C   UNL     1      -2.756  13.533  21.968  0.00  0.00    +0.000 A 
ATOM     20  H   UNL     1      -1.648  11.716  23.833  0.00  0.00    +0.000 HD
ATOM     21  H   UNL     1      -1.583  15.869  19.916  0.00  0.00    +0.000 HD
ENDROOT
BRANCH   1  23
ATOM     22  C   UNL     1       1.806   6.586  20.425  0.00  0.00    +0.000 C 
ATOM     23  C   UNL     1       1.819   7.901  20.162  0.00  0.00    +0.000 C 
BRANCH  22  25
ATOM     24  N   UNL     1       2.398   4.281  19.755  0.00  0.00    +0.000 N 
ATOM     25  C   UNL     1       2.674   5.649  19.652  0.00  0.00    +0.000 C 
ATOM     26  O   UNL     1       3.605   6.091  18.977  0.00  0.00    +0.000 OA
BRANCH  24  28
ATOM     27  C   UNL     1       2.838   2.798  17.792  0.00  0.00    +0.000 C 
ATOM     28  C   UNL     1       3.346   3.364  19.109  0.00  0.00    +0.000 C 
ENDBRANCH  24  28
BRANCH  24  29
ATOM     29  C   UNL     1       1.256   3.764  20.520  0.00  0.00    +0.000 C 
ATOM     30  C   UNL     1       1.489   2.659  21.536  0.00  0.00    +0.000 C 
ENDBRANCH  24  29
ENDBRANCH  22  25
ENDBRANCH   1  23
TORSDOF 4
ENDMDL
MODEL 9
REMARK VINA RESULT:      -7.4      6.513      9.598
REMARK  Name = 
REMARK  6 active torsions:
REMARK  status: ('A' for Active; 'I' for Inactive)
REMARK    1  A    between atoms: C_1  and  C_2
REMARK    2  A    between atoms: C_2  and  N_3
REMARK    3  A    between atoms: N_3  and  C_4
REMARK    4  A    between atoms: C_4  and  C_5
REMARK    5  A    between atoms: C_6  and  C_8
REMARK    6  A    between atoms: C_9  and  C_10
REMARK                            x       y       z     vdW  Elec       q    Type
REMARK                         _______ _______ _______ _____ _____    ______ ____
ROOT
ATOM      1  C   UNL     1       7.529   7.635  17.967  0.00  0.00    +0.000 A 
ATOM      2  C   UNL     1       8.270   6.453  18.045  0.00  0.00    +0.000 A 
ATOM      3  C   UNL     1       7.642   5.212  18.218  0.00  0.00    +0.000 A 
ATOM      4  C   UNL     1       6.245   5.198  18.305  0.00  0.00    +0.000 A 
ATOM      5  N   UNL     1       5.372   4.141  18.455  0.00  0.00    +0.000 N 
ATOM      6  C   UNL     1       4.070   4.587  18.485  0.00  0.00    +0.000 A 
ATOM      7  C   UNL     1       4.116   5.965  18.399  0.00  0.00    +0.000 A 
ATOM      8  C   UNL     1       5.477   6.359  18.250  0.00  0.00    +0.000 A 
ATOM      9  C   UNL     1       6.132   7.597  18.081  0.00  0.00    +0.000 A 
ATOM     10  C   UNL     1       2.910   6.824  18.441  0.00  0.00    +0.000 C 
ATOM     11  C   UNL     1       2.116   6.606  19.712  0.00  0.00    +0.000 C 
ATOM     12  O   UNL     1       1.852   7.550  20.463  0.00  0.00    +0.000 OA
ATOM     13  N   UNL     1       1.570   5.383  19.969  0.00  0.00    +0.000 N 
ATOM     14  C   UNL     1       1.745   4.140  19.354  0.00  0.00    +0.000 A 
ATOM     15  N   UNL     1       0.685   3.323  19.566  0.00  0.00    +0.000 NA
ATOM     16  C   UNL     1       0.697   2.109  18.981  0.00  0.00    +0.000 A 
ATOM     17  C   UNL     1       1.747   1.640  18.219  0.00  0.00    +0.000 A 
ATOM     18  C   UNL     1       2.861   2.460  18.060  0.00  0.00    +0.000 A 
ATOM     19  C   UNL     1       2.886   3.739  18.635  0.00  0.00    +0.000 A 
ATOM     20  H   UNL     1       5.658   3.179  18.547  0.00  0.00    +0.000 HD
ATOM     21  H   UNL     1       0.842   5.387  20.671  0.00  0.00    +0.000 HD
ENDROOT
BRANCH   1  23
ATOM     22  C   UNL     1       8.886   9.500  18.784  0.00  0.00    +0.000 C 
ATOM     23  C   UNL     1       8.210   8.919  17.782  0.00  0.00    +0.000 C 
BRANCH  22  25
ATOM     24  N   UNL     1       9.635  11.675  19.693  0.00  0.00    +0.000 N 
ATOM     25  C   UNL     1       9.549  10.823  18.585  0.00  0.00    +0.000 C 
ATOM     26  O   UNL     1       9.975  11.135  17.473  0.00  0.00    +0.000 OA
BRANCH  24  28
ATOM     27  C   UNL     1      11.614  13.193  19.850  0.00  0.00    +0.000 C 
ATOM     28  C   UNL     1      10.155  13.026  19.451  0.00  0.00    +0.000 C 
ENDBRANCH  24  28
BRANCH  24  29
ATOM     29  C   UNL     1       9.172  11.277  21.029  0.00  0.00    +0.000 C 
ATOM     30  C   UNL     1       8.630  12.341  21.968  0.00  0.00    +0.000 C 
ENDBRANCH  24  29
ENDBRANCH  22  25
ENDBRANCH   1  23
TORSDOF 4
ENDMDL
