MODEL 1
REMARK VINA RESULT:      -7.9      0.000      0.000
REMARK  Name = 
REMARK  5 active torsions:
REMARK  status: ('A' for Active; 'I' for Inactive)
REMARK    1  A    between atoms: C_2  and  C_3
REMARK    2  A    between atoms: C_3  and  N_4
REMARK    3  A    between atoms: N_7  and  C_8
REMARK    4  A    between atoms: N_17  and  C_18
REMARK    5  A    between atoms: C_20  and  C_21
REMARK                            x       y       z     vdW  Elec       q    Type
REMARK                         _______ _______ _______ _____ _____    ______ ____
ROOT
ATOM      1  O   UNL     1       0.861   5.341  20.745  0.00  0.00    +0.000 OA
ATOM      2  C   UNL     1       2.018   5.643  20.453  0.00  0.00    +0.000 C 
ATOM      3  N   UNL     1       2.450   6.934  20.192  0.00  0.00    +0.000 N 
ATOM      4  H   UNL     1       3.340   7.034  19.712  0.00  0.00    +0.000 HD
ENDROOT
BRANCH   3   5
ATOM      5  C   UNL     1       1.649   8.093  20.323  0.00  0.00    +0.000 A 
ATOM      6  C   UNL     1       1.086   8.455  21.556  0.00  0.00    +0.000 A 
ATOM      7  C   UNL     1       0.279   9.599  21.683  0.00  0.00    +0.000 A 
ATOM      8  C   UNL     1       0.043  10.390  20.551  0.00  0.00    +0.000 A 
ATOM      9  C   UNL     1       0.611  10.049  19.320  0.00  0.00    +0.000 A 
ATOM     10  C   UNL     1       1.419   8.915  19.210  0.00  0.00    +0.000 A 
ATOM     11 CL   UNL     1       2.054   8.508  17.655  0.00  0.00    +0.000 Cl
BRANCH   7  12
ATOM     12  C   UNL     1      -0.334   9.974  23.013  0.00  0.00    +0.000 C 
ATOM     13  F   UNL     1       0.390   9.566  24.090  0.00  0.00    +0.000 F 
ATOM     14  F   UNL     1      -0.482  11.321  23.152  0.00  0.00    +0.000 F 
ATOM     15  F   UNL     1      -1.580   9.445  23.175  0.00  0.00    +0.000 F 
ENDBRANCH   7  12
ENDBRANCH   3   5
BRANCH   2  16
ATOM     16  C   UNL     1       3.087   4.564  20.329  0.00  0.00    +0.000 C 
BRANCH  16  17
ATOM     17  N   UNL     1       2.794   3.596  19.249  0.00  0.00    +0.000 NA
ATOM     18  C   UNL     1       2.464   4.260  17.960  0.00  0.00    +0.000 C 
ATOM     19  C   UNL     1       3.630   5.039  17.314  0.00  0.00    +0.000 C 
ATOM     20  N   UNL     1       4.747   4.111  17.071  0.00  0.00    +0.000 N 
ATOM     21  C   UNL     1       5.191   3.370  18.266  0.00  0.00    +0.000 C 
ATOM     22  C   UNL     1       3.979   2.727  19.009  0.00  0.00    +0.000 C 
BRANCH  20  23
ATOM     23  C   UNL     1       5.554   4.260  15.953  0.00  0.00    +0.000 A 
ATOM     24  C   UNL     1       5.208   3.742  14.694  0.00  0.00    +0.000 A 
ATOM     25  C   UNL     1       5.983   3.992  13.553  0.00  0.00    +0.000 A 
ATOM     26  C   UNL     1       7.129   4.765  13.659  0.00  0.00    +0.000 A 
ATOM     27  F   UNL     1       7.855   5.031  12.565  0.00  0.00    +0.000 F 
ATOM     28  C   UNL     1       7.521   5.273  14.882  0.00  0.00    +0.000 A 
ATOM     29  C   UNL     1       6.738   5.020  16.014  0.00  0.00    +0.000 A 
ENDBRANCH  20  23
ENDBRANCH  16  17
ENDBRANCH   2  16
TORSDOF 5
ENDMDL
MODEL 2
REMARK VINA RESULT:      -7.7      0.201      1.185
REMARK  Name = 
REMARK  5 active torsions:
REMARK  status: ('A' for Active; 'I' for Inactive)
REMARK    1  A    between atoms: C_2  and  C_3
REMARK    2  A    between atoms: C_3  and  N_4
REMARK    3  A    between atoms: N_7  and  C_8
REMARK    4  A    between atoms: N_17  and  C_18
REMARK    5  A    between atoms: C_20  and  C_21
REMARK                            x       y       z     vdW  Elec       q    Type
REMARK                         _______ _______ _______ _____ _____    ______ ____
ROOT
ATOM      1  O   UNL     1       0.987   5.308  20.765  0.00  0.00    +0.000 OA
ATOM      2  C   UNL     1       2.126   5.626  20.421  0.00  0.00    +0.000 C 
ATOM      3  N   UNL     1       2.529   6.921  20.140  0.00  0.00    +0.000 N 
ATOM      4  H   UNL     1       3.396   7.032  19.621  0.00  0.00    +0.000 HD
ENDROOT
BRANCH   3   5
ATOM      5  C   UNL     1       1.719   8.070  20.306  0.00  0.00    +0.000 A 
ATOM      6  C   UNL     1       1.146   8.387  21.546  0.00  0.00    +0.000 A 
ATOM      7  C   UNL     1       0.331   9.521  21.707  0.00  0.00    +0.000 A 
ATOM      8  C   UNL     1       0.096  10.347  20.601  0.00  0.00    +0.000 A 
ATOM      9  C   UNL     1       0.673  10.052  19.362  0.00  0.00    +0.000 A 
ATOM     10  C   UNL     1       1.490   8.927  19.219  0.00  0.00    +0.000 A 
ATOM     11 CL   UNL     1       2.136   8.577  17.655  0.00  0.00    +0.000 Cl
BRANCH   7  12
ATOM     12  C   UNL     1      -0.292   9.847  23.045  0.00  0.00    +0.000 C 
ATOM     13  F   UNL     1      -0.659  11.150  23.182  0.00  0.00    +0.000 F 
ATOM     14  F   UNL     1      -1.419   9.117  23.281  0.00  0.00    +0.000 F 
ATOM     15  F   UNL     1       0.547   9.581  24.085  0.00  0.00    +0.000 F 
ENDBRANCH   7  12
ENDBRANCH   3   5
BRANCH   2  16
ATOM     16  C   UNL     1       3.203   4.561  20.252  0.00  0.00    +0.000 C 
BRANCH  16  17
ATOM     17  N   UNL     1       2.893   3.609  19.161  0.00  0.00    +0.000 NA
ATOM     18  C   UNL     1       2.475   4.293  17.908  0.00  0.00    +0.000 C 
ATOM     19  C   UNL     1       3.577   5.133  17.228  0.00  0.00    +0.000 C 
ATOM     20  N   UNL     1       4.715   4.255  16.906  0.00  0.00    +0.000 N 
ATOM     21  C   UNL     1       5.245   3.502  18.057  0.00  0.00    +0.000 C 
ATOM     22  C   UNL     1       4.097   2.794  18.840  0.00  0.00    +0.000 C 
BRANCH  20  23
ATOM     23  C   UNL     1       5.460   4.464  15.755  0.00  0.00    +0.000 A 
ATOM     24  C   UNL     1       6.622   5.253  15.738  0.00  0.00    +0.000 A 
ATOM     25  C   UNL     1       7.421   5.368  14.592  0.00  0.00    +0.000 A 
ATOM     26  C   UNL     1       7.061   4.694  13.435  0.00  0.00    +0.000 A 
ATOM     27  F   UNL     1       7.839   4.777  12.348  0.00  0.00    +0.000 F 
ATOM     28  C   UNL     1       5.913   3.927  13.400  0.00  0.00    +0.000 A 
ATOM     29  C   UNL     1       5.125   3.816  14.551  0.00  0.00    +0.000 A 
ENDBRANCH  20  23
ENDBRANCH  16  17
ENDBRANCH   2  16
TORSDOF 5
ENDMDL
MODEL 3
REMARK VINA RESULT:      -7.7      3.376      9.982
REMARK  Name = 
REMARK  5 active torsions:
REMARK  status: ('A' for Active; 'I' for Inactive)
REMARK    1  A    between atoms: C_2  and  C_3
REMARK    2  A    between atoms: C_3  and  N_4
REMARK    3  A    between atoms: N_7  and  C_8
REMARK    4  A    between atoms: N_17  and  C_18
REMARK    5  A    between atoms: C_20  and  C_21
REMARK                            x       y       z     vdW  Elec       q    Type
REMARK                         _______ _______ _______ _____ _____    ______ ____
ROOT
ATOM      1  O   UNL     1       2.141   7.928  18.685  0.00  0.00    +0.000 OA
ATOM      2  C   UNL     1       2.079   7.294  19.739  0.00  0.00    +0.000 C 
ATOM      3  N   UNL     1       2.744   6.102  19.979  0.00  0.00    +0.000 N 
ATOM      4  H   UNL     1       2.419   5.543  20.764  0.00  0.00    +0.000 HD
ENDROOT
BRANCH   3   5
ATOM      5  C   UNL     1       3.663   5.500  19.088  0.00  0.00    +0.000 A 
ATOM      6  C   UNL     1       5.045   5.710  19.211  0.00  0.00    +0.000 A 
ATOM      7  C   UNL     1       5.956   5.122  18.317  0.00  0.00    +0.000 A 
ATOM      8  C   UNL     1       5.465   4.307  17.290  0.00  0.00    +0.000 A 
ATOM      9  C   UNL     1       4.092   4.077  17.164  0.00  0.00    +0.000 A 
ATOM     10  C   UNL     1       3.198   4.659  18.066  0.00  0.00    +0.000 A 
ATOM     11 CL   UNL     1       1.507   4.386  17.836  0.00  0.00    +0.000 Cl
BRANCH   7  12
ATOM     12  C   UNL     1       7.442   5.365  18.451  0.00  0.00    +0.000 C 
ATOM     13  F   UNL     1       7.881   6.479  17.804  0.00  0.00    +0.000 F 
ATOM     14  F   UNL     1       7.826   5.514  19.750  0.00  0.00    +0.000 F 
ATOM     15  F   UNL     1       8.181   4.330  17.962  0.00  0.00    +0.000 F 
ENDBRANCH   7  12
ENDBRANCH   3   5
BRANCH   2  16
ATOM     16  C   UNL     1       1.208   7.793  20.886  0.00  0.00    +0.000 C 
BRANCH  16  17
ATOM     17  N   UNL     1       1.672   9.089  21.430  0.00  0.00    +0.000 NA
ATOM     18  C   UNL     1       1.269  10.242  20.580  0.00  0.00    +0.000 C 
ATOM     19  C   UNL     1      -0.251  10.504  20.519  0.00  0.00    +0.000 C 
ATOM     20  N   UNL     1      -0.746  10.752  21.883  0.00  0.00    +0.000 N 
ATOM     21  C   UNL     1      -0.422   9.688  22.850  0.00  0.00    +0.000 C 
ATOM     22  C   UNL     1       1.090   9.311  22.782  0.00  0.00    +0.000 C 
BRANCH  20  23
ATOM     23  C   UNL     1      -1.769  11.663  22.104  0.00  0.00    +0.000 A 
ATOM     24  C   UNL     1      -2.413  11.791  23.346  0.00  0.00    +0.000 A 
ATOM     25  C   UNL     1      -3.371  12.788  23.582  0.00  0.00    +0.000 A 
ATOM     26  C   UNL     1      -3.704  13.672  22.569  0.00  0.00    +0.000 A 
ATOM     27  F   UNL     1      -4.596  14.644  22.801  0.00  0.00    +0.000 F 
ATOM     28  C   UNL     1      -3.114  13.566  21.325  0.00  0.00    +0.000 A 
ATOM     29  C   UNL     1      -2.157  12.571  21.100  0.00  0.00    +0.000 A 
ENDBRANCH  20  23
ENDBRANCH  16  17
ENDBRANCH   2  16
TORSDOF 5
ENDMDL
MODEL 4
REMARK VINA RESULT:      -7.7      2.096      8.910
REMARK  Name = 
REMARK  5 active torsions:
REMARK  status: ('A' for Active; 'I' for Inactive)
REMARK    1  A    between atoms: C_2  and  C_3
REMARK    2  A    between atoms: C_3  and  N_4
REMARK    3  A    between atoms: N_7  and  C_8
REMARK    4  A    between atoms: N_17  and  C_18
REMARK    5  A    between atoms: C_20  and  C_21
REMARK                            x       y       z     vdW  Elec       q    Type
REMARK                         _______ _______ _______ _____ _____    ______ ____
ROOT
ATOM      1  O   UNL     1       2.905   3.872  16.579  0.00  0.00    +0.000 OA
ATOM      2  C   UNL     1       3.682   3.508  17.463  0.00  0.00    +0.000 C 
ATOM      3  N   UNL     1       5.059   3.443  17.321  0.00  0.00    +0.000 N 
ATOM      4  H   UNL     1       5.567   2.889  18.005  0.00  0.00    +0.000 HD
ENDROOT
BRANCH   3   5
ATOM      5  C   UNL     1       5.771   3.880  16.180  0.00  0.00    +0.000 A 
ATOM      6  C   UNL     1       5.407   3.468  14.889  0.00  0.00    +0.000 A 
ATOM      7  C   UNL     1       6.124   3.892  13.757  0.00  0.00    +0.000 A 
ATOM      8  C   UNL     1       7.220   4.746  13.931  0.00  0.00    +0.000 A 
ATOM      9  C   UNL     1       7.585   5.177  15.209  0.00  0.00    +0.000 A 
ATOM     10  C   UNL     1       6.857   4.757  16.326  0.00  0.00    +0.000 A 
ATOM     11 CL   UNL     1       7.381   5.275  17.889  0.00  0.00    +0.000 Cl
BRANCH   7  12
ATOM     12  C   UNL     1       5.732   3.432  12.372  0.00  0.00    +0.000 C 
ATOM     13  F   UNL     1       5.872   2.093  12.173  0.00  0.00    +0.000 F 
ATOM     14  F   UNL     1       4.431   3.716  12.082  0.00  0.00    +0.000 F 
ATOM     15  F   UNL     1       6.469   4.035  11.398  0.00  0.00    +0.000 F 
ENDBRANCH   7  12
ENDBRANCH   3   5
BRANCH   2  16
ATOM     16  C   UNL     1       3.148   3.062  18.819  0.00  0.00    +0.000 C 
BRANCH  16  17
ATOM     17  N   UNL     1       3.710   3.852  19.938  0.00  0.00    +0.000 NA
ATOM     18  C   UNL     1       4.294   5.144  19.488  0.00  0.00    +0.000 C 
ATOM     19  C   UNL     1       3.273   6.158  18.928  0.00  0.00    +0.000 C 
ATOM     20  N   UNL     1       2.273   6.451  19.968  0.00  0.00    +0.000 N 
ATOM     21  C   UNL     1       1.602   5.260  20.518  0.00  0.00    +0.000 C 
ATOM     22  C   UNL     1       2.641   4.169  20.925  0.00  0.00    +0.000 C 
BRANCH  20  23
ATOM     23  C   UNL     1       1.729   7.722  20.082  0.00  0.00    +0.000 A 
ATOM     24  C   UNL     1       1.703   8.633  19.013  0.00  0.00    +0.000 A 
ATOM     25  C   UNL     1       1.056   9.873  19.113  0.00  0.00    +0.000 A 
ATOM     26  C   UNL     1       0.428  10.224  20.297  0.00  0.00    +0.000 A 
ATOM     27  F   UNL     1      -0.217  11.394  20.386  0.00  0.00    +0.000 F 
ATOM     28  C   UNL     1       0.451   9.369  21.382  0.00  0.00    +0.000 A 
ATOM     29  C   UNL     1       1.096   8.133  21.270  0.00  0.00    +0.000 A 
ENDBRANCH  20  23
ENDBRANCH  16  17
ENDBRANCH   2  16
TORSDOF 5
ENDMDL
MODEL 5
REMARK VINA RESULT:      -7.7      3.395     10.490
REMARK  Name = 
REMARK  5 active torsions:
REMARK  status: ('A' for Active; 'I' for Inactive)
REMARK    1  A    between atoms: C_2  and  C_3
REMARK    2  A    between atoms: C_3  and  N_4
REMARK    3  A    between atoms: N_7  and  C_8
REMARK    4  A    between atoms: N_17  and  C_18
REMARK    5  A    between atoms: C_20  and  C_21
REMARK                            x       y       z     vdW  Elec       q    Type
REMARK                         _______ _______ _______ _____ _____    ______ ____
ROOT
ATOM      1  O   UNL     1       1.983   9.172  17.412  0.00  0.00    +0.000 OA
ATOM      2  C   UNL     1       1.773   8.991  18.612  0.00  0.00    +0.000 C 
ATOM      3  N   UNL     1       2.089   7.830  19.298  0.00  0.00    +0.000 N 
ATOM      4  H   UNL     1       1.640   7.690  20.199  0.00  0.00    +0.000 HD
ENDROOT
BRANCH   3   5
ATOM      5  C   UNL     1       2.786   6.731  18.743  0.00  0.00    +0.000 A 
ATOM      6  C   UNL     1       3.658   6.893  17.655  0.00  0.00    +0.000 A 
ATOM      7  C   UNL     1       4.340   5.800  17.095  0.00  0.00    +0.000 A 
ATOM      8  C   UNL     1       4.143   4.527  17.644  0.00  0.00    +0.000 A 
ATOM      9  C   UNL     1       3.289   4.352  18.737  0.00  0.00    +0.000 A 
ATOM     10  C   UNL     1       2.625   5.450  19.291  0.00  0.00    +0.000 A 
ATOM     11 CL   UNL     1       1.541   5.173  20.608  0.00  0.00    +0.000 Cl
BRANCH   7  12
ATOM     12  C   UNL     1       5.267   5.983  15.915  0.00  0.00    +0.000 C 
ATOM     13  F   UNL     1       6.568   6.184  16.260  0.00  0.00    +0.000 F 
ATOM     14  F   UNL     1       5.265   4.904  15.084  0.00  0.00    +0.000 F 
ATOM     15  F   UNL     1       4.915   7.048  15.141  0.00  0.00    +0.000 F 
ENDBRANCH   7  12
ENDBRANCH   3   5
BRANCH   2  16
ATOM     16  C   UNL     1       1.098  10.074  19.446  0.00  0.00    +0.000 C 
BRANCH  16  17
ATOM     17  N   UNL     1      -0.266   9.692  19.876  0.00  0.00    +0.000 NA
ATOM     18  C   UNL     1      -0.378   9.540  21.351  0.00  0.00    +0.000 C 
ATOM     19  C   UNL     1      -0.199  10.847  22.154  0.00  0.00    +0.000 C 
ATOM     20  N   UNL     1      -1.218  11.816  21.719  0.00  0.00    +0.000 N 
ATOM     21  C   UNL     1      -1.232  12.073  20.268  0.00  0.00    +0.000 C 
ATOM     22  C   UNL     1      -1.241  10.738  19.462  0.00  0.00    +0.000 C 
BRANCH  20  23
ATOM     23  C   UNL     1      -1.783  12.697  22.630  0.00  0.00    +0.000 A 
ATOM     24  C   UNL     1      -3.067  12.508  23.169  0.00  0.00    +0.000 A 
ATOM     25  C   UNL     1      -3.581  13.349  24.166  0.00  0.00    +0.000 A 
ATOM     26  C   UNL     1      -2.814  14.402  24.637  0.00  0.00    +0.000 A 
ATOM     27  F   UNL     1      -3.290  15.188  25.611  0.00  0.00    +0.000 F 
ATOM     28  C   UNL     1      -1.556  14.639  24.117  0.00  0.00    +0.000 A 
ATOM     29  C   UNL     1      -1.051  13.793  23.125  0.00  0.00    +0.000 A 
ENDBRANCH  20  23
ENDBRANCH  16  17
ENDBRANCH   2  16
TORSDOF 5
ENDMDL
MODEL 6
REMARK VINA RESULT:      -7.7      4.439      8.499
REMARK  Name = 
REMARK  5 active torsions:
REMARK  status: ('A' for Active; 'I' for Inactive)
REMARK    1  A    between atoms: C_2  and  C_3
REMARK    2  A    between atoms: C_3  and  N_4
REMARK    3  A    between atoms: N_7  and  C_8
REMARK    4  A    between atoms: N_17  and  C_18
REMARK    5  A    between atoms: C_20  and  C_21
REMARK                            x       y       z     vdW  Elec       q    Type
REMARK                         _______ _______ _______ _____ _____    ______ ____
ROOT
ATOM      1  O   UNL     1      -0.432   7.873  21.495  0.00  0.00    +0.000 OA
ATOM      2  C   UNL     1       0.530   8.630  21.366  0.00  0.00    +0.000 C 
ATOM      3  N   UNL     1       1.725   8.285  20.755  0.00  0.00    +0.000 N 
ATOM      4  H   UNL     1       2.525   8.884  20.936  0.00  0.00    +0.000 HD
ENDROOT
BRANCH   3   5
ATOM      5  C   UNL     1       1.971   7.051  20.108  0.00  0.00    +0.000 A 
ATOM      6  C   UNL     1       1.839   5.830  20.788  0.00  0.00    +0.000 A 
ATOM      7  C   UNL     1       2.097   4.606  20.148  0.00  0.00    +0.000 A 
ATOM      8  C   UNL     1       2.486   4.614  18.804  0.00  0.00    +0.000 A 
ATOM      9  C   UNL     1       2.607   5.821  18.109  0.00  0.00    +0.000 A 
ATOM     10  C   UNL     1       2.338   7.031  18.754  0.00  0.00    +0.000 A 
ATOM     11 CL   UNL     1       2.553   8.499  17.867  0.00  0.00    +0.000 Cl
BRANCH   7  12
ATOM     12  C   UNL     1       1.964   3.297  20.893  0.00  0.00    +0.000 C 
ATOM     13  F   UNL     1       2.318   3.369  22.205  0.00  0.00    +0.000 F 
ATOM     14  F   UNL     1       0.688   2.821  20.878  0.00  0.00    +0.000 F 
ATOM     15  F   UNL     1       2.735   2.313  20.351  0.00  0.00    +0.000 F 
ENDBRANCH   7  12
ENDBRANCH   3   5
BRANCH   2  16
ATOM     16  C   UNL     1       0.470  10.050  21.917  0.00  0.00    +0.000 C 
BRANCH  16  17
ATOM     17  N   UNL     1      -0.540  10.884  21.229  0.00  0.00    +0.000 NA
ATOM     18  C   UNL     1      -0.478  12.312  21.641  0.00  0.00    +0.000 C 
ATOM     19  C   UNL     1       0.811  13.052  21.224  0.00  0.00    +0.000 C 
ATOM     20  N   UNL     1       0.939  12.998  19.759  0.00  0.00    +0.000 N 
ATOM     21  C   UNL     1       0.894  11.637  19.195  0.00  0.00    +0.000 C 
ATOM     22  C   UNL     1      -0.322  10.838  19.757  0.00  0.00    +0.000 C 
BRANCH  20  23
ATOM     23  C   UNL     1       1.480  14.068  19.060  0.00  0.00    +0.000 A 
ATOM     24  C   UNL     1       0.926  15.358  19.104  0.00  0.00    +0.000 A 
ATOM     25  C   UNL     1       1.544  16.450  18.478  0.00  0.00    +0.000 A 
ATOM     26  C   UNL     1       2.732  16.262  17.789  0.00  0.00    +0.000 A 
ATOM     27  F   UNL     1       3.341  17.308  17.216  0.00  0.00    +0.000 F 
ATOM     28  C   UNL     1       3.298  15.006  17.699  0.00  0.00    +0.000 A 
ATOM     29  C   UNL     1       2.675  13.924  18.330  0.00  0.00    +0.000 A 
ENDBRANCH  20  23
ENDBRANCH  16  17
ENDBRANCH   2  16
TORSDOF 5
ENDMDL
MODEL 7
REMARK VINA RESULT:      -7.6      3.404     10.518
REMARK  Name = 
REMARK  5 active torsions:
REMARK  status: ('A' for Active; 'I' for Inactive)
REMARK    1  A    between atoms: C_2  and  C_3
REMARK    2  A    between atoms: C_3  and  N_4
REMARK    3  A    between atoms: N_7  and  C_8
REMARK    4  A    between atoms: N_17  and  C_18
REMARK    5  A    between atoms: C_20  and  C_21
REMARK                            x       y       z     vdW  Elec       q    Type
REMARK                         _______ _______ _______ _____ _____    ______ ____
ROOT
ATOM      1  O   UNL     1       2.072   9.295  17.303  0.00  0.00    +0.000 OA
ATOM      2  C   UNL     1       1.791   9.125  18.490  0.00  0.00    +0.000 C 
ATOM      3  N   UNL     1       2.054   7.965  19.201  0.00  0.00    +0.000 N 
ATOM      4  H   UNL     1       1.552   7.837  20.076  0.00  0.00    +0.000 HD
ENDROOT
BRANCH   3   5
ATOM      5  C   UNL     1       2.770   6.856  18.694  0.00  0.00    +0.000 A 
ATOM      6  C   UNL     1       3.646   6.986  17.606  0.00  0.00    +0.000 A 
ATOM      7  C   UNL     1       4.347   5.881  17.095  0.00  0.00    +0.000 A 
ATOM      8  C   UNL     1       4.165   4.628  17.693  0.00  0.00    +0.000 A 
ATOM      9  C   UNL     1       3.307   4.486  18.788  0.00  0.00    +0.000 A 
ATOM     10  C   UNL     1       2.624   5.595  19.293  0.00  0.00    +0.000 A 
ATOM     11 CL   UNL     1       1.535   5.356  20.614  0.00  0.00    +0.000 Cl
BRANCH   7  12
ATOM     12  C   UNL     1       5.278   6.030  15.914  0.00  0.00    +0.000 C 
ATOM     13  F   UNL     1       5.277   4.963  15.069  0.00  0.00    +0.000 F 
ATOM     14  F   UNL     1       4.969   7.112  15.146  0.00  0.00    +0.000 F 
ATOM     15  F   UNL     1       6.575   6.205  16.296  0.00  0.00    +0.000 F 
ENDBRANCH   7  12
ENDBRANCH   3   5
BRANCH   2  16
ATOM     16  C   UNL     1       1.081  10.221  19.276  0.00  0.00    +0.000 C 
BRANCH  16  17
ATOM     17  N   UNL     1      -0.268   9.812  19.729  0.00  0.00    +0.000 NA
ATOM     18  C   UNL     1      -0.327   9.562  21.194  0.00  0.00    +0.000 C 
ATOM     19  C   UNL     1      -0.116  10.812  22.075  0.00  0.00    +0.000 C 
ATOM     20  N   UNL     1      -1.147  11.809  21.743  0.00  0.00    +0.000 N 
ATOM     21  C   UNL     1      -1.213  12.162  20.314  0.00  0.00    +0.000 C 
ATOM     22  C   UNL     1      -1.255  10.883  19.422  0.00  0.00    +0.000 C 
BRANCH  20  23
ATOM     23  C   UNL     1      -1.677  12.627  22.730  0.00  0.00    +0.000 A 
ATOM     24  C   UNL     1      -0.996  13.751  23.228  0.00  0.00    +0.000 A 
ATOM     25  C   UNL     1      -1.589  14.627  24.148  0.00  0.00    +0.000 A 
ATOM     26  C   UNL     1      -2.879  14.384  24.592  0.00  0.00    +0.000 A 
ATOM     27  F   UNL     1      -3.460  15.235  25.447  0.00  0.00    +0.000 F 
ATOM     28  C   UNL     1      -3.576  13.277  24.148  0.00  0.00    +0.000 A 
ATOM     29  C   UNL     1      -2.976  12.411  23.227  0.00  0.00    +0.000 A 
ENDBRANCH  20  23
ENDBRANCH  16  17
ENDBRANCH   2  16
TORSDOF 5
ENDMDL
MODEL 8
REMARK VINA RESULT:      -7.6      3.365     10.344
REMARK  Name = 
REMARK  5 active torsions:
REMARK  status: ('A' for Active; 'I' for Inactive)
REMARK    1  A    between atoms: C_2  and  C_3
REMARK    2  A    between atoms: C_3  and  N_4
REMARK    3  A    between atoms: N_7  and  C_8
REMARK    4  A    between atoms: N_17  and  C_18
REMARK    5  A    between atoms: C_20  and  C_21
REMARK                            x       y       z     vdW  Elec       q    Type
REMARK                         _______ _______ _______ _____ _____    ______ ____
ROOT
ATOM      1  O   UNL     1       1.982   8.086  18.549  0.00  0.00    +0.000 OA
ATOM      2  C   UNL     1       1.955   7.861  19.760  0.00  0.00    +0.000 C 
ATOM      3  N   UNL     1       2.415   6.696  20.353  0.00  0.00    +0.000 N 
ATOM      4  H   UNL     1       2.107   6.510  21.304  0.00  0.00    +0.000 HD
ENDROOT
BRANCH   3   5
ATOM      5  C   UNL     1       3.070   5.648  19.665  0.00  0.00    +0.000 A 
ATOM      6  C   UNL     1       4.310   5.847  19.040  0.00  0.00    +0.000 A 
ATOM      7  C   UNL     1       4.954   4.808  18.346  0.00  0.00    +0.000 A 
ATOM      8  C   UNL     1       4.340   3.551  18.287  0.00  0.00    +0.000 A 
ATOM      9  C   UNL     1       3.112   3.334  18.918  0.00  0.00    +0.000 A 
ATOM     10  C   UNL     1       2.487   4.372  19.614  0.00  0.00    +0.000 A 
ATOM     11 CL   UNL     1       0.945   4.067  20.332  0.00  0.00    +0.000 Cl
BRANCH   7  12
ATOM     12  C   UNL     1       6.284   5.037  17.664  0.00  0.00    +0.000 C 
ATOM     13  F   UNL     1       6.457   6.304  17.201  0.00  0.00    +0.000 F 
ATOM     14  F   UNL     1       7.337   4.798  18.495  0.00  0.00    +0.000 F 
ATOM     15  F   UNL     1       6.464   4.216  16.591  0.00  0.00    +0.000 F 
ENDBRANCH   7  12
ENDBRANCH   3   5
BRANCH   2  16
ATOM     16  C   UNL     1       1.363   8.887  20.719  0.00  0.00    +0.000 C 
BRANCH  16  17
ATOM     17  N   UNL     1      -0.111   8.789  20.817  0.00  0.00    +0.000 NA
ATOM     18  C   UNL     1      -0.594   8.819  22.223  0.00  0.00    +0.000 C 
ATOM     19  C   UNL     1      -0.363  10.156  22.960  0.00  0.00    +0.000 C 
ATOM     20  N   UNL     1      -1.049  11.230  22.222  0.00  0.00    +0.000 N 
ATOM     21  C   UNL     1      -0.673  11.327  20.801  0.00  0.00    +0.000 C 
ATOM     22  C   UNL     1      -0.745   9.933  20.106  0.00  0.00    +0.000 C 
BRANCH  20  23
ATOM     23  C   UNL     1      -1.635  12.287  22.904  0.00  0.00    +0.000 A 
ATOM     24  C   UNL     1      -2.953  12.239  23.388  0.00  0.00    +0.000 A 
ATOM     25  C   UNL     1      -3.494  13.272  24.165  0.00  0.00    +0.000 A 
ATOM     26  C   UNL     1      -2.719  14.381  24.465  0.00  0.00    +0.000 A 
ATOM     27  F   UNL     1      -3.222  15.357  25.233  0.00  0.00    +0.000 F 
ATOM     28  C   UNL     1      -1.426  14.482  23.988  0.00  0.00    +0.000 A 
ATOM     29  C   UNL     1      -0.895  13.444  23.217  0.00  0.00    +0.000 A 
ENDBRANCH  20  23
ENDBRANCH  16  17
ENDBRANCH   2  16
TORSDOF 5
ENDMDL
MODEL 9
REMARK VINA RESULT:      -7.6      2.874      9.806
REMARK  Name = 
REMARK  5 active torsions:
REMARK  status: ('A' for Active; 'I' for Inactive)
REMARK    1  A    between atoms: C_2  and  C_3
REMARK    2  A    between atoms: C_3  and  N_4
REMARK    3  A    between atoms: N_7  and  C_8
REMARK    4  A    between atoms: N_17  and  C_18
REMARK    5  A    between atoms: C_20  and  C_21
REMARK                            x       y       z     vdW  Elec       q    Type
REMARK                         _______ _______ _______ _____ _____    ______ ____
ROOT
ATOM      1  O   UNL     1       2.437   5.283  20.902  0.00  0.00    +0.000 OA
ATOM      2  C   UNL     1       2.091   6.244  20.214  0.00  0.00    +0.000 C 
ATOM      3  N   UNL     1       2.566   6.509  18.939  0.00  0.00    +0.000 N 
ATOM      4  H   UNL     1       2.420   7.448  18.578  0.00  0.00    +0.000 HD
ENDROOT
BRANCH   3   5
ATOM      5  C   UNL     1       3.435   5.661  18.212  0.00  0.00    +0.000 A 
ATOM      6  C   UNL     1       4.798   5.961  18.069  0.00  0.00    +0.000 A 
ATOM      7  C   UNL     1       5.657   5.125  17.335  0.00  0.00    +0.000 A 
ATOM      8  C   UNL     1       5.134   3.969  16.742  0.00  0.00    +0.000 A 
ATOM      9  C   UNL     1       3.781   3.650  16.889  0.00  0.00    +0.000 A 
ATOM     10  C   UNL     1       2.939   4.484  17.631  0.00  0.00    +0.000 A 
ATOM     11 CL   UNL     1       1.264   4.072  17.738  0.00  0.00    +0.000 Cl
BRANCH   7  12
ATOM     12  C   UNL     1       7.122   5.464  17.175  0.00  0.00    +0.000 C 
ATOM     13  F   UNL     1       7.509   5.652  15.885  0.00  0.00    +0.000 F 
ATOM     14  F   UNL     1       7.462   6.607  17.835  0.00  0.00    +0.000 F 
ATOM     15  F   UNL     1       7.935   4.491  17.674  0.00  0.00    +0.000 F 
ENDBRANCH   7  12
ENDBRANCH   3   5
BRANCH   2  16
ATOM     16  C   UNL     1       1.095   7.260  20.758  0.00  0.00    +0.000 C 
BRANCH  16  17
ATOM     17  N   UNL     1       1.685   8.609  20.911  0.00  0.00    +0.000 NA
ATOM     18  C   UNL     1       1.097   9.601  19.972  0.00  0.00    +0.000 C 
ATOM     19  C   UNL     1      -0.391   9.928  20.223  0.00  0.00    +0.000 C 
ATOM     20  N   UNL     1      -0.539  10.456  21.589  0.00  0.00    +0.000 N 
ATOM     21  C   UNL     1       0.003   9.577  22.641  0.00  0.00    +0.000 C 
ATOM     22  C   UNL     1       1.451   9.113  22.292  0.00  0.00    +0.000 C 
BRANCH  20  23
ATOM     23  C   UNL     1      -1.471  11.446  21.863  0.00  0.00    +0.000 A 
ATOM     24  C   UNL     1      -1.989  11.662  23.151  0.00  0.00    +0.000 A 
ATOM     25  C   UNL     1      -2.850  12.733  23.432  0.00  0.00    +0.000 A 
ATOM     26  C   UNL     1      -3.212  13.605  22.417  0.00  0.00    +0.000 A 
ATOM     27  F   UNL     1      -4.009  14.647  22.688  0.00  0.00    +0.000 F 
ATOM     28  C   UNL     1      -2.746  13.415  21.131  0.00  0.00    +0.000 A 
ATOM     29  C   UNL     1      -1.885  12.345  20.862  0.00  0.00    +0.000 A 
ENDBRANCH  20  23
ENDBRANCH  16  17
ENDBRANCH   2  16
TORSDOF 5
ENDMDL
