MODEL 1
REMARK VINA RESULT:      -8.3      0.000      0.000
REMARK  Name = 
REMARK  8 active torsions:
REMARK  status: ('A' for Active; 'I' for Inactive)
REMARK    1  A    between atoms: C_1  and  C_2
REMARK    2  A    between atoms: C_2  and  S_3
REMARK    3  A    between atoms: S_3  and  N_6
REMARK    4  A    between atoms: N_6  and  C_7
REMARK    5  A    between atoms: N_6  and  C_14
REMARK    6  A    between atoms: C_7  and  C_8
REMARK    7  A    between atoms: C_18  and  O_19
REMARK    8  A    between atoms: O_19  and  C_20
REMARK                            x       y       z     vdW  Elec       q    Type
REMARK                         _______ _______ _______ _____ _____    ______ ____
ROOT
ATOM      1  N   UNL     1       5.894   5.154  16.720  0.00  0.00    +0.000 N 
ENDROOT
BRANCH   1   2
ATOM      2  C   UNL     1       4.708   5.865  17.117  0.00  0.00    +0.000 A 
ATOM      3  C   UNL     1       4.599   7.256  17.082  0.00  0.00    +0.000 A 
ATOM      4  C   UNL     1       3.408   7.867  17.497  0.00  0.00    +0.000 A 
ATOM      5  C   UNL     1       2.334   7.088  17.941  0.00  0.00    +0.000 A 
ATOM      6  C   UNL     1       2.446   5.698  17.964  0.00  0.00    +0.000 A 
ATOM      7  C   UNL     1       3.617   5.094  17.503  0.00  0.00    +0.000 A 
BRANCH   6   8
ATOM      8  O   UNL     1       1.361   4.987  18.429  0.00  0.00    +0.000 OA
BRANCH   8   9
ATOM      9  C   UNL     1       1.523   4.175  19.534  0.00  0.00    +0.000 A 
ATOM     10  C   UNL     1       1.953   4.637  20.785  0.00  0.00    +0.000 A 
ATOM     11  C   UNL     1       2.156   3.741  21.833  0.00  0.00    +0.000 A 
ATOM     12  C   UNL     1       1.858   2.392  21.659  0.00  0.00    +0.000 A 
ATOM     13  C   UNL     1       1.364   1.937  20.435  0.00  0.00    +0.000 A 
ATOM     14  C   UNL     1       1.201   2.827  19.371  0.00  0.00    +0.000 A 
ENDBRANCH   8   9
ENDBRANCH   6   8
ENDBRANCH   1   2
BRANCH   1  15
ATOM     15  S   UNL     1       7.012   4.840  17.975  0.00  0.00    +0.000 S 
ATOM     16  O   UNL     1       8.192   4.243  17.384  0.00  0.00    +0.000 OA
ATOM     17  O   UNL     1       6.300   4.134  19.026  0.00  0.00    +0.000 OA
BRANCH  15  19
ATOM     18  C   UNL     1       7.922   7.393  17.459  0.00  0.00    +0.000 C 
ATOM     19  C   UNL     1       7.451   6.480  18.571  0.00  0.00    +0.000 C 
ENDBRANCH  15  19
ENDBRANCH   1  15
BRANCH   1  20
ATOM     20  C   UNL     1       5.662   4.014  15.773  0.00  0.00    +0.000 C 
BRANCH  20  21
ATOM     21  C   UNL     1       6.255   4.246  14.406  0.00  0.00    +0.000 A 
ATOM     22  C   UNL     1       5.851   3.502  13.296  0.00  0.00    +0.000 A 
ATOM     23  C   UNL     1       6.469   3.689  12.063  0.00  0.00    +0.000 A 
ATOM     24  C   UNL     1       7.465   4.645  11.969  0.00  0.00    +0.000 A 
ATOM     25  N   UNL     1       7.850   5.425  13.000  0.00  0.00    +0.000 NA
ATOM     26  C   UNL     1       7.238   5.209  14.190  0.00  0.00    +0.000 A 
ENDBRANCH  20  21
ENDBRANCH   1  20
TORSDOF 7
ENDMDL
MODEL 2
REMARK VINA RESULT:      -8.2      2.368      7.181
REMARK  Name = 
REMARK  8 active torsions:
REMARK  status: ('A' for Active; 'I' for Inactive)
REMARK    1  A    between atoms: C_1  and  C_2
REMARK    2  A    between atoms: C_2  and  S_3
REMARK    3  A    between atoms: S_3  and  N_6
REMARK    4  A    between atoms: N_6  and  C_7
REMARK    5  A    between atoms: N_6  and  C_14
REMARK    6  A    between atoms: C_7  and  C_8
REMARK    7  A    between atoms: C_18  and  O_19
REMARK    8  A    between atoms: O_19  and  C_20
REMARK                            x       y       z     vdW  Elec       q    Type
REMARK                         _______ _______ _______ _____ _____    ______ ____
ROOT
ATOM      1  N   UNL     1       3.436   5.328  18.414  0.00  0.00    +0.000 N 
ENDROOT
BRANCH   1   2
ATOM      2  C   UNL     1       4.864   5.384  18.254  0.00  0.00    +0.000 A 
ATOM      3  C   UNL     1       5.761   5.220  19.310  0.00  0.00    +0.000 A 
ATOM      4  C   UNL     1       7.139   5.299  19.065  0.00  0.00    +0.000 A 
ATOM      5  C   UNL     1       7.612   5.540  17.771  0.00  0.00    +0.000 A 
ATOM      6  C   UNL     1       6.711   5.693  16.718  0.00  0.00    +0.000 A 
ATOM      7  C   UNL     1       5.342   5.563  16.960  0.00  0.00    +0.000 A 
BRANCH   6   8
ATOM      8  O   UNL     1       7.237   5.946  15.470  0.00  0.00    +0.000 OA
BRANCH   8   9
ATOM      9  C   UNL     1       6.876   5.128  14.419  0.00  0.00    +0.000 A 
ATOM     10  C   UNL     1       5.778   4.259  14.448  0.00  0.00    +0.000 A 
ATOM     11  C   UNL     1       5.519   3.416  13.369  0.00  0.00    +0.000 A 
ATOM     12  C   UNL     1       6.311   3.492  12.226  0.00  0.00    +0.000 A 
ATOM     13  C   UNL     1       7.364   4.405  12.164  0.00  0.00    +0.000 A 
ATOM     14  C   UNL     1       7.652   5.220  13.261  0.00  0.00    +0.000 A 
ENDBRANCH   8   9
ENDBRANCH   6   8
ENDBRANCH   1   2
BRANCH   1  15
ATOM     15  S   UNL     1       2.722   3.811  18.077  0.00  0.00    +0.000 S 
ATOM     16  O   UNL     1       3.738   2.958  17.494  0.00  0.00    +0.000 OA
ATOM     17  O   UNL     1       1.490   4.061  17.349  0.00  0.00    +0.000 OA
BRANCH  15  19
ATOM     18  C   UNL     1       0.820   3.027  19.917  0.00  0.00    +0.000 C 
ATOM     19  C   UNL     1       2.314   3.164  19.706  0.00  0.00    +0.000 C 
ENDBRANCH  15  19
ENDBRANCH   1  15
BRANCH   1  20
ATOM     20  C   UNL     1       2.906   6.026  19.631  0.00  0.00    +0.000 C 
BRANCH  20  21
ATOM     21  C   UNL     1       2.266   7.356  19.324  0.00  0.00    +0.000 A 
ATOM     22  C   UNL     1       2.309   7.912  18.043  0.00  0.00    +0.000 A 
ATOM     23  C   UNL     1       1.774   9.175  17.808  0.00  0.00    +0.000 A 
ATOM     24  C   UNL     1       1.180   9.841  18.865  0.00  0.00    +0.000 A 
ATOM     25  N   UNL     1       1.066   9.321  20.105  0.00  0.00    +0.000 NA
ATOM     26  C   UNL     1       1.609   8.095  20.305  0.00  0.00    +0.000 A 
ENDBRANCH  20  21
ENDBRANCH   1  20
TORSDOF 7
ENDMDL
MODEL 3
REMARK VINA RESULT:      -8.0      2.349      7.243
REMARK  Name = 
REMARK  8 active torsions:
REMARK  status: ('A' for Active; 'I' for Inactive)
REMARK    1  A    between atoms: C_1  and  C_2
REMARK    2  A    between atoms: C_2  and  S_3
REMARK    3  A    between atoms: S_3  and  N_6
REMARK    4  A    between atoms: N_6  and  C_7
REMARK    5  A    between atoms: N_6  and  C_14
REMARK    6  A    between atoms: C_7  and  C_8
REMARK    7  A    between atoms: C_18  and  O_19
REMARK    8  A    between atoms: O_19  and  C_20
REMARK                            x       y       z     vdW  Elec       q    Type
REMARK                         _______ _______ _______ _____ _____    ______ ____
ROOT
ATOM      1  N   UNL     1       3.376   5.421  18.256  0.00  0.00    +0.000 N 
ENDROOT
BRANCH   1   2
ATOM      2  C   UNL     1       4.789   5.242  18.052  0.00  0.00    +0.000 A 
ATOM      3  C   UNL     1       5.649   4.745  19.031  0.00  0.00    +0.000 A 
ATOM      4  C   UNL     1       7.016   4.612  18.749  0.00  0.00    +0.000 A 
ATOM      5  C   UNL     1       7.513   4.973  17.492  0.00  0.00    +0.000 A 
ATOM      6  C   UNL     1       6.647   5.459  16.514  0.00  0.00    +0.000 A 
ATOM      7  C   UNL     1       5.280   5.543  16.785  0.00  0.00    +0.000 A 
BRANCH   6   8
ATOM      8  O   UNL     1       7.200   5.815  15.303  0.00  0.00    +0.000 OA
BRANCH   8   9
ATOM      9  C   UNL     1       6.925   5.041  14.194  0.00  0.00    +0.000 A 
ATOM     10  C   UNL     1       7.689   5.061  13.020  0.00  0.00    +0.000 A 
ATOM     11  C   UNL     1       7.306   4.297  11.919  0.00  0.00    +0.000 A 
ATOM     12  C   UNL     1       6.202   3.453  12.012  0.00  0.00    +0.000 A 
ATOM     13  C   UNL     1       5.478   3.378  13.202  0.00  0.00    +0.000 A 
ATOM     14  C   UNL     1       5.835   4.175  14.292  0.00  0.00    +0.000 A 
ENDBRANCH   8   9
ENDBRANCH   6   8
ENDBRANCH   1   2
BRANCH   1  15
ATOM     15  S   UNL     1       2.410   4.052  17.917  0.00  0.00    +0.000 S 
ATOM     16  O   UNL     1       3.189   3.146  17.098  0.00  0.00    +0.000 OA
ATOM     17  O   UNL     1       1.128   4.534  17.432  0.00  0.00    +0.000 OA
BRANCH  15  19
ATOM     18  C   UNL     1       0.774   3.501  20.069  0.00  0.00    +0.000 C 
ATOM     19  C   UNL     1       2.173   3.291  19.529  0.00  0.00    +0.000 C 
ENDBRANCH  15  19
ENDBRANCH   1  15
BRANCH   1  20
ATOM     20  C   UNL     1       3.006   6.170  19.502  0.00  0.00    +0.000 C 
BRANCH  20  21
ATOM     21  C   UNL     1       2.331   7.490  19.225  0.00  0.00    +0.000 A 
ATOM     22  C   UNL     1       1.629   8.177  20.217  0.00  0.00    +0.000 A 
ATOM     23  C   UNL     1       0.956   9.356  19.911  0.00  0.00    +0.000 A 
ATOM     24  C   UNL     1       1.027   9.833  18.614  0.00  0.00    +0.000 A 
ATOM     25  N   UNL     1       1.738   9.233  17.637  0.00  0.00    +0.000 NA
ATOM     26  C   UNL     1       2.372   8.080  17.963  0.00  0.00    +0.000 A 
ENDBRANCH  20  21
ENDBRANCH   1  20
TORSDOF 7
ENDMDL
MODEL 4
REMARK VINA RESULT:      -7.9      2.714      7.250
REMARK  Name = 
REMARK  8 active torsions:
REMARK  status: ('A' for Active; 'I' for Inactive)
REMARK    1  A    between atoms: C_1  and  C_2
REMARK    2  A    between atoms: C_2  and  S_3
REMARK    3  A    between atoms: S_3  and  N_6
REMARK    4  A    between atoms: N_6  and  C_7
REMARK    5  A    between atoms: N_6  and  C_14
REMARK    6  A    between atoms: C_7  and  C_8
REMARK    7  A    between atoms: C_18  and  O_19
REMARK    8  A    between atoms: O_19  and  C_20
REMARK                            x       y       z     vdW  Elec       q    Type
REMARK                         _______ _______ _______ _____ _____    ______ ____
ROOT
ATOM      1  N   UNL     1       3.168   5.343  18.410  0.00  0.00    +0.000 N 
ENDROOT
BRANCH   1   2
ATOM      2  C   UNL     1       4.567   5.201  18.107  0.00  0.00    +0.000 A 
ATOM      3  C   UNL     1       5.501   4.696  19.012  0.00  0.00    +0.000 A 
ATOM      4  C   UNL     1       6.848   4.601  18.635  0.00  0.00    +0.000 A 
ATOM      5  C   UNL     1       7.252   5.008  17.360  0.00  0.00    +0.000 A 
ATOM      6  C   UNL     1       6.313   5.502  16.456  0.00  0.00    +0.000 A 
ATOM      7  C   UNL     1       4.966   5.548  16.820  0.00  0.00    +0.000 A 
BRANCH   6   8
ATOM      8  O   UNL     1       6.776   5.904  15.222  0.00  0.00    +0.000 OA
BRANCH   8   9
ATOM      9  C   UNL     1       6.629   5.051  14.148  0.00  0.00    +0.000 A 
ATOM     10  C   UNL     1       5.577   4.136  14.016  0.00  0.00    +0.000 A 
ATOM     11  C   UNL     1       5.537   3.261  12.932  0.00  0.00    +0.000 A 
ATOM     12  C   UNL     1       6.505   3.349  11.935  0.00  0.00    +0.000 A 
ATOM     13  C   UNL     1       7.517   4.305  12.026  0.00  0.00    +0.000 A 
ATOM     14  C   UNL     1       7.584   5.153  13.134  0.00  0.00    +0.000 A 
ENDBRANCH   8   9
ENDBRANCH   6   8
ENDBRANCH   1   2
BRANCH   1  15
ATOM     15  S   UNL     1       2.234   3.922  18.232  0.00  0.00    +0.000 S 
ATOM     16  O   UNL     1       1.229   4.171  17.219  0.00  0.00    +0.000 OA
ATOM     17  O   UNL     1       1.825   3.502  19.561  0.00  0.00    +0.000 OA
BRANCH  15  19
ATOM     18  C   UNL     1       3.506   1.483  18.440  0.00  0.00    +0.000 C 
ATOM     19  C   UNL     1       3.406   2.724  17.579  0.00  0.00    +0.000 C 
ENDBRANCH  15  19
ENDBRANCH   1  15
BRANCH   1  20
ATOM     20  C   UNL     1       2.864   6.158  19.633  0.00  0.00    +0.000 C 
BRANCH  20  21
ATOM     21  C   UNL     1       2.226   7.487  19.318  0.00  0.00    +0.000 A 
ATOM     22  C   UNL     1       2.333   8.072  18.054  0.00  0.00    +0.000 A 
ATOM     23  C   UNL     1       1.796   9.333  17.817  0.00  0.00    +0.000 A 
ATOM     24  C   UNL     1       1.137   9.970  18.853  0.00  0.00    +0.000 A 
ATOM     25  N   UNL     1       0.961   9.421  20.074  0.00  0.00    +0.000 NA
ATOM     26  C   UNL     1       1.507   8.197  20.277  0.00  0.00    +0.000 A 
ENDBRANCH  20  21
ENDBRANCH   1  20
TORSDOF 7
ENDMDL
MODEL 5
REMARK VINA RESULT:      -7.7      0.474      1.081
REMARK  Name = 
REMARK  8 active torsions:
REMARK  status: ('A' for Active; 'I' for Inactive)
REMARK    1  A    between atoms: C_1  and  C_2
REMARK    2  A    between atoms: C_2  and  S_3
REMARK    3  A    between atoms: S_3  and  N_6
REMARK    4  A    between atoms: N_6  and  C_7
REMARK    5  A    between atoms: N_6  and  C_14
REMARK    6  A    between atoms: C_7  and  C_8
REMARK    7  A    between atoms: C_18  and  O_19
REMARK    8  A    between atoms: O_19  and  C_20
REMARK                            x       y       z     vdW  Elec       q    Type
REMARK                         _______ _______ _______ _____ _____    ______ ____
ROOT
ATOM      1  N   UNL     1       5.815   5.482  16.617  0.00  0.00    +0.000 N 
ENDROOT
BRANCH   1   2
ATOM      2  C   UNL     1       4.582   6.056  17.086  0.00  0.00    +0.000 A 
ATOM      3  C   UNL     1       4.361   7.431  17.172  0.00  0.00    +0.000 A 
ATOM      4  C   UNL     1       3.131   7.905  17.650  0.00  0.00    +0.000 A 
ATOM      5  C   UNL     1       2.132   7.005  18.035  0.00  0.00    +0.000 A 
ATOM      6  C   UNL     1       2.355   5.632  17.937  0.00  0.00    +0.000 A 
ATOM      7  C   UNL     1       3.564   5.168  17.414  0.00  0.00    +0.000 A 
BRANCH   6   8
ATOM      8  O   UNL     1       1.340   4.797  18.349  0.00  0.00    +0.000 OA
BRANCH   8   9
ATOM      9  C   UNL     1       1.573   3.939  19.404  0.00  0.00    +0.000 A 
ATOM     10  C   UNL     1       1.577   2.543  19.288  0.00  0.00    +0.000 A 
ATOM     11  C   UNL     1       1.755   1.744  20.416  0.00  0.00    +0.000 A 
ATOM     12  C   UNL     1       2.006   2.336  21.651  0.00  0.00    +0.000 A 
ATOM     13  C   UNL     1       2.072   3.725  21.761  0.00  0.00    +0.000 A 
ATOM     14  C   UNL     1       1.850   4.528  20.639  0.00  0.00    +0.000 A 
ENDBRANCH   8   9
ENDBRANCH   6   8
ENDBRANCH   1   2
BRANCH   1  15
ATOM     15  S   UNL     1       7.103   5.501  17.741  0.00  0.00    +0.000 S 
ATOM     16  O   UNL     1       8.043   4.465  17.363  0.00  0.00    +0.000 OA
ATOM     17  O   UNL     1       6.521   5.491  19.072  0.00  0.00    +0.000 OA
BRANCH  15  19
ATOM     18  C   UNL     1       8.376   7.734  18.744  0.00  0.00    +0.000 C 
ATOM     19  C   UNL     1       7.886   7.097  17.461  0.00  0.00    +0.000 C 
ENDBRANCH  15  19
ENDBRANCH   1  15
BRANCH   1  20
ATOM     20  C   UNL     1       5.665   4.206  15.841  0.00  0.00    +0.000 C 
BRANCH  20  21
ATOM     21  C   UNL     1       6.209   4.297  14.438  0.00  0.00    +0.000 A 
ATOM     22  C   UNL     1       5.725   3.485  13.410  0.00  0.00    +0.000 A 
ATOM     23  C   UNL     1       6.297   3.541  12.143  0.00  0.00    +0.000 A 
ATOM     24  C   UNL     1       7.331   4.436  11.930  0.00  0.00    +0.000 A 
ATOM     25  N   UNL     1       7.794   5.278  12.877  0.00  0.00    +0.000 NA
ATOM     26  C   UNL     1       7.225   5.190  14.104  0.00  0.00    +0.000 A 
ENDBRANCH  20  21
ENDBRANCH   1  20
TORSDOF 7
ENDMDL
MODEL 6
REMARK VINA RESULT:      -7.7      1.038      1.307
REMARK  Name = 
REMARK  8 active torsions:
REMARK  status: ('A' for Active; 'I' for Inactive)
REMARK    1  A    between atoms: C_1  and  C_2
REMARK    2  A    between atoms: C_2  and  S_3
REMARK    3  A    between atoms: S_3  and  N_6
REMARK    4  A    between atoms: N_6  and  C_7
REMARK    5  A    between atoms: N_6  and  C_14
REMARK    6  A    between atoms: C_7  and  C_8
REMARK    7  A    between atoms: C_18  and  O_19
REMARK    8  A    between atoms: O_19  and  C_20
REMARK                            x       y       z     vdW  Elec       q    Type
REMARK                         _______ _______ _______ _____ _____    ______ ____
ROOT
ATOM      1  N   UNL     1       5.830   5.499  16.261  0.00  0.00    +0.000 N 
ENDROOT
BRANCH   1   2
ATOM      2  C   UNL     1       4.639   5.998  16.896  0.00  0.00    +0.000 A 
ATOM      3  C   UNL     1       4.377   7.356  17.076  0.00  0.00    +0.000 A 
ATOM      4  C   UNL     1       3.194   7.754  17.715  0.00  0.00    +0.000 A 
ATOM      5  C   UNL     1       2.282   6.795  18.166  0.00  0.00    +0.000 A 
ATOM      6  C   UNL     1       2.544   5.439  17.974  0.00  0.00    +0.000 A 
ATOM      7  C   UNL     1       3.700   5.052  17.294  0.00  0.00    +0.000 A 
BRANCH   6   8
ATOM      8  O   UNL     1       1.616   4.543  18.458  0.00  0.00    +0.000 OA
BRANCH   8   9
ATOM      9  C   UNL     1       1.940   3.783  19.564  0.00  0.00    +0.000 A 
ATOM     10  C   UNL     1       3.185   3.171  19.752  0.00  0.00    +0.000 A 
ATOM     11  C   UNL     1       3.412   2.365  20.866  0.00  0.00    +0.000 A 
ATOM     12  C   UNL     1       2.421   2.228  21.834  0.00  0.00    +0.000 A 
ATOM     13  C   UNL     1       1.202   2.891  21.687  0.00  0.00    +0.000 A 
ATOM     14  C   UNL     1       0.958   3.665  20.550  0.00  0.00    +0.000 A 
ENDBRANCH   8   9
ENDBRANCH   6   8
ENDBRANCH   1   2
BRANCH   1  15
ATOM     15  S   UNL     1       7.269   5.675  17.167  0.00  0.00    +0.000 S 
ATOM     16  O   UNL     1       7.830   6.977  16.867  0.00  0.00    +0.000 OA
ATOM     17  O   UNL     1       8.069   4.482  16.950  0.00  0.00    +0.000 OA
BRANCH  15  19
ATOM     18  C   UNL     1       7.837   5.594  19.866  0.00  0.00    +0.000 C 
ATOM     19  C   UNL     1       6.697   5.689  18.873  0.00  0.00    +0.000 C 
ENDBRANCH  15  19
ENDBRANCH   1  15
BRANCH   1  20
ATOM     20  C   UNL     1       5.672   4.179  15.566  0.00  0.00    +0.000 C 
BRANCH  20  21
ATOM     21  C   UNL     1       6.164   4.195  14.141  0.00  0.00    +0.000 A 
ATOM     22  C   UNL     1       5.574   3.404  13.152  0.00  0.00    +0.000 A 
ATOM     23  C   UNL     1       6.098   3.386  11.863  0.00  0.00    +0.000 A 
ATOM     24  C   UNL     1       7.191   4.188  11.589  0.00  0.00    +0.000 A 
ATOM     25  N   UNL     1       7.760   5.008  12.497  0.00  0.00    +0.000 NA
ATOM     26  C   UNL     1       7.235   4.994  13.746  0.00  0.00    +0.000 A 
ENDBRANCH  20  21
ENDBRANCH   1  20
TORSDOF 7
ENDMDL
MODEL 7
REMARK VINA RESULT:      -7.7      3.469      6.004
REMARK  Name = 
REMARK  8 active torsions:
REMARK  status: ('A' for Active; 'I' for Inactive)
REMARK    1  A    between atoms: C_1  and  C_2
REMARK    2  A    between atoms: C_2  and  S_3
REMARK    3  A    between atoms: S_3  and  N_6
REMARK    4  A    between atoms: N_6  and  C_7
REMARK    5  A    between atoms: N_6  and  C_14
REMARK    6  A    between atoms: C_7  and  C_8
REMARK    7  A    between atoms: C_18  and  O_19
REMARK    8  A    between atoms: O_19  and  C_20
REMARK                            x       y       z     vdW  Elec       q    Type
REMARK                         _______ _______ _______ _____ _____    ______ ____
ROOT
ATOM      1  N   UNL     1       3.055   5.361  18.454  0.00  0.00    +0.000 N 
ENDROOT
BRANCH   1   2
ATOM      2  C   UNL     1       2.445   6.500  19.087  0.00  0.00    +0.000 A 
ATOM      3  C   UNL     1       2.106   6.536  20.440  0.00  0.00    +0.000 A 
ATOM      4  C   UNL     1       1.506   7.685  20.972  0.00  0.00    +0.000 A 
ATOM      5  C   UNL     1       1.249   8.790  20.153  0.00  0.00    +0.000 A 
ATOM      6  C   UNL     1       1.600   8.751  18.804  0.00  0.00    +0.000 A 
ATOM      7  C   UNL     1       2.242   7.623  18.292  0.00  0.00    +0.000 A 
BRANCH   6   8
ATOM      8  O   UNL     1       1.305   9.863  18.045  0.00  0.00    +0.000 OA
BRANCH   8   9
ATOM      9  C   UNL     1       0.065  10.452  18.184  0.00  0.00    +0.000 A 
ATOM     10  C   UNL     1      -0.152  11.670  18.841  0.00  0.00    +0.000 A 
ATOM     11  C   UNL     1      -1.444  12.165  18.998  0.00  0.00    +0.000 A 
ATOM     12  C   UNL     1      -2.520  11.485  18.431  0.00  0.00    +0.000 A 
ATOM     13  C   UNL     1      -2.303  10.307  17.716  0.00  0.00    +0.000 A 
ATOM     14  C   UNL     1      -1.013   9.786  17.596  0.00  0.00    +0.000 A 
ENDBRANCH   8   9
ENDBRANCH   6   8
ENDBRANCH   1   2
BRANCH   1  15
ATOM     15  S   UNL     1       2.028   4.013  18.231  0.00  0.00    +0.000 S 
ATOM     16  O   UNL     1       1.023   4.372  17.252  0.00  0.00    +0.000 OA
ATOM     17  O   UNL     1       1.616   3.557  19.548  0.00  0.00    +0.000 OA
BRANCH  15  19
ATOM     18  C   UNL     1       3.553   1.729  18.500  0.00  0.00    +0.000 C 
ATOM     19  C   UNL     1       3.108   2.774  17.499  0.00  0.00    +0.000 C 
ENDBRANCH  15  19
ENDBRANCH   1  15
BRANCH   1  20
ATOM     20  C   UNL     1       3.945   5.684  17.290  0.00  0.00    +0.000 C 
BRANCH  20  21
ATOM     21  C   UNL     1       5.365   5.988  17.694  0.00  0.00    +0.000 A 
ATOM     22  C   UNL     1       5.975   5.345  18.773  0.00  0.00    +0.000 A 
ATOM     23  C   UNL     1       7.262   5.701  19.166  0.00  0.00    +0.000 A 
ATOM     24  C   UNL     1       7.919   6.681  18.444  0.00  0.00    +0.000 A 
ATOM     25  N   UNL     1       7.391   7.291  17.362  0.00  0.00    +0.000 NA
ATOM     26  C   UNL     1       6.132   6.931  17.013  0.00  0.00    +0.000 A 
ENDBRANCH  20  21
ENDBRANCH   1  20
TORSDOF 7
ENDMDL
MODEL 8
REMARK VINA RESULT:      -7.6      2.288      7.014
REMARK  Name = 
REMARK  8 active torsions:
REMARK  status: ('A' for Active; 'I' for Inactive)
REMARK    1  A    between atoms: C_1  and  C_2
REMARK    2  A    between atoms: C_2  and  S_3
REMARK    3  A    between atoms: S_3  and  N_6
REMARK    4  A    between atoms: N_6  and  C_7
REMARK    5  A    between atoms: N_6  and  C_14
REMARK    6  A    between atoms: C_7  and  C_8
REMARK    7  A    between atoms: C_18  and  O_19
REMARK    8  A    between atoms: O_19  and  C_20
REMARK                            x       y       z     vdW  Elec       q    Type
REMARK                         _______ _______ _______ _____ _____    ______ ____
ROOT
ATOM      1  N   UNL     1       3.645   4.942  18.648  0.00  0.00    +0.000 N 
ENDROOT
BRANCH   1   2
ATOM      2  C   UNL     1       5.039   5.229  18.439  0.00  0.00    +0.000 A 
ATOM      3  C   UNL     1       5.975   5.278  19.472  0.00  0.00    +0.000 A 
ATOM      4  C   UNL     1       7.314   5.574  19.179  0.00  0.00    +0.000 A 
ATOM      5  C   UNL     1       7.708   5.818  17.860  0.00  0.00    +0.000 A 
ATOM      6  C   UNL     1       6.769   5.758  16.830  0.00  0.00    +0.000 A 
ATOM      7  C   UNL     1       5.448   5.414  17.123  0.00  0.00    +0.000 A 
BRANCH   6   8
ATOM      8  O   UNL     1       7.215   6.026  15.554  0.00  0.00    +0.000 OA
BRANCH   8   9
ATOM      9  C   UNL     1       6.853   5.174  14.531  0.00  0.00    +0.000 A 
ATOM     10  C   UNL     1       7.626   4.961  13.382  0.00  0.00    +0.000 A 
ATOM     11  C   UNL     1       7.158   4.134  12.363  0.00  0.00    +0.000 A 
ATOM     12  C   UNL     1       5.952   3.455  12.521  0.00  0.00    +0.000 A 
ATOM     13  C   UNL     1       5.211   3.609  13.693  0.00  0.00    +0.000 A 
ATOM     14  C   UNL     1       5.658   4.472  14.697  0.00  0.00    +0.000 A 
ENDBRANCH   8   9
ENDBRANCH   6   8
ENDBRANCH   1   2
BRANCH   1  15
ATOM     15  S   UNL     1       3.206   3.297  18.492  0.00  0.00    +0.000 S 
ATOM     16  O   UNL     1       4.270   2.495  19.060  0.00  0.00    +0.000 OA
ATOM     17  O   UNL     1       2.804   3.083  17.112  0.00  0.00    +0.000 OA
BRANCH  15  19
ATOM     18  C   UNL     1       0.549   2.620  18.803  0.00  0.00    +0.000 C 
ATOM     19  C   UNL     1       1.759   3.142  19.550  0.00  0.00    +0.000 C 
ENDBRANCH  15  19
ENDBRANCH   1  15
BRANCH   1  20
ATOM     20  C   UNL     1       3.015   5.663  19.803  0.00  0.00    +0.000 C 
BRANCH  20  21
ATOM     21  C   UNL     1       2.392   6.980  19.415  0.00  0.00    +0.000 A 
ATOM     22  C   UNL     1       2.452   7.462  18.106  0.00  0.00    +0.000 A 
ATOM     23  C   UNL     1       1.932   8.715  17.795  0.00  0.00    +0.000 A 
ATOM     24  C   UNL     1       1.336   9.446  18.807  0.00  0.00    +0.000 A 
ATOM     25  N   UNL     1       1.207   8.998  20.073  0.00  0.00    +0.000 NA
ATOM     26  C   UNL     1       1.735   7.781  20.347  0.00  0.00    +0.000 A 
ENDBRANCH  20  21
ENDBRANCH   1  20
TORSDOF 7
ENDMDL
MODEL 9
REMARK VINA RESULT:      -7.5      3.621      5.981
REMARK  Name = 
REMARK  8 active torsions:
REMARK  status: ('A' for Active; 'I' for Inactive)
REMARK    1  A    between atoms: C_1  and  C_2
REMARK    2  A    between atoms: C_2  and  S_3
REMARK    3  A    between atoms: S_3  and  N_6
REMARK    4  A    between atoms: N_6  and  C_7
REMARK    5  A    between atoms: N_6  and  C_14
REMARK    6  A    between atoms: C_7  and  C_8
REMARK    7  A    between atoms: C_18  and  O_19
REMARK    8  A    between atoms: O_19  and  C_20
REMARK                            x       y       z     vdW  Elec       q    Type
REMARK                         _______ _______ _______ _____ _____    ______ ____
ROOT
ATOM      1  N   UNL     1       2.891   5.775  18.817  0.00  0.00    +0.000 N 
ENDROOT
BRANCH   1   2
ATOM      2  C   UNL     1       2.233   6.903  19.420  0.00  0.00    +0.000 A 
ATOM      3  C   UNL     1       1.901   6.964  20.774  0.00  0.00    +0.000 A 
ATOM      4  C   UNL     1       1.251   8.100  21.275  0.00  0.00    +0.000 A 
ATOM      5  C   UNL     1       0.939   9.166  20.425  0.00  0.00    +0.000 A 
ATOM      6  C   UNL     1       1.282   9.103  19.075  0.00  0.00    +0.000 A 
ATOM      7  C   UNL     1       1.973   7.990  18.592  0.00  0.00    +0.000 A 
BRANCH   6   8
ATOM      8  O   UNL     1       0.931  10.176  18.285  0.00  0.00    +0.000 OA
BRANCH   8   9
ATOM      9  C   UNL     1      -0.397  10.547  18.222  0.00  0.00    +0.000 A 
ATOM     10  C   UNL     1      -0.914  11.700  18.827  0.00  0.00    +0.000 A 
ATOM     11  C   UNL     1      -2.280  11.971  18.773  0.00  0.00    +0.000 A 
ATOM     12  C   UNL     1      -3.124  11.131  18.051  0.00  0.00    +0.000 A 
ATOM     13  C   UNL     1      -2.604  10.019  17.388  0.00  0.00    +0.000 A 
ATOM     14  C   UNL     1      -1.242   9.723  17.477  0.00  0.00    +0.000 A 
ENDBRANCH   8   9
ENDBRANCH   6   8
ENDBRANCH   1   2
BRANCH   1  15
ATOM     15  S   UNL     1       1.968   4.338  18.754  0.00  0.00    +0.000 S 
ATOM     16  O   UNL     1       1.493   4.170  17.396  0.00  0.00    +0.000 OA
ATOM     17  O   UNL     1       1.012   4.386  19.847  0.00  0.00    +0.000 OA
BRANCH  15  19
ATOM     18  C   UNL     1       3.386   2.129  17.905  0.00  0.00    +0.000 C 
ATOM     19  C   UNL     1       3.172   3.045  19.092  0.00  0.00    +0.000 C 
ENDBRANCH  15  19
ENDBRANCH   1  15
BRANCH   1  20
ATOM     20  C   UNL     1       3.671   6.086  17.573  0.00  0.00    +0.000 C 
BRANCH  20  21
ATOM     21  C   UNL     1       5.092   5.585  17.621  0.00  0.00    +0.000 A 
ATOM     22  C   UNL     1       5.740   5.106  16.480  0.00  0.00    +0.000 A 
ATOM     23  C   UNL     1       7.026   4.582  16.572  0.00  0.00    +0.000 A 
ATOM     24  C   UNL     1       7.645   4.577  17.809  0.00  0.00    +0.000 A 
ATOM     25  N   UNL     1       7.080   5.079  18.927  0.00  0.00    +0.000 NA
ATOM     26  C   UNL     1       5.822   5.570  18.808  0.00  0.00    +0.000 A 
ENDBRANCH  20  21
ENDBRANCH   1  20
TORSDOF 7
ENDMDL
