MODEL 1
REMARK VINA RESULT:      -7.6      0.000      0.000
REMARK  Name = 
REMARK  7 active torsions:
REMARK  status: ('A' for Active; 'I' for Inactive)
REMARK    1  A    between atoms: C_1  and  O_2
REMARK    2  A    between atoms: O_2  and  C_3
REMARK    3  A    between atoms: C_9  and  S_10
REMARK    4  A    between atoms: S_10  and  C_11
REMARK    5  A    between atoms: C_15  and  O_16
REMARK    6  A    between atoms: C_20  and  O_21
REMARK    7  A    between atoms: O_21  and  C_22
REMARK                            x       y       z     vdW  Elec       q    Type
REMARK                         _______ _______ _______ _____ _____    ______ ____
ROOT
ATOM      1  C   UNL     1       1.494   6.592  20.479  0.00  0.00    +0.000 A 
ATOM      2  C   UNL     1       1.626   5.218  20.728  0.00  0.00    +0.000 A 
ATOM      3  C   UNL     1       2.405   4.385  19.940  0.00  0.00    +0.000 A 
ATOM      4  N   UNL     1       2.401   3.084  20.233  0.00  0.00    +0.000 NA
ATOM      5  C   UNL     1       3.107   2.279  19.439  0.00  0.00    +0.000 A 
ATOM      6  N   UNL     1       3.839   2.664  18.395  0.00  0.00    +0.000 NA
ATOM      7  C   UNL     1       3.846   3.987  18.125  0.00  0.00    +0.000 A 
ATOM      8  C   UNL     1       3.116   4.933  18.867  0.00  0.00    +0.000 A 
ATOM      9  C   UNL     1       3.033   6.334  18.640  0.00  0.00    +0.000 A 
ATOM     10  C   UNL     1       2.254   7.163  19.457  0.00  0.00    +0.000 A 
ENDROOT
BRANCH   1  12
ATOM     11  C   UNL     1       1.239   8.535  21.797  0.00  0.00    +0.000 C 
ATOM     12  O   UNL     1       0.638   7.386  21.199  0.00  0.00    +0.000 OA
ENDBRANCH   1  12
BRANCH  10  13
ATOM     13  O   UNL     1       2.271   8.484  19.093  0.00  0.00    +0.000 OA
ATOM     14  C   UNL     1       2.149   8.748  17.697  0.00  0.00    +0.000 C 
ENDBRANCH  10  13
BRANCH   7  15
ATOM     15  S   UNL     1       4.862   4.420  16.719  0.00  0.00    +0.000 S 
BRANCH  15  16
ATOM     16  C   UNL     1       6.115   5.472  17.440  0.00  0.00    +0.000 A 
ATOM     17  C   UNL     1       6.562   6.661  16.848  0.00  0.00    +0.000 A 
ATOM     18  C   UNL     1       7.584   7.413  17.437  0.00  0.00    +0.000 A 
ATOM     19  C   UNL     1       8.155   6.997  18.639  0.00  0.00    +0.000 A 
ATOM     20  C   UNL     1       7.679   5.845  19.252  0.00  0.00    +0.000 A 
ATOM     21  C   UNL     1       6.665   5.088  18.669  0.00  0.00    +0.000 A 
BRANCH  20  22
ATOM     22  O   UNL     1       8.191   5.412  20.440  0.00  0.00    +0.000 OA
ATOM     23  H   UNL     1       7.523   5.542  21.133  0.00  0.00    +0.000 HD
ENDBRANCH  20  22
ENDBRANCH  15  16
ENDBRANCH   7  15
TORSDOF 5
ENDMDL
MODEL 2
REMARK VINA RESULT:      -7.4      1.655      2.193
REMARK  Name = 
REMARK  7 active torsions:
REMARK  status: ('A' for Active; 'I' for Inactive)
REMARK    1  A    between atoms: C_1  and  O_2
REMARK    2  A    between atoms: O_2  and  C_3
REMARK    3  A    between atoms: C_9  and  S_10
REMARK    4  A    between atoms: S_10  and  C_11
REMARK    5  A    between atoms: C_15  and  O_16
REMARK    6  A    between atoms: C_20  and  O_21
REMARK    7  A    between atoms: O_21  and  C_22
REMARK                            x       y       z     vdW  Elec       q    Type
REMARK                         _______ _______ _______ _____ _____    ______ ____
ROOT
ATOM      1  C   UNL     1       1.091   9.236  19.619  0.00  0.00    +0.000 A 
ATOM      2  C   UNL     1       1.070   8.145  20.500  0.00  0.00    +0.000 A 
ATOM      3  C   UNL     1       1.725   6.953  20.232  0.00  0.00    +0.000 A 
ATOM      4  N   UNL     1       1.578   5.962  21.113  0.00  0.00    +0.000 NA
ATOM      5  C   UNL     1       2.164   4.800  20.823  0.00  0.00    +0.000 A 
ATOM      6  N   UNL     1       2.907   4.550  19.746  0.00  0.00    +0.000 NA
ATOM      7  C   UNL     1       3.059   5.571  18.875  0.00  0.00    +0.000 A 
ATOM      8  C   UNL     1       2.464   6.834  19.050  0.00  0.00    +0.000 A 
ATOM      9  C   UNL     1       2.538   7.954  18.178  0.00  0.00    +0.000 A 
ATOM     10  C   UNL     1       1.883   9.156  18.472  0.00  0.00    +0.000 A 
ENDROOT
BRANCH   1  12
ATOM     11  C   UNL     1      -0.962  10.356  19.289  0.00  0.00    +0.000 C 
ATOM     12  O   UNL     1       0.353  10.371  19.843  0.00  0.00    +0.000 OA
ENDBRANCH   1  12
BRANCH  10  13
ATOM     13  O   UNL     1       2.043  10.129  17.521  0.00  0.00    +0.000 OA
ATOM     14  C   UNL     1       2.433  11.414  18.002  0.00  0.00    +0.000 C 
ENDBRANCH  10  13
BRANCH   7  15
ATOM     15  S   UNL     1       4.079   5.158  17.466  0.00  0.00    +0.000 S 
BRANCH  15  16
ATOM     16  C   UNL     1       5.662   5.869  17.896  0.00  0.00    +0.000 A 
ATOM     17  C   UNL     1       6.272   6.897  17.164  0.00  0.00    +0.000 A 
ATOM     18  C   UNL     1       7.537   7.375  17.522  0.00  0.00    +0.000 A 
ATOM     19  C   UNL     1       8.197   6.847  18.630  0.00  0.00    +0.000 A 
ATOM     20  C   UNL     1       7.571   5.862  19.385  0.00  0.00    +0.000 A 
ATOM     21  C   UNL     1       6.314   5.377  19.033  0.00  0.00    +0.000 A 
BRANCH  20  22
ATOM     22  O   UNL     1       8.168   5.332  20.491  0.00  0.00    +0.000 OA
ATOM     23  H   UNL     1       8.053   4.368  20.476  0.00  0.00    +0.000 HD
ENDBRANCH  20  22
ENDBRANCH  15  16
ENDBRANCH   7  15
TORSDOF 5
ENDMDL
MODEL 3
REMARK VINA RESULT:      -7.3      1.835      2.196
REMARK  Name = 
REMARK  7 active torsions:
REMARK  status: ('A' for Active; 'I' for Inactive)
REMARK    1  A    between atoms: C_1  and  O_2
REMARK    2  A    between atoms: O_2  and  C_3
REMARK    3  A    between atoms: C_9  and  S_10
REMARK    4  A    between atoms: S_10  and  C_11
REMARK    5  A    between atoms: C_15  and  O_16
REMARK    6  A    between atoms: C_20  and  O_21
REMARK    7  A    between atoms: O_21  and  C_22
REMARK                            x       y       z     vdW  Elec       q    Type
REMARK                         _______ _______ _______ _____ _____    ______ ____
ROOT
ATOM      1  C   UNL     1       1.703   7.525  20.358  0.00  0.00    +0.000 A 
ATOM      2  C   UNL     1       1.533   6.299  21.018  0.00  0.00    +0.000 A 
ATOM      3  C   UNL     1       1.817   5.081  20.419  0.00  0.00    +0.000 A 
ATOM      4  N   UNL     1       1.553   3.978  21.121  0.00  0.00    +0.000 NA
ATOM      5  C   UNL     1       1.775   2.808  20.521  0.00  0.00    +0.000 A 
ATOM      6  N   UNL     1       2.264   2.644  19.293  0.00  0.00    +0.000 NA
ATOM      7  C   UNL     1       2.542   3.773  18.606  0.00  0.00    +0.000 A 
ATOM      8  C   UNL     1       2.321   5.065  19.115  0.00  0.00    +0.000 A 
ATOM      9  C   UNL     1       2.550   6.305  18.458  0.00  0.00    +0.000 A 
ATOM     10  C   UNL     1       2.273   7.527  19.084  0.00  0.00    +0.000 A 
ENDROOT
BRANCH   1  12
ATOM     11  C   UNL     1      -0.008   8.737  21.445  0.00  0.00    +0.000 C 
ATOM     12  O   UNL     1       1.319   8.716  20.920  0.00  0.00    +0.000 OA
ENDBRANCH   1  12
BRANCH  10  13
ATOM     13  O   UNL     1       2.535   8.625  18.309  0.00  0.00    +0.000 OA
ATOM     14  C   UNL     1       1.399   9.271  17.738  0.00  0.00    +0.000 C 
ENDBRANCH  10  13
BRANCH   7  15
ATOM     15  S   UNL     1       3.207   3.465  16.974  0.00  0.00    +0.000 S 
BRANCH  15  16
ATOM     16  C   UNL     1       4.886   4.067  17.106  0.00  0.00    +0.000 A 
ATOM     17  C   UNL     1       5.560   4.216  18.325  0.00  0.00    +0.000 A 
ATOM     18  C   UNL     1       6.856   4.742  18.366  0.00  0.00    +0.000 A 
ATOM     19  C   UNL     1       7.501   5.103  17.184  0.00  0.00    +0.000 A 
ATOM     20  C   UNL     1       6.852   4.909  15.971  0.00  0.00    +0.000 A 
ATOM     21  C   UNL     1       5.560   4.390  15.923  0.00  0.00    +0.000 A 
BRANCH  20  22
ATOM     22  O   UNL     1       7.452   5.225  14.788  0.00  0.00    +0.000 OA
ATOM     23  H   UNL     1       8.373   5.479  14.963  0.00  0.00    +0.000 HD
ENDBRANCH  20  22
ENDBRANCH  15  16
ENDBRANCH   7  15
TORSDOF 5
ENDMDL
MODEL 4
REMARK VINA RESULT:      -7.3      2.120      5.788
REMARK  Name = 
REMARK  7 active torsions:
REMARK  status: ('A' for Active; 'I' for Inactive)
REMARK    1  A    between atoms: C_1  and  O_2
REMARK    2  A    between atoms: O_2  and  C_3
REMARK    3  A    between atoms: C_9  and  S_10
REMARK    4  A    between atoms: S_10  and  C_11
REMARK    5  A    between atoms: C_15  and  O_16
REMARK    6  A    between atoms: C_20  and  O_21
REMARK    7  A    between atoms: O_21  and  C_22
REMARK                            x       y       z     vdW  Elec       q    Type
REMARK                         _______ _______ _______ _____ _____    ______ ____
ROOT
ATOM      1  C   UNL     1       6.000   4.505  16.835  0.00  0.00    +0.000 A 
ATOM      2  C   UNL     1       4.752   3.958  16.505  0.00  0.00    +0.000 A 
ATOM      3  C   UNL     1       3.637   4.090  17.320  0.00  0.00    +0.000 A 
ATOM      4  N   UNL     1       2.521   3.469  16.935  0.00  0.00    +0.000 NA
ATOM      5  C   UNL     1       1.468   3.552  17.749  0.00  0.00    +0.000 A 
ATOM      6  N   UNL     1       1.424   4.223  18.899  0.00  0.00    +0.000 NA
ATOM      7  C   UNL     1       2.559   4.860  19.261  0.00  0.00    +0.000 A 
ATOM      8  C   UNL     1       3.745   4.821  18.507  0.00  0.00    +0.000 A 
ATOM      9  C   UNL     1       4.991   5.428  18.822  0.00  0.00    +0.000 A 
ATOM     10  C   UNL     1       6.102   5.298  17.979  0.00  0.00    +0.000 A 
ENDROOT
BRANCH   1  12
ATOM     11  C   UNL     1       7.049   4.763  14.735  0.00  0.00    +0.000 C 
ATOM     12  O   UNL     1       7.120   4.279  16.076  0.00  0.00    +0.000 OA
ENDBRANCH   1  12
BRANCH  10  13
ATOM     13  O   UNL     1       7.229   5.930  18.436  0.00  0.00    +0.000 OA
ATOM     14  C   UNL     1       7.524   7.190  17.838  0.00  0.00    +0.000 C 
ENDBRANCH  10  13
BRANCH   7  15
ATOM     15  S   UNL     1       2.411   5.747  20.807  0.00  0.00    +0.000 S 
BRANCH  15  16
ATOM     16  C   UNL     1       1.831   7.358  20.290  0.00  0.00    +0.000 A 
ATOM     17  C   UNL     1       1.072   8.206  21.107  0.00  0.00    +0.000 A 
ATOM     18  C   UNL     1       0.603   9.432  20.625  0.00  0.00    +0.000 A 
ATOM     19  C   UNL     1       0.909   9.836  19.326  0.00  0.00    +0.000 A 
ATOM     20  C   UNL     1       1.702   9.018  18.531  0.00  0.00    +0.000 A 
ATOM     21  C   UNL     1       2.169   7.793  19.003  0.00  0.00    +0.000 A 
BRANCH  20  22
ATOM     22  O   UNL     1       2.046   9.382  17.263  0.00  0.00    +0.000 OA
ATOM     23  H   UNL     1       1.236   9.471  16.734  0.00  0.00    +0.000 HD
ENDBRANCH  20  22
ENDBRANCH  15  16
ENDBRANCH   7  15
TORSDOF 5
ENDMDL
MODEL 5
REMARK VINA RESULT:      -7.2      2.290      5.873
REMARK  Name = 
REMARK  7 active torsions:
REMARK  status: ('A' for Active; 'I' for Inactive)
REMARK    1  A    between atoms: C_1  and  O_2
REMARK    2  A    between atoms: O_2  and  C_3
REMARK    3  A    between atoms: C_9  and  S_10
REMARK    4  A    between atoms: S_10  and  C_11
REMARK    5  A    between atoms: C_15  and  O_16
REMARK    6  A    between atoms: C_20  and  O_21
REMARK    7  A    between atoms: O_21  and  C_22
REMARK                            x       y       z     vdW  Elec       q    Type
REMARK                         _______ _______ _______ _____ _____    ______ ____
ROOT
ATOM      1  C   UNL     1       5.860   4.469  16.558  0.00  0.00    +0.000 A 
ATOM      2  C   UNL     1       4.627   3.820  16.396  0.00  0.00    +0.000 A 
ATOM      3  C   UNL     1       3.551   4.035  17.244  0.00  0.00    +0.000 A 
ATOM      4  N   UNL     1       2.451   3.311  17.032  0.00  0.00    +0.000 NA
ATOM      5  C   UNL     1       1.439   3.480  17.883  0.00  0.00    +0.000 A 
ATOM      6  N   UNL     1       1.419   4.327  18.910  0.00  0.00    +0.000 NA
ATOM      7  C   UNL     1       2.535   5.065  19.098  0.00  0.00    +0.000 A 
ATOM      8  C   UNL     1       3.681   4.955  18.290  0.00  0.00    +0.000 A 
ATOM      9  C   UNL     1       4.908   5.659  18.428  0.00  0.00    +0.000 A 
ATOM     10  C   UNL     1       5.980   5.442  17.552  0.00  0.00    +0.000 A 
ENDROOT
BRANCH   1  12
ATOM     11  C   UNL     1       6.882   4.651  14.437  0.00  0.00    +0.000 C 
ATOM     12  O   UNL     1       6.950   4.171  15.780  0.00  0.00    +0.000 OA
ENDBRANCH   1  12
BRANCH  10  13
ATOM     13  O   UNL     1       7.093   6.189  17.833  0.00  0.00    +0.000 OA
ATOM     14  C   UNL     1       7.786   5.848  19.032  0.00  0.00    +0.000 C 
ENDBRANCH  10  13
BRANCH   7  15
ATOM     15  S   UNL     1       2.422   6.185  20.486  0.00  0.00    +0.000 S 
BRANCH  15  16
ATOM     16  C   UNL     1       1.925   7.723  19.719  0.00  0.00    +0.000 A 
ATOM     17  C   UNL     1       2.257   8.073  18.404  0.00  0.00    +0.000 A 
ATOM     18  C   UNL     1       1.883   9.315  17.879  0.00  0.00    +0.000 A 
ATOM     19  C   UNL     1       1.152  10.211  18.657  0.00  0.00    +0.000 A 
ATOM     20  C   UNL     1       0.780   9.845  19.944  0.00  0.00    +0.000 A 
ATOM     21  C   UNL     1       1.153   8.612  20.476  0.00  0.00    +0.000 A 
BRANCH  20  22
ATOM     22  O   UNL     1       0.045  10.679  20.734  0.00  0.00    +0.000 OA
ATOM     23  H   UNL     1       0.433  11.568  20.695  0.00  0.00    +0.000 HD
ENDBRANCH  20  22
ENDBRANCH  15  16
ENDBRANCH   7  15
TORSDOF 5
ENDMDL
MODEL 6
REMARK VINA RESULT:      -7.1      0.951      1.060
REMARK  Name = 
REMARK  7 active torsions:
REMARK  status: ('A' for Active; 'I' for Inactive)
REMARK    1  A    between atoms: C_1  and  O_2
REMARK    2  A    between atoms: O_2  and  C_3
REMARK    3  A    between atoms: C_9  and  S_10
REMARK    4  A    between atoms: S_10  and  C_11
REMARK    5  A    between atoms: C_15  and  O_16
REMARK    6  A    between atoms: C_20  and  O_21
REMARK    7  A    between atoms: O_21  and  C_22
REMARK                            x       y       z     vdW  Elec       q    Type
REMARK                         _______ _______ _______ _____ _____    ______ ____
ROOT
ATOM      1  C   UNL     1       1.671   7.565  20.372  0.00  0.00    +0.000 A 
ATOM      2  C   UNL     1       1.590   6.346  21.060  0.00  0.00    +0.000 A 
ATOM      3  C   UNL     1       2.125   5.167  20.561  0.00  0.00    +0.000 A 
ATOM      4  N   UNL     1       1.928   4.056  21.273  0.00  0.00    +0.000 NA
ATOM      5  C   UNL     1       2.395   2.917  20.762  0.00  0.00    +0.000 A 
ATOM      6  N   UNL     1       3.065   2.794  19.618  0.00  0.00    +0.000 NA
ATOM      7  C   UNL     1       3.271   3.933  18.921  0.00  0.00    +0.000 A 
ATOM      8  C   UNL     1       2.800   5.191  19.336  0.00  0.00    +0.000 A 
ATOM      9  C   UNL     1       2.936   6.433  18.658  0.00  0.00    +0.000 A 
ATOM     10  C   UNL     1       2.404   7.617  19.184  0.00  0.00    +0.000 A 
ENDROOT
BRANCH   1  12
ATOM     11  C   UNL     1      -0.264   8.502  21.349  0.00  0.00    +0.000 C 
ATOM     12  O   UNL     1       1.048   8.701  20.822  0.00  0.00    +0.000 OA
ENDBRANCH   1  12
BRANCH  10  13
ATOM     13  O   UNL     1       2.609   8.721  18.400  0.00  0.00    +0.000 OA
ATOM     14  C   UNL     1       1.461   9.229  17.725  0.00  0.00    +0.000 C 
ENDBRANCH  10  13
BRANCH   7  15
ATOM     15  S   UNL     1       4.189   3.683  17.408  0.00  0.00    +0.000 S 
BRANCH  15  16
ATOM     16  C   UNL     1       5.522   4.866  17.549  0.00  0.00    +0.000 A 
ATOM     17  C   UNL     1       5.773   5.866  16.600  0.00  0.00    +0.000 A 
ATOM     18  C   UNL     1       6.865   6.728  16.742  0.00  0.00    +0.000 A 
ATOM     19  C   UNL     1       7.707   6.616  17.847  0.00  0.00    +0.000 A 
ATOM     20  C   UNL     1       7.430   5.656  18.814  0.00  0.00    +0.000 A 
ATOM     21  C   UNL     1       6.347   4.790  18.677  0.00  0.00    +0.000 A 
BRANCH  20  22
ATOM     22  O   UNL     1       8.212   5.524  19.924  0.00  0.00    +0.000 OA
ATOM     23  H   UNL     1       9.137   5.427  19.644  0.00  0.00    +0.000 HD
ENDBRANCH  20  22
ENDBRANCH  15  16
ENDBRANCH   7  15
TORSDOF 5
ENDMDL
MODEL 7
REMARK VINA RESULT:      -6.8      3.194      5.089
REMARK  Name = 
REMARK  7 active torsions:
REMARK  status: ('A' for Active; 'I' for Inactive)
REMARK    1  A    between atoms: C_1  and  O_2
REMARK    2  A    between atoms: O_2  and  C_3
REMARK    3  A    between atoms: C_9  and  S_10
REMARK    4  A    between atoms: S_10  and  C_11
REMARK    5  A    between atoms: C_15  and  O_16
REMARK    6  A    between atoms: C_20  and  O_21
REMARK    7  A    between atoms: O_21  and  C_22
REMARK                            x       y       z     vdW  Elec       q    Type
REMARK                         _______ _______ _______ _____ _____    ______ ____
ROOT
ATOM      1  C   UNL     1       0.641  10.755  19.513  0.00  0.00    +0.000 A 
ATOM      2  C   UNL     1       1.446  10.265  18.475  0.00  0.00    +0.000 A 
ATOM      3  C   UNL     1       1.982   8.986  18.483  0.00  0.00    +0.000 A 
ATOM      4  N   UNL     1       2.788   8.654  17.473  0.00  0.00    +0.000 NA
ATOM      5  C   UNL     1       3.346   7.444  17.513  0.00  0.00    +0.000 A 
ATOM      6  N   UNL     1       3.146   6.526  18.458  0.00  0.00    +0.000 NA
ATOM      7  C   UNL     1       2.312   6.874  19.462  0.00  0.00    +0.000 A 
ATOM      8  C   UNL     1       1.689   8.132  19.551  0.00  0.00    +0.000 A 
ATOM      9  C   UNL     1       0.828   8.600  20.580  0.00  0.00    +0.000 A 
ATOM     10  C   UNL     1       0.282   9.890  20.548  0.00  0.00    +0.000 A 
ENDROOT
BRANCH   1  12
ATOM     11  C   UNL     1      -0.930  12.333  18.726  0.00  0.00    +0.000 C 
ATOM     12  O   UNL     1       0.204  12.055  19.547  0.00  0.00    +0.000 OA
ENDBRANCH   1  12
BRANCH  10  13
ATOM     13  O   UNL     1      -0.514  10.188  21.622  0.00  0.00    +0.000 OA
ATOM     14  C   UNL     1      -0.117   9.622  22.869  0.00  0.00    +0.000 C 
ENDBRANCH  10  13
BRANCH   7  15
ATOM     15  S   UNL     1       2.088   5.583  20.678  0.00  0.00    +0.000 S 
BRANCH  15  16
ATOM     16  C   UNL     1       2.470   4.098  19.760  0.00  0.00    +0.000 A 
ATOM     17  C   UNL     1       1.662   3.595  18.732  0.00  0.00    +0.000 A 
ATOM     18  C   UNL     1       1.989   2.397  18.086  0.00  0.00    +0.000 A 
ATOM     19  C   UNL     1       3.142   1.701  18.446  0.00  0.00    +0.000 A 
ATOM     20  C   UNL     1       3.969   2.224  19.432  0.00  0.00    +0.000 A 
ATOM     21  C   UNL     1       3.648   3.414  20.083  0.00  0.00    +0.000 A 
BRANCH  20  22
ATOM     22  O   UNL     1       5.119   1.590  19.801  0.00  0.00    +0.000 OA
ATOM     23  H   UNL     1       4.917   0.657  19.979  0.00  0.00    +0.000 HD
ENDBRANCH  20  22
ENDBRANCH  15  16
ENDBRANCH   7  15
TORSDOF 5
ENDMDL
MODEL 8
REMARK VINA RESULT:      -6.7      1.349      1.781
REMARK  Name = 
REMARK  7 active torsions:
REMARK  status: ('A' for Active; 'I' for Inactive)
REMARK    1  A    between atoms: C_1  and  O_2
REMARK    2  A    between atoms: O_2  and  C_3
REMARK    3  A    between atoms: C_9  and  S_10
REMARK    4  A    between atoms: S_10  and  C_11
REMARK    5  A    between atoms: C_15  and  O_16
REMARK    6  A    between atoms: C_20  and  O_21
REMARK    7  A    between atoms: O_21  and  C_22
REMARK                            x       y       z     vdW  Elec       q    Type
REMARK                         _______ _______ _______ _____ _____    ______ ____
ROOT
ATOM      1  C   UNL     1       0.999   7.803  20.769  0.00  0.00    +0.000 A 
ATOM      2  C   UNL     1       1.175   6.492  21.234  0.00  0.00    +0.000 A 
ATOM      3  C   UNL     1       1.931   5.551  20.551  0.00  0.00    +0.000 A 
ATOM      4  N   UNL     1       1.973   4.316  21.055  0.00  0.00    +0.000 NA
ATOM      5  C   UNL     1       2.654   3.401  20.365  0.00  0.00    +0.000 A 
ATOM      6  N   UNL     1       3.322   3.617  19.232  0.00  0.00    +0.000 NA
ATOM      7  C   UNL     1       3.283   4.878  18.748  0.00  0.00    +0.000 A 
ATOM      8  C   UNL     1       2.572   5.923  19.364  0.00  0.00    +0.000 A 
ATOM      9  C   UNL     1       2.445   7.266  18.915  0.00  0.00    +0.000 A 
ATOM     10  C   UNL     1       1.691   8.208  19.626  0.00  0.00    +0.000 A 
ENDROOT
BRANCH   1  12
ATOM     11  C   UNL     1       0.735   9.375  22.511  0.00  0.00    +0.000 C 
ATOM     12  O   UNL     1       0.164   8.693  21.395  0.00  0.00    +0.000 OA
ENDBRANCH   1  12
BRANCH  10  13
ATOM     13  O   UNL     1       1.658   9.450  19.049  0.00  0.00    +0.000 OA
ATOM     14  C   UNL     1       2.123   9.526  17.704  0.00  0.00    +0.000 C 
ENDBRANCH  10  13
BRANCH   7  15
ATOM     15  S   UNL     1       4.213   5.086  17.236  0.00  0.00    +0.000 S 
BRANCH  15  16
ATOM     16  C   UNL     1       5.783   5.716  17.816  0.00  0.00    +0.000 A 
ATOM     17  C   UNL     1       6.554   5.083  18.801  0.00  0.00    +0.000 A 
ATOM     18  C   UNL     1       7.749   5.655  19.249  0.00  0.00    +0.000 A 
ATOM     19  C   UNL     1       8.201   6.854  18.700  0.00  0.00    +0.000 A 
ATOM     20  C   UNL     1       7.462   7.456  17.688  0.00  0.00    +0.000 A 
ATOM     21  C   UNL     1       6.268   6.896  17.240  0.00  0.00    +0.000 A 
BRANCH  20  22
ATOM     22  O   UNL     1       7.876   8.618  17.105  0.00  0.00    +0.000 OA
ATOM     23  H   UNL     1       8.845   8.663  17.154  0.00  0.00    +0.000 HD
ENDBRANCH  20  22
ENDBRANCH  15  16
ENDBRANCH   7  15
TORSDOF 5
ENDMDL
MODEL 9
REMARK VINA RESULT:      -6.7      3.976      5.235
REMARK  Name = 
REMARK  7 active torsions:
REMARK  status: ('A' for Active; 'I' for Inactive)
REMARK    1  A    between atoms: C_1  and  O_2
REMARK    2  A    between atoms: O_2  and  C_3
REMARK    3  A    between atoms: C_9  and  S_10
REMARK    4  A    between atoms: S_10  and  C_11
REMARK    5  A    between atoms: C_15  and  O_16
REMARK    6  A    between atoms: C_20  and  O_21
REMARK    7  A    between atoms: O_21  and  C_22
REMARK                            x       y       z     vdW  Elec       q    Type
REMARK                         _______ _______ _______ _____ _____    ______ ____
ROOT
ATOM      1  C   UNL     1       2.078   3.938  18.144  0.00  0.00    +0.000 A 
ATOM      2  C   UNL     1       2.316   5.306  17.943  0.00  0.00    +0.000 A 
ATOM      3  C   UNL     1       3.536   5.796  17.499  0.00  0.00    +0.000 A 
ATOM      4  N   UNL     1       3.667   7.120  17.410  0.00  0.00    +0.000 NA
ATOM      5  C   UNL     1       4.858   7.589  17.037  0.00  0.00    +0.000 A 
ATOM      6  N   UNL     1       5.920   6.851  16.719  0.00  0.00    +0.000 NA
ATOM      7  C   UNL     1       5.762   5.512  16.798  0.00  0.00    +0.000 A 
ATOM      8  C   UNL     1       4.567   4.896  17.210  0.00  0.00    +0.000 A 
ATOM      9  C   UNL     1       4.316   3.504  17.357  0.00  0.00    +0.000 A 
ATOM     10  C   UNL     1       3.073   3.025  17.790  0.00  0.00    +0.000 A 
ENDROOT
BRANCH   1  12
ATOM     11  C   UNL     1       0.883   3.400  20.108  0.00  0.00    +0.000 C 
ATOM     12  O   UNL     1       0.906   3.473  18.682  0.00  0.00    +0.000 OA
ENDBRANCH   1  12
BRANCH  10  13
ATOM     13  O   UNL     1       3.003   1.661  17.892  0.00  0.00    +0.000 OA
ATOM     14  C   UNL     1       3.820   1.068  18.899  0.00  0.00    +0.000 C 
ENDBRANCH  10  13
BRANCH   7  15
ATOM     15  S   UNL     1       7.228   4.595  16.342  0.00  0.00    +0.000 S 
BRANCH  15  16
ATOM     16  C   UNL     1       7.136   4.557  14.557  0.00  0.00    +0.000 A 
ATOM     17  C   UNL     1       7.919   5.368  13.725  0.00  0.00    +0.000 A 
ATOM     18  C   UNL     1       7.762   5.328  12.335  0.00  0.00    +0.000 A 
ATOM     19  C   UNL     1       6.837   4.458  11.760  0.00  0.00    +0.000 A 
ATOM     20  C   UNL     1       6.095   3.618  12.582  0.00  0.00    +0.000 A 
ATOM     21  C   UNL     1       6.242   3.656  13.967  0.00  0.00    +0.000 A 
BRANCH  20  22
ATOM     22  O   UNL     1       5.195   2.735  12.063  0.00  0.00    +0.000 OA
ATOM     23  H   UNL     1       5.453   2.525  11.151  0.00  0.00    +0.000 HD
ENDBRANCH  20  22
ENDBRANCH  15  16
ENDBRANCH   7  15
TORSDOF 5
ENDMDL
