MODEL 1
REMARK VINA RESULT:      -6.2      0.000      0.000
REMARK  Name = 
REMARK  17 active torsions:
REMARK  status: ('A' for Active; 'I' for Inactive)
REMARK    1  A    between atoms: C_1  and  C_2
REMARK    2  A    between atoms: C_2  and  C_3
REMARK    3  A    between atoms: C_2  and  C_4
REMARK    4  A    between atoms: C_4  and  N_5
REMARK    5  A    between atoms: C_4  and  S_22
REMARK    6  A    between atoms: C_6  and  C_8
REMARK    7  A    between atoms: C_8  and  C_9
REMARK    8  A    between atoms: C_8  and  N_11
REMARK    9  A    between atoms: C_9  and  S_10
REMARK   10  A    between atoms: C_12  and  C_14
REMARK   11  A    between atoms: C_14  and  C_15
REMARK   12  A    between atoms: C_15  and  C_16
REMARK   13  A    between atoms: C_16  and  CA_17
REMARK   14  A    between atoms: CA_17  and  N_18
REMARK   15  A    between atoms: CA_17  and  C_19
REMARK   16  A    between atoms: C_19  and  OXT_21
REMARK   17  A    between atoms: S_22  and  O_25
REMARK                            x       y       z     vdW  Elec       q    Type
REMARK                         _______ _______ _______ _____ _____    ______ ____
ROOT
ATOM      1  C   UNL     1       3.136   6.468  19.027  0.00  0.00    +0.000 C 
ENDROOT
BRANCH   1   3
ATOM      2  N   UNL     1       5.156   6.090  17.640  0.00  0.00    +0.000 N 
ATOM      3  C   UNL     1       4.539   5.834  18.846  0.00  0.00    +0.000 C 
ATOM      4  O   UNL     1       5.088   5.180  19.734  0.00  0.00    +0.000 OA
ATOM      5  H   UNL     1       4.605   6.458  16.876  0.00  0.00    +0.000 HD
BRANCH   2   6
ATOM      6  C   UNL     1       6.429   5.426  17.255  0.00  0.00    +0.000 C 
BRANCH   6   8
ATOM      7  C   UNL     1       7.253   7.821  17.478  0.00  0.00    +0.000 C 
ATOM      8  C   UNL     1       7.618   6.341  17.664  0.00  0.00    +0.000 C 
ATOM      9  C   UNL     1       8.092   6.150  19.108  0.00  0.00    +0.000 C 
ENDBRANCH   6   8
BRANCH   6  10
ATOM     10  S   UNL     1       6.488   5.007  15.437  0.00  0.00    +0.000 S 
ATOM     11  O   UNL     1       5.303   5.502  14.766  0.00  0.00    +0.000 OA
ATOM     12  O   UNL     1       7.808   5.281  14.922  0.00  0.00    +0.000 OA
BRANCH  10  13
ATOM     13  O   UNL     1       6.291   3.405  15.520  0.00  0.00    +0.000 OA
ATOM     14  H   UNL     1       6.835   3.060  16.263  0.00  0.00    +0.000 HD
ENDBRANCH  10  13
ENDBRANCH   6  10
ENDBRANCH   2   6
ENDBRANCH   1   3
BRANCH   1  15
ATOM     15  N   UNL     1       2.145   5.414  19.242  0.00  0.00    +0.000 N 
ATOM     16  C   UNL     1       1.816   4.956  20.493  0.00  0.00    +0.000 C 
ATOM     17  O   UNL     1       2.327   5.385  21.524  0.00  0.00    +0.000 OA
ATOM     18  H   UNL     1       1.733   4.998  18.413  0.00  0.00    +0.000 HD
BRANCH  16  19
ATOM     19  C   UNL     1       0.777   3.855  20.522  0.00  0.00    +0.000 C 
BRANCH  19  20
ATOM     20  C   UNL     1       1.398   2.459  20.531  0.00  0.00    +0.000 C 
BRANCH  20  21
ATOM     21  C   UNL     1       1.434   1.829  19.130  0.00  0.00    +0.000 C 
BRANCH  21  22
ATOM     22  CA  UNL     1       2.754   2.021  18.370  0.00  0.00    +0.000 C 
BRANCH  22  23
ATOM     23  N   UNL     1       3.855   2.308  19.317  0.00  0.00    +0.000 NA
ATOM     24  H1  UNL     1       3.526   3.005  19.991  0.00  0.00    +0.000 HD
ATOM     25  H2  UNL     1       4.579   2.822  18.805  0.00  0.00    +0.000 HD
ENDBRANCH  22  23
BRANCH  22  26
ATOM     26  C   UNL     1       2.682   3.116  17.290  0.00  0.00    +0.000 C 
ATOM     27  O   UNL     1       3.635   3.454  16.598  0.00  0.00    +0.000 OA
BRANCH  26  28
ATOM     28  OXT UNL     1       1.454   3.657  17.125  0.00  0.00    +0.000 OA
ATOM     29  HXT UNL     1       1.404   4.618  17.290  0.00  0.00    +0.000 HD
ENDBRANCH  26  28
ENDBRANCH  22  26
ENDBRANCH  21  22
ENDBRANCH  20  21
ENDBRANCH  19  20
ENDBRANCH  16  19
ENDBRANCH   1  15
BRANCH   1  30
ATOM     30  C   UNL     1       2.775   7.403  17.859  0.00  0.00    +0.000 C 
BRANCH  30  31
ATOM     31  S   UNL     1       1.784   8.858  18.344  0.00  0.00    +0.000 S 
ATOM     32  H   UNL     1       1.523   8.486  19.609  0.00  0.00    +0.000 HD
ENDBRANCH  30  31
ENDBRANCH   1  30
TORSDOF 15
ENDMDL
MODEL 2
REMARK VINA RESULT:      -5.7      2.100      2.849
REMARK  Name = 
REMARK  17 active torsions:
REMARK  status: ('A' for Active; 'I' for Inactive)
REMARK    1  A    between atoms: C_1  and  C_2
REMARK    2  A    between atoms: C_2  and  C_3
REMARK    3  A    between atoms: C_2  and  C_4
REMARK    4  A    between atoms: C_4  and  N_5
REMARK    5  A    between atoms: C_4  and  S_22
REMARK    6  A    between atoms: C_6  and  C_8
REMARK    7  A    between atoms: C_8  and  C_9
REMARK    8  A    between atoms: C_8  and  N_11
REMARK    9  A    between atoms: C_9  and  S_10
REMARK   10  A    between atoms: C_12  and  C_14
REMARK   11  A    between atoms: C_14  and  C_15
REMARK   12  A    between atoms: C_15  and  C_16
REMARK   13  A    between atoms: C_16  and  CA_17
REMARK   14  A    between atoms: CA_17  and  N_18
REMARK   15  A    between atoms: CA_17  and  C_19
REMARK   16  A    between atoms: C_19  and  OXT_21
REMARK   17  A    between atoms: S_22  and  O_25
REMARK                            x       y       z     vdW  Elec       q    Type
REMARK                         _______ _______ _______ _____ _____    ______ ____
ROOT
ATOM      1  C   UNL     1       2.702   7.152  18.864  0.00  0.00    +0.000 C 
ENDROOT
BRANCH   1   3
ATOM      2  N   UNL     1       4.640   5.984  17.852  0.00  0.00    +0.000 N 
ATOM      3  C   UNL     1       3.751   7.031  17.730  0.00  0.00    +0.000 C 
ATOM      4  O   UNL     1       3.767   7.791  16.761  0.00  0.00    +0.000 OA
ATOM      5  H   UNL     1       4.719   5.509  18.742  0.00  0.00    +0.000 HD
BRANCH   2   6
ATOM      6  C   UNL     1       5.798   5.829  16.934  0.00  0.00    +0.000 C 
BRANCH   6   8
ATOM      7  C   UNL     1       6.447   5.004  14.618  0.00  0.00    +0.000 C 
ATOM      8  C   UNL     1       5.351   5.004  15.694  0.00  0.00    +0.000 C 
ATOM      9  C   UNL     1       4.994   3.547  16.002  0.00  0.00    +0.000 C 
ENDBRANCH   6   8
BRANCH   6  10
ATOM     10  S   UNL     1       7.271   5.048  17.776  0.00  0.00    +0.000 S 
ATOM     11  O   UNL     1       8.040   4.269  16.828  0.00  0.00    +0.000 OA
ATOM     12  O   UNL     1       7.906   6.021  18.634  0.00  0.00    +0.000 OA
BRANCH  10  13
ATOM     13  O   UNL     1       6.512   3.964  18.704  0.00  0.00    +0.000 OA
ATOM     14  H   UNL     1       6.043   3.325  18.121  0.00  0.00    +0.000 HD
ENDBRANCH  10  13
ENDBRANCH   6  10
ENDBRANCH   2   6
ENDBRANCH   1   3
BRANCH   1  15
ATOM     15  N   UNL     1       1.923   5.916  18.947  0.00  0.00    +0.000 N 
ATOM     16  C   UNL     1       1.695   5.267  20.134  0.00  0.00    +0.000 C 
ATOM     17  O   UNL     1       2.127   5.664  21.213  0.00  0.00    +0.000 OA
ATOM     18  H   UNL     1       1.588   5.527  18.071  0.00  0.00    +0.000 HD
BRANCH  16  19
ATOM     19  C   UNL     1       0.877   3.997  20.026  0.00  0.00    +0.000 C 
BRANCH  19  20
ATOM     20  C   UNL     1       1.158   3.224  18.738  0.00  0.00    +0.000 C 
BRANCH  20  21
ATOM     21  C   UNL     1       1.887   1.898  19.003  0.00  0.00    +0.000 C 
BRANCH  21  22
ATOM     22  CA  UNL     1       3.419   1.987  18.974  0.00  0.00    +0.000 C 
BRANCH  22  23
ATOM     23  N   UNL     1       3.985   0.852  18.209  0.00  0.00    +0.000 NA
ATOM     24  H1  UNL     1       4.710   0.410  18.781  0.00  0.00    +0.000 HD
ATOM     25  H2  UNL     1       4.526   1.242  17.431  0.00  0.00    +0.000 HD
ENDBRANCH  22  23
BRANCH  22  26
ATOM     26  C   UNL     1       4.053   2.053  20.376  0.00  0.00    +0.000 C 
ATOM     27  O   UNL     1       3.456   2.429  21.377  0.00  0.00    +0.000 OA
BRANCH  26  28
ATOM     28  OXT UNL     1       5.331   1.613  20.430  0.00  0.00    +0.000 OA
ATOM     29  HXT UNL     1       5.644   1.377  21.324  0.00  0.00    +0.000 HD
ENDBRANCH  26  28
ENDBRANCH  22  26
ENDBRANCH  21  22
ENDBRANCH  20  21
ENDBRANCH  19  20
ENDBRANCH  16  19
ENDBRANCH   1  15
BRANCH   1  30
ATOM     30  C   UNL     1       1.823   8.405  18.701  0.00  0.00    +0.000 C 
BRANCH  30  31
ATOM     31  S   UNL     1       1.115   9.031  20.264  0.00  0.00    +0.000 S 
ATOM     32  H   UNL     1       2.258   9.089  20.970  0.00  0.00    +0.000 HD
ENDBRANCH  30  31
ENDBRANCH   1  30
TORSDOF 15
ENDMDL
MODEL 3
REMARK VINA RESULT:      -5.6      2.748      4.865
REMARK  Name = 
REMARK  17 active torsions:
REMARK  status: ('A' for Active; 'I' for Inactive)
REMARK    1  A    between atoms: C_1  and  C_2
REMARK    2  A    between atoms: C_2  and  C_3
REMARK    3  A    between atoms: C_2  and  C_4
REMARK    4  A    between atoms: C_4  and  N_5
REMARK    5  A    between atoms: C_4  and  S_22
REMARK    6  A    between atoms: C_6  and  C_8
REMARK    7  A    between atoms: C_8  and  C_9
REMARK    8  A    between atoms: C_8  and  N_11
REMARK    9  A    between atoms: C_9  and  S_10
REMARK   10  A    between atoms: C_12  and  C_14
REMARK   11  A    between atoms: C_14  and  C_15
REMARK   12  A    between atoms: C_15  and  C_16
REMARK   13  A    between atoms: C_16  and  CA_17
REMARK   14  A    between atoms: CA_17  and  N_18
REMARK   15  A    between atoms: CA_17  and  C_19
REMARK   16  A    between atoms: C_19  and  OXT_21
REMARK   17  A    between atoms: S_22  and  O_25
REMARK                            x       y       z     vdW  Elec       q    Type
REMARK                         _______ _______ _______ _____ _____    ______ ____
ROOT
ATOM      1  C   UNL     1       3.051   5.076  19.399  0.00  0.00    +0.000 C 
ENDROOT
BRANCH   1   3
ATOM      2  N   UNL     1       5.215   5.265  18.202  0.00  0.00    +0.000 N 
ATOM      3  C   UNL     1       4.436   4.484  19.030  0.00  0.00    +0.000 C 
ATOM      4  O   UNL     1       4.835   3.409  19.479  0.00  0.00    +0.000 OA
ATOM      5  H   UNL     1       4.785   6.035  17.707  0.00  0.00    +0.000 HD
BRANCH   2   6
ATOM      6  C   UNL     1       6.495   4.769  17.635  0.00  0.00    +0.000 C 
BRANCH   6   8
ATOM      7  C   UNL     1       7.366   7.158  17.669  0.00  0.00    +0.000 C 
ATOM      8  C   UNL     1       7.647   5.708  18.093  0.00  0.00    +0.000 C 
ATOM      9  C   UNL     1       7.905   5.699  19.603  0.00  0.00    +0.000 C 
ENDBRANCH   6   8
BRANCH   6  10
ATOM     10  S   UNL     1       6.436   4.621  15.775  0.00  0.00    +0.000 S 
ATOM     11  O   UNL     1       5.297   5.345  15.247  0.00  0.00    +0.000 OA
ATOM     12  O   UNL     1       7.761   4.815  15.235  0.00  0.00    +0.000 OA
BRANCH  10  13
ATOM     13  O   UNL     1       6.049   3.058  15.637  0.00  0.00    +0.000 OA
ATOM     14  H   UNL     1       5.183   2.988  15.177  0.00  0.00    +0.000 HD
ENDBRANCH  10  13
ENDBRANCH   6  10
ENDBRANCH   2   6
ENDBRANCH   1   3
BRANCH   1  15
ATOM     15  N   UNL     1       3.063   6.524  19.185  0.00  0.00    +0.000 N 
ATOM     16  C   UNL     1       2.327   7.129  18.198  0.00  0.00    +0.000 C 
ATOM     17  O   UNL     1       1.609   6.510  17.417  0.00  0.00    +0.000 OA
ATOM     18  H   UNL     1       3.681   7.068  19.779  0.00  0.00    +0.000 HD
BRANCH  16  19
ATOM     19  C   UNL     1       2.471   8.634  18.120  0.00  0.00    +0.000 C 
BRANCH  19  20
ATOM     20  C   UNL     1       1.123   9.355  18.111  0.00  0.00    +0.000 C 
BRANCH  20  21
ATOM     21  C   UNL     1       0.966  10.309  19.305  0.00  0.00    +0.000 C 
BRANCH  21  22
ATOM     22  CA  UNL     1       0.097   9.772  20.450  0.00  0.00    +0.000 C 
BRANCH  22  23
ATOM     23  N   UNL     1      -0.665  10.875  21.078  0.00  0.00    +0.000 NA
ATOM     24  H1  UNL     1      -1.403  11.165  20.430  0.00  0.00    +0.000 HD
ATOM     25  H2  UNL     1      -0.057  11.700  21.101  0.00  0.00    +0.000 HD
ENDBRANCH  22  23
BRANCH  22  26
ATOM     26  C   UNL     1       0.900   9.005  21.517  0.00  0.00    +0.000 C 
ATOM     27  O   UNL     1       1.246   7.836  21.400  0.00  0.00    +0.000 OA
BRANCH  26  28
ATOM     28  OXT UNL     1       1.241   9.745  22.596  0.00  0.00    +0.000 OA
ATOM     29  HXT UNL     1       2.194   9.943  22.672  0.00  0.00    +0.000 HD
ENDBRANCH  26  28
ENDBRANCH  22  26
ENDBRANCH  21  22
ENDBRANCH  20  21
ENDBRANCH  19  20
ENDBRANCH  16  19
ENDBRANCH   1  15
BRANCH   1  30
ATOM     30  C   UNL     1       2.619   4.683  20.823  0.00  0.00    +0.000 C 
BRANCH  30  31
ATOM     31  S   UNL     1       1.369   3.353  20.885  0.00  0.00    +0.000 S 
ATOM     32  H   UNL     1       2.173   2.333  20.539  0.00  0.00    +0.000 HD
ENDBRANCH  30  31
ENDBRANCH   1  30
TORSDOF 15
ENDMDL
MODEL 4
REMARK VINA RESULT:      -5.6      3.888      8.009
REMARK  Name = 
REMARK  17 active torsions:
REMARK  status: ('A' for Active; 'I' for Inactive)
REMARK    1  A    between atoms: C_1  and  C_2
REMARK    2  A    between atoms: C_2  and  C_3
REMARK    3  A    between atoms: C_2  and  C_4
REMARK    4  A    between atoms: C_4  and  N_5
REMARK    5  A    between atoms: C_4  and  S_22
REMARK    6  A    between atoms: C_6  and  C_8
REMARK    7  A    between atoms: C_8  and  C_9
REMARK    8  A    between atoms: C_8  and  N_11
REMARK    9  A    between atoms: C_9  and  S_10
REMARK   10  A    between atoms: C_12  and  C_14
REMARK   11  A    between atoms: C_14  and  C_15
REMARK   12  A    between atoms: C_15  and  C_16
REMARK   13  A    between atoms: C_16  and  CA_17
REMARK   14  A    between atoms: CA_17  and  N_18
REMARK   15  A    between atoms: CA_17  and  C_19
REMARK   16  A    between atoms: C_19  and  OXT_21
REMARK   17  A    between atoms: S_22  and  O_25
REMARK                            x       y       z     vdW  Elec       q    Type
REMARK                         _______ _______ _______ _____ _____    ______ ____
ROOT
ATOM      1  C   UNL     1       5.391   5.674  17.510  0.00  0.00    +0.000 C 
ENDROOT
BRANCH   1   3
ATOM      2  N   UNL     1       3.757   4.256  18.721  0.00  0.00    +0.000 N 
ATOM      3  C   UNL     1       5.093   4.511  18.490  0.00  0.00    +0.000 C 
ATOM      4  O   UNL     1       5.985   3.830  18.998  0.00  0.00    +0.000 OA
ATOM      5  H   UNL     1       3.072   4.947  18.446  0.00  0.00    +0.000 HD
BRANCH   2   6
ATOM      6  C   UNL     1       3.313   3.282  19.752  0.00  0.00    +0.000 C 
BRANCH   6   8
ATOM      7  C   UNL     1       2.102   2.375  17.708  0.00  0.00    +0.000 C 
ATOM      8  C   UNL     1       2.771   2.009  19.041  0.00  0.00    +0.000 C 
ATOM      9  C   UNL     1       3.835   0.945  18.759  0.00  0.00    +0.000 C 
ENDBRANCH   6   8
BRANCH   6  10
ATOM     10  S   UNL     1       2.042   4.008  20.911  0.00  0.00    +0.000 S 
ATOM     11  O   UNL     1       0.761   4.128  20.245  0.00  0.00    +0.000 OA
ATOM     12  O   UNL     1       2.156   3.378  22.205  0.00  0.00    +0.000 OA
BRANCH  10  13
ATOM     13  O   UNL     1       2.606   5.518  21.024  0.00  0.00    +0.000 OA
ATOM     14  H   UNL     1       3.054   5.751  20.180  0.00  0.00    +0.000 HD
ENDBRANCH  10  13
ENDBRANCH   6  10
ENDBRANCH   2   6
ENDBRANCH   1   3
BRANCH   1  15
ATOM     15  N   UNL     1       6.279   6.643  18.153  0.00  0.00    +0.000 N 
ATOM     16  C   UNL     1       7.395   7.145  17.533  0.00  0.00    +0.000 C 
ATOM     17  O   UNL     1       7.740   6.821  16.400  0.00  0.00    +0.000 OA
ATOM     18  H   UNL     1       6.056   6.903  19.109  0.00  0.00    +0.000 HD
BRANCH  16  19
ATOM     19  C   UNL     1       8.199   8.131  18.354  0.00  0.00    +0.000 C 
BRANCH  19  20
ATOM     20  C   UNL     1       8.289   9.508  17.699  0.00  0.00    +0.000 C 
BRANCH  20  21
ATOM     21  C   UNL     1       9.136  10.490  18.524  0.00  0.00    +0.000 C 
BRANCH  21  22
ATOM     22  CA  UNL     1       9.635  11.719  17.751  0.00  0.00    +0.000 C 
BRANCH  22  23
ATOM     23  N   UNL     1      11.102  11.644  17.559  0.00  0.00    +0.000 NA
ATOM     24  H1  UNL     1      11.426  12.549  17.208  0.00  0.00    +0.000 HD
ATOM     25  H2  UNL     1      11.279  11.023  16.763  0.00  0.00    +0.000 HD
ENDBRANCH  22  23
BRANCH  22  26
ATOM     26  C   UNL     1       9.253  13.054  18.416  0.00  0.00    +0.000 C 
ATOM     27  O   UNL     1       9.185  13.217  19.629  0.00  0.00    +0.000 OA
BRANCH  26  28
ATOM     28  OXT UNL     1       9.038  14.068  17.548  0.00  0.00    +0.000 OA
ATOM     29  HXT UNL     1       8.333  13.904  16.893  0.00  0.00    +0.000 HD
ENDBRANCH  26  28
ENDBRANCH  22  26
ENDBRANCH  21  22
ENDBRANCH  20  21
ENDBRANCH  19  20
ENDBRANCH  16  19
ENDBRANCH   1  15
BRANCH   1  30
ATOM     30  C   UNL     1       4.100   6.311  16.966  0.00  0.00    +0.000 C 
BRANCH  30  31
ATOM     31  S   UNL     1       3.424   7.646  18.014  0.00  0.00    +0.000 S 
ATOM     32  H   UNL     1       3.044   8.476  17.027  0.00  0.00    +0.000 HD
ENDBRANCH  30  31
ENDBRANCH   1  30
TORSDOF 15
ENDMDL
MODEL 5
REMARK VINA RESULT:      -5.5      3.392      5.119
REMARK  Name = 
REMARK  17 active torsions:
REMARK  status: ('A' for Active; 'I' for Inactive)
REMARK    1  A    between atoms: C_1  and  C_2
REMARK    2  A    between atoms: C_2  and  C_3
REMARK    3  A    between atoms: C_2  and  C_4
REMARK    4  A    between atoms: C_4  and  N_5
REMARK    5  A    between atoms: C_4  and  S_22
REMARK    6  A    between atoms: C_6  and  C_8
REMARK    7  A    between atoms: C_8  and  C_9
REMARK    8  A    between atoms: C_8  and  N_11
REMARK    9  A    between atoms: C_9  and  S_10
REMARK   10  A    between atoms: C_12  and  C_14
REMARK   11  A    between atoms: C_14  and  C_15
REMARK   12  A    between atoms: C_15  and  C_16
REMARK   13  A    between atoms: C_16  and  CA_17
REMARK   14  A    between atoms: CA_17  and  N_18
REMARK   15  A    between atoms: CA_17  and  C_19
REMARK   16  A    between atoms: C_19  and  OXT_21
REMARK   17  A    between atoms: S_22  and  O_25
REMARK                            x       y       z     vdW  Elec       q    Type
REMARK                         _______ _______ _______ _____ _____    ______ ____
ROOT
ATOM      1  C   UNL     1       3.348   4.293  19.418  0.00  0.00    +0.000 C 
ENDROOT
BRANCH   1   3
ATOM      2  N   UNL     1       5.182   5.009  17.910  0.00  0.00    +0.000 N 
ATOM      3  C   UNL     1       4.832   4.207  18.977  0.00  0.00    +0.000 C 
ATOM      4  O   UNL     1       5.656   3.505  19.563  0.00  0.00    +0.000 OA
ATOM      5  H   UNL     1       4.451   5.416  17.342  0.00  0.00    +0.000 HD
BRANCH   2   6
ATOM      6  C   UNL     1       6.521   4.923  17.272  0.00  0.00    +0.000 C 
BRANCH   6   8
ATOM      7  C   UNL     1       6.548   7.452  17.533  0.00  0.00    +0.000 C 
ATOM      8  C   UNL     1       7.362   6.160  17.697  0.00  0.00    +0.000 C 
ATOM      9  C   UNL     1       7.877   6.107  19.138  0.00  0.00    +0.000 C 
ENDBRANCH   6   8
BRANCH   6  10
ATOM     10  S   UNL     1       6.413   4.778  15.414  0.00  0.00    +0.000 S 
ATOM     11  O   UNL     1       5.154   5.315  14.939  0.00  0.00    +0.000 OA
ATOM     12  O   UNL     1       7.667   5.183  14.826  0.00  0.00    +0.000 OA
BRANCH  10  13
ATOM     13  O   UNL     1       6.273   3.175  15.272  0.00  0.00    +0.000 OA
ATOM     14  H   UNL     1       5.638   2.977  14.547  0.00  0.00    +0.000 HD
ENDBRANCH  10  13
ENDBRANCH   6  10
ENDBRANCH   2   6
ENDBRANCH   1   3
BRANCH   1  15
ATOM     15  N   UNL     1       3.058   5.641  19.906  0.00  0.00    +0.000 N 
ATOM     16  C   UNL     1       2.467   6.599  19.121  0.00  0.00    +0.000 C 
ATOM     17  O   UNL     1       2.143   6.406  17.952  0.00  0.00    +0.000 OA
ATOM     18  H   UNL     1       3.354   5.857  20.854  0.00  0.00    +0.000 HD
BRANCH  16  19
ATOM     19  C   UNL     1       2.252   7.938  19.793  0.00  0.00    +0.000 C 
BRANCH  19  20
ATOM     20  C   UNL     1       1.331   7.846  21.009  0.00  0.00    +0.000 C 
BRANCH  20  21
ATOM     21  C   UNL     1       1.447   9.078  21.920  0.00  0.00    +0.000 C 
BRANCH  21  22
ATOM     22  CA  UNL     1       0.187   9.398  22.736  0.00  0.00    +0.000 C 
BRANCH  22  23
ATOM     23  N   UNL     1      -0.848   8.362  22.511  0.00  0.00    +0.000 NA
ATOM     24  H1  UNL     1      -0.377   7.466  22.361  0.00  0.00    +0.000 HD
ATOM     25  H2  UNL     1      -1.275   8.543  21.597  0.00  0.00    +0.000 HD
ENDBRANCH  22  23
BRANCH  22  26
ATOM     26  C   UNL     1      -0.389  10.797  22.446  0.00  0.00    +0.000 C 
ATOM     27  O   UNL     1       0.011  11.524  21.546  0.00  0.00    +0.000 OA
BRANCH  26  28
ATOM     28  OXT UNL     1      -1.419  11.152  23.246  0.00  0.00    +0.000 OA
ATOM     29  HXT UNL     1      -1.236  11.089  24.203  0.00  0.00    +0.000 HD
ENDBRANCH  26  28
ENDBRANCH  22  26
ENDBRANCH  21  22
ENDBRANCH  20  21
ENDBRANCH  19  20
ENDBRANCH  16  19
ENDBRANCH   1  15
BRANCH   1  30
ATOM     30  C   UNL     1       2.988   3.195  20.434  0.00  0.00    +0.000 C 
BRANCH  30  31
ATOM     31  S   UNL     1       1.215   3.128  20.868  0.00  0.00    +0.000 S 
ATOM     32  H   UNL     1       1.359   2.874  22.180  0.00  0.00    +0.000 HD
ENDBRANCH  30  31
ENDBRANCH   1  30
TORSDOF 15
ENDMDL
MODEL 6
REMARK VINA RESULT:      -5.4      4.213      8.140
REMARK  Name = 
REMARK  17 active torsions:
REMARK  status: ('A' for Active; 'I' for Inactive)
REMARK    1  A    between atoms: C_1  and  C_2
REMARK    2  A    between atoms: C_2  and  C_3
REMARK    3  A    between atoms: C_2  and  C_4
REMARK    4  A    between atoms: C_4  and  N_5
REMARK    5  A    between atoms: C_4  and  S_22
REMARK    6  A    between atoms: C_6  and  C_8
REMARK    7  A    between atoms: C_8  and  C_9
REMARK    8  A    between atoms: C_8  and  N_11
REMARK    9  A    between atoms: C_9  and  S_10
REMARK   10  A    between atoms: C_12  and  C_14
REMARK   11  A    between atoms: C_14  and  C_15
REMARK   12  A    between atoms: C_15  and  C_16
REMARK   13  A    between atoms: C_16  and  CA_17
REMARK   14  A    between atoms: CA_17  and  N_18
REMARK   15  A    between atoms: CA_17  and  C_19
REMARK   16  A    between atoms: C_19  and  OXT_21
REMARK   17  A    between atoms: S_22  and  O_25
REMARK                            x       y       z     vdW  Elec       q    Type
REMARK                         _______ _______ _______ _____ _____    ______ ____
ROOT
ATOM      1  C   UNL     1       6.748   5.353  17.204  0.00  0.00    +0.000 C 
ENDROOT
BRANCH   1   3
ATOM      2  N   UNL     1       4.848   4.591  18.602  0.00  0.00    +0.000 N 
ATOM      3  C   UNL     1       5.220   5.216  17.431  0.00  0.00    +0.000 C 
ATOM      4  O   UNL     1       4.392   5.672  16.642  0.00  0.00    +0.000 OA
ATOM      5  H   UNL     1       5.540   4.067  19.120  0.00  0.00    +0.000 HD
BRANCH   2   6
ATOM      6  C   UNL     1       3.431   4.245  18.888  0.00  0.00    +0.000 C 
BRANCH   6   8
ATOM      7  C   UNL     1       2.520   6.575  19.343  0.00  0.00    +0.000 C 
ATOM      8  C   UNL     1       2.882   5.220  19.969  0.00  0.00    +0.000 C 
ATOM      9  C   UNL     1       1.651   4.702  20.718  0.00  0.00    +0.000 C 
ENDBRANCH   6   8
BRANCH   6  10
ATOM     10  S   UNL     1       3.228   2.465  19.412  0.00  0.00    +0.000 S 
ATOM     11  O   UNL     1       3.884   2.235  20.684  0.00  0.00    +0.000 OA
ATOM     12  O   UNL     1       1.864   2.050  19.189  0.00  0.00    +0.000 OA
BRANCH  10  13
ATOM     13  O   UNL     1       4.170   1.747  18.312  0.00  0.00    +0.000 OA
ATOM     14  H   UNL     1       3.862   2.010  17.415  0.00  0.00    +0.000 HD
ENDBRANCH  10  13
ENDBRANCH   6  10
ENDBRANCH   2   6
ENDBRANCH   1   3
BRANCH   1  15
ATOM     15  N   UNL     1       7.096   6.764  17.036  0.00  0.00    +0.000 N 
ATOM     16  C   UNL     1       7.855   7.450  17.951  0.00  0.00    +0.000 C 
ATOM     17  O   UNL     1       8.295   6.941  18.978  0.00  0.00    +0.000 OA
ATOM     18  H   UNL     1       6.711   7.236  16.223  0.00  0.00    +0.000 HD
BRANCH  16  19
ATOM     19  C   UNL     1       8.106   8.905  17.616  0.00  0.00    +0.000 C 
BRANCH  19  20
ATOM     20  C   UNL     1       8.741   9.674  18.774  0.00  0.00    +0.000 C 
BRANCH  20  21
ATOM     21  C   UNL     1       9.532  10.900  18.293  0.00  0.00    +0.000 C 
BRANCH  21  22
ATOM     22  CA  UNL     1      10.510  11.482  19.323  0.00  0.00    +0.000 C 
BRANCH  22  23
ATOM     23  N   UNL     1      10.044  11.187  20.698  0.00  0.00    +0.000 NA
ATOM     24  H1  UNL     1       9.461  11.967  21.013  0.00  0.00    +0.000 HD
ATOM     25  H2  UNL     1      10.855  11.253  21.321  0.00  0.00    +0.000 HD
ENDBRANCH  22  23
BRANCH  22  26
ATOM     26  C   UNL     1      10.745  12.995  19.154  0.00  0.00    +0.000 C 
ATOM     27  O   UNL     1      10.548  13.602  18.109  0.00  0.00    +0.000 OA
BRANCH  26  28
ATOM     28  OXT UNL     1      11.151  13.625  20.279  0.00  0.00    +0.000 OA
ATOM     29  HXT UNL     1      11.510  14.522  20.140  0.00  0.00    +0.000 HD
ENDBRANCH  26  28
ENDBRANCH  22  26
ENDBRANCH  21  22
ENDBRANCH  20  21
ENDBRANCH  19  20
ENDBRANCH  16  19
ENDBRANCH   1  15
BRANCH   1  30
ATOM     30  C   UNL     1       7.236   4.472  16.040  0.00  0.00    +0.000 C 
BRANCH  30  31
ATOM     31  S   UNL     1       6.495   4.890  14.423  0.00  0.00    +0.000 S 
ATOM     32  H   UNL     1       7.446   5.743  14.004  0.00  0.00    +0.000 HD
ENDBRANCH  30  31
ENDBRANCH   1  30
TORSDOF 15
ENDMDL
MODEL 7
REMARK VINA RESULT:      -5.4      1.550      2.252
REMARK  Name = 
REMARK  17 active torsions:
REMARK  status: ('A' for Active; 'I' for Inactive)
REMARK    1  A    between atoms: C_1  and  C_2
REMARK    2  A    between atoms: C_2  and  C_3
REMARK    3  A    between atoms: C_2  and  C_4
REMARK    4  A    between atoms: C_4  and  N_5
REMARK    5  A    between atoms: C_4  and  S_22
REMARK    6  A    between atoms: C_6  and  C_8
REMARK    7  A    between atoms: C_8  and  C_9
REMARK    8  A    between atoms: C_8  and  N_11
REMARK    9  A    between atoms: C_9  and  S_10
REMARK   10  A    between atoms: C_12  and  C_14
REMARK   11  A    between atoms: C_14  and  C_15
REMARK   12  A    between atoms: C_15  and  C_16
REMARK   13  A    between atoms: C_16  and  CA_17
REMARK   14  A    between atoms: CA_17  and  N_18
REMARK   15  A    between atoms: CA_17  and  C_19
REMARK   16  A    between atoms: C_19  and  OXT_21
REMARK   17  A    between atoms: S_22  and  O_25
REMARK                            x       y       z     vdW  Elec       q    Type
REMARK                         _______ _______ _______ _____ _____    ______ ____
ROOT
ATOM      1  C   UNL     1       3.182   6.540  19.183  0.00  0.00    +0.000 C 
ENDROOT
BRANCH   1   3
ATOM      2  N   UNL     1       5.185   6.230  17.755  0.00  0.00    +0.000 N 
ATOM      3  C   UNL     1       4.531   5.830  18.902  0.00  0.00    +0.000 C 
ATOM      4  O   UNL     1       5.010   4.995  19.670  0.00  0.00    +0.000 OA
ATOM      5  H   UNL     1       4.678   6.765  17.063  0.00  0.00    +0.000 HD
BRANCH   2   6
ATOM      6  C   UNL     1       6.405   5.536  17.268  0.00  0.00    +0.000 C 
BRANCH   6   8
ATOM      7  C   UNL     1       7.383   7.875  17.455  0.00  0.00    +0.000 C 
ATOM      8  C   UNL     1       7.653   6.377  17.657  0.00  0.00    +0.000 C 
ATOM      9  C   UNL     1       8.126   6.173  19.099  0.00  0.00    +0.000 C 
ENDBRANCH   6   8
BRANCH   6  10
ATOM     10  S   UNL     1       6.348   5.211  15.430  0.00  0.00    +0.000 S 
ATOM     11  O   UNL     1       7.639   5.480  14.830  0.00  0.00    +0.000 OA
ATOM     12  O   UNL     1       5.652   3.971  15.181  0.00  0.00    +0.000 OA
BRANCH  10  13
ATOM     13  O   UNL     1       5.399   6.434  14.966  0.00  0.00    +0.000 OA
ATOM     14  H   UNL     1       5.482   7.163  15.621  0.00  0.00    +0.000 HD
ENDBRANCH  10  13
ENDBRANCH   6  10
ENDBRANCH   2   6
ENDBRANCH   1   3
BRANCH   1  15
ATOM     15  N   UNL     1       2.300   5.643  19.930  0.00  0.00    +0.000 N 
ATOM     16  C   UNL     1       1.580   4.645  19.324  0.00  0.00    +0.000 C 
ATOM     17  O   UNL     1       1.612   4.429  18.116  0.00  0.00    +0.000 OA
ATOM     18  H   UNL     1       2.208   5.818  20.926  0.00  0.00    +0.000 HD
BRANCH  16  19
ATOM     19  C   UNL     1       0.714   3.821  20.254  0.00  0.00    +0.000 C 
BRANCH  19  20
ATOM     20  C   UNL     1       1.533   3.023  21.269  0.00  0.00    +0.000 C 
BRANCH  20  21
ATOM     21  C   UNL     1       2.293   1.859  20.615  0.00  0.00    +0.000 C 
BRANCH  21  22
ATOM     22  CA  UNL     1       3.650   2.236  20.004  0.00  0.00    +0.000 C 
BRANCH  22  23
ATOM     23  N   UNL     1       3.576   2.196  18.525  0.00  0.00    +0.000 NA
ATOM     24  H1  UNL     1       4.500   2.431  18.152  0.00  0.00    +0.000 HD
ATOM     25  H2  UNL     1       3.007   2.992  18.221  0.00  0.00    +0.000 HD
ENDBRANCH  22  23
BRANCH  22  26
ATOM     26  C   UNL     1       4.810   1.356  20.503  0.00  0.00    +0.000 C 
ATOM     27  O   UNL     1       5.344   1.489  21.598  0.00  0.00    +0.000 OA
BRANCH  26  28
ATOM     28  OXT UNL     1       5.175   0.375  19.647  0.00  0.00    +0.000 OA
ATOM     29  HXT UNL     1       6.137   0.288  19.510  0.00  0.00    +0.000 HD
ENDBRANCH  26  28
ENDBRANCH  22  26
ENDBRANCH  21  22
ENDBRANCH  20  21
ENDBRANCH  19  20
ENDBRANCH  16  19
ENDBRANCH   1  15
BRANCH   1  30
ATOM     30  C   UNL     1       2.537   7.079  17.893  0.00  0.00    +0.000 C 
BRANCH  30  31
ATOM     31  S   UNL     1       2.169   8.868  17.931  0.00  0.00    +0.000 S 
ATOM     32  H   UNL     1       1.954   8.980  19.254  0.00  0.00    +0.000 HD
ENDBRANCH  30  31
ENDBRANCH   1  30
TORSDOF 15
ENDMDL
MODEL 8
REMARK VINA RESULT:      -5.4      3.605      7.810
REMARK  Name = 
REMARK  17 active torsions:
REMARK  status: ('A' for Active; 'I' for Inactive)
REMARK    1  A    between atoms: C_1  and  C_2
REMARK    2  A    between atoms: C_2  and  C_3
REMARK    3  A    between atoms: C_2  and  C_4
REMARK    4  A    between atoms: C_4  and  N_5
REMARK    5  A    between atoms: C_4  and  S_22
REMARK    6  A    between atoms: C_6  and  C_8
REMARK    7  A    between atoms: C_8  and  C_9
REMARK    8  A    between atoms: C_8  and  N_11
REMARK    9  A    between atoms: C_9  and  S_10
REMARK   10  A    between atoms: C_12  and  C_14
REMARK   11  A    between atoms: C_14  and  C_15
REMARK   12  A    between atoms: C_15  and  C_16
REMARK   13  A    between atoms: C_16  and  CA_17
REMARK   14  A    between atoms: CA_17  and  N_18
REMARK   15  A    between atoms: CA_17  and  C_19
REMARK   16  A    between atoms: C_19  and  OXT_21
REMARK   17  A    between atoms: S_22  and  O_25
REMARK                            x       y       z     vdW  Elec       q    Type
REMARK                         _______ _______ _______ _____ _____    ______ ____
ROOT
ATOM      1  C   UNL     1       6.067   5.254  17.367  0.00  0.00    +0.000 C 
ENDROOT
BRANCH   1   3
ATOM      2  N   UNL     1       4.325   3.980  18.587  0.00  0.00    +0.000 N 
ATOM      3  C   UNL     1       4.749   5.229  18.183  0.00  0.00    +0.000 C 
ATOM      4  O   UNL     1       4.142   6.255  18.489  0.00  0.00    +0.000 OA
ATOM      5  H   UNL     1       4.736   3.161  18.160  0.00  0.00    +0.000 HD
BRANCH   2   6
ATOM      6  C   UNL     1       3.005   3.774  19.238  0.00  0.00    +0.000 C 
BRANCH   6   8
ATOM      7  C   UNL     1       4.547   2.089  20.355  0.00  0.00    +0.000 C 
ATOM      8  C   UNL     1       3.088   2.526  20.161  0.00  0.00    +0.000 C 
ATOM      9  C   UNL     1       2.466   2.725  21.547  0.00  0.00    +0.000 C 
ENDBRANCH   6   8
BRANCH   6  10
ATOM     10  S   UNL     1       1.621   3.613  17.996  0.00  0.00    +0.000 S 
ATOM     11  O   UNL     1       0.676   2.600  18.422  0.00  0.00    +0.000 OA
ATOM     12  O   UNL     1       1.178   4.927  17.595  0.00  0.00    +0.000 OA
BRANCH  10  13
ATOM     13  O   UNL     1       2.432   2.947  16.767  0.00  0.00    +0.000 OA
ATOM     14  H   UNL     1       1.787   2.528  16.154  0.00  0.00    +0.000 HD
ENDBRANCH  10  13
ENDBRANCH   6  10
ENDBRANCH   2   6
ENDBRANCH   1   3
BRANCH   1  15
ATOM     15  N   UNL     1       6.510   6.638  17.192  0.00  0.00    +0.000 N 
ATOM     16  C   UNL     1       7.498   7.199  17.960  0.00  0.00    +0.000 C 
ATOM     17  O   UNL     1       8.083   6.593  18.854  0.00  0.00    +0.000 OA
ATOM     18  H   UNL     1       6.018   7.190  16.495  0.00  0.00    +0.000 HD
BRANCH  16  19
ATOM     19  C   UNL     1       7.817   8.645  17.643  0.00  0.00    +0.000 C 
BRANCH  19  20
ATOM     20  C   UNL     1       9.064   9.146  18.370  0.00  0.00    +0.000 C 
BRANCH  20  21
ATOM     21  C   UNL     1       8.767  10.360  19.264  0.00  0.00    +0.000 C 
BRANCH  21  22
ATOM     22  CA  UNL     1       9.406  11.675  18.799  0.00  0.00    +0.000 C 
BRANCH  22  23
ATOM     23  N   UNL     1       8.695  12.201  17.611  0.00  0.00    +0.000 NA
ATOM     24  H1  UNL     1       7.690  12.071  17.756  0.00  0.00    +0.000 HD
ATOM     25  H2  UNL     1       8.888  11.569  16.828  0.00  0.00    +0.000 HD
ENDBRANCH  22  23
BRANCH  22  26
ATOM     26  C   UNL     1      10.913  11.551  18.504  0.00  0.00    +0.000 C 
ATOM     27  O   UNL     1      11.766  11.398  19.370  0.00  0.00    +0.000 OA
BRANCH  26  28
ATOM     28  OXT UNL     1      11.228  11.577  17.189  0.00  0.00    +0.000 OA
ATOM     29  HXT UNL     1      10.837  12.319  16.689  0.00  0.00    +0.000 HD
ENDBRANCH  26  28
ENDBRANCH  22  26
ENDBRANCH  21  22
ENDBRANCH  20  21
ENDBRANCH  19  20
ENDBRANCH  16  19
ENDBRANCH   1  15
BRANCH   1  30
ATOM     30  C   UNL     1       5.933   4.494  16.036  0.00  0.00    +0.000 C 
BRANCH  30  31
ATOM     31  S   UNL     1       7.099   5.039  14.740  0.00  0.00    +0.000 S 
ATOM     32  H   UNL     1       8.229   4.943  15.463  0.00  0.00    +0.000 HD
ENDBRANCH  30  31
ENDBRANCH   1  30
TORSDOF 15
ENDMDL
MODEL 9
REMARK VINA RESULT:      -5.4      4.040      8.192
REMARK  Name = 
REMARK  17 active torsions:
REMARK  status: ('A' for Active; 'I' for Inactive)
REMARK    1  A    between atoms: C_1  and  C_2
REMARK    2  A    between atoms: C_2  and  C_3
REMARK    3  A    between atoms: C_2  and  C_4
REMARK    4  A    between atoms: C_4  and  N_5
REMARK    5  A    between atoms: C_4  and  S_22
REMARK    6  A    between atoms: C_6  and  C_8
REMARK    7  A    between atoms: C_8  and  C_9
REMARK    8  A    between atoms: C_8  and  N_11
REMARK    9  A    between atoms: C_9  and  S_10
REMARK   10  A    between atoms: C_12  and  C_14
REMARK   11  A    between atoms: C_14  and  C_15
REMARK   12  A    between atoms: C_15  and  C_16
REMARK   13  A    between atoms: C_16  and  CA_17
REMARK   14  A    between atoms: CA_17  and  N_18
REMARK   15  A    between atoms: CA_17  and  C_19
REMARK   16  A    between atoms: C_19  and  OXT_21
REMARK   17  A    between atoms: S_22  and  O_25
REMARK                            x       y       z     vdW  Elec       q    Type
REMARK                         _______ _______ _______ _____ _____    ______ ____
ROOT
ATOM      1  C   UNL     1       6.337   6.037  17.648  0.00  0.00    +0.000 C 
ENDROOT
BRANCH   1   3
ATOM      2  N   UNL     1       4.135   5.214  18.438  0.00  0.00    +0.000 N 
ATOM      3  C   UNL     1       4.790   6.037  17.545  0.00  0.00    +0.000 C 
ATOM      4  O   UNL     1       4.181   6.753  16.750  0.00  0.00    +0.000 OA
ATOM      5  H   UNL     1       4.664   4.508  18.933  0.00  0.00    +0.000 HD
BRANCH   2   6
ATOM      6  C   UNL     1       2.669   4.985  18.361  0.00  0.00    +0.000 C 
BRANCH   6   8
ATOM      7  C   UNL     1       2.599   4.691  20.885  0.00  0.00    +0.000 C 
ATOM      8  C   UNL     1       2.015   5.458  19.690  0.00  0.00    +0.000 C 
ATOM      9  C   UNL     1       2.168   6.956  19.969  0.00  0.00    +0.000 C 
ENDBRANCH   6   8
BRANCH   6  10
ATOM     10  S   UNL     1       2.249   3.203  17.991  0.00  0.00    +0.000 S 
ATOM     11  O   UNL     1       1.107   2.781  18.776  0.00  0.00    +0.000 OA
ATOM     12  O   UNL     1       2.299   2.984  16.565  0.00  0.00    +0.000 OA
BRANCH  10  13
ATOM     13  O   UNL     1       3.524   2.476  18.667  0.00  0.00    +0.000 OA
ATOM     14  H   UNL     1       3.367   1.506  18.671  0.00  0.00    +0.000 HD
ENDBRANCH  10  13
ENDBRANCH   6  10
ENDBRANCH   2   6
ENDBRANCH   1   3
BRANCH   1  15
ATOM     15  N   UNL     1       6.853   7.358  17.289  0.00  0.00    +0.000 N 
ATOM     16  C   UNL     1       7.911   7.938  17.941  0.00  0.00    +0.000 C 
ATOM     17  O   UNL     1       8.503   7.402  18.875  0.00  0.00    +0.000 OA
ATOM     18  H   UNL     1       6.361   7.857  16.553  0.00  0.00    +0.000 HD
BRANCH  16  19
ATOM     19  C   UNL     1       8.301   9.312  17.440  0.00  0.00    +0.000 C 
BRANCH  19  20
ATOM     20  C   UNL     1       8.999  10.153  18.509  0.00  0.00    +0.000 C 
BRANCH  20  21
ATOM     21  C   UNL     1       9.099  11.633  18.110  0.00  0.00    +0.000 C 
BRANCH  21  22
ATOM     22  CA  UNL     1      10.230  12.411  18.797  0.00  0.00    +0.000 C 
BRANCH  22  23
ATOM     23  N   UNL     1      10.238  13.819  18.338  0.00  0.00    +0.000 NA
ATOM     24  H1  UNL     1      10.315  14.424  19.160  0.00  0.00    +0.000 HD
ATOM     25  H2  UNL     1       9.299  14.038  17.991  0.00  0.00    +0.000 HD
ENDBRANCH  22  23
BRANCH  22  26
ATOM     26  C   UNL     1      11.619  11.777  18.592  0.00  0.00    +0.000 C 
ATOM     27  O   UNL     1      12.331  11.387  19.510  0.00  0.00    +0.000 OA
BRANCH  26  28
ATOM     28  OXT UNL     1      11.983  11.638  17.298  0.00  0.00    +0.000 OA
ATOM     29  HXT UNL     1      11.422  12.119  16.661  0.00  0.00    +0.000 HD
ENDBRANCH  26  28
ENDBRANCH  22  26
ENDBRANCH  21  22
ENDBRANCH  20  21
ENDBRANCH  19  20
ENDBRANCH  16  19
ENDBRANCH   1  15
BRANCH   1  30
ATOM     30  C   UNL     1       6.967   4.902  16.821  0.00  0.00    +0.000 C 
BRANCH  30  31
ATOM     31  S   UNL     1       5.822   4.115  15.635  0.00  0.00    +0.000 S 
ATOM     32  H   UNL     1       6.654   3.157  15.189  0.00  0.00    +0.000 HD
ENDBRANCH  30  31
ENDBRANCH   1  30
TORSDOF 15
ENDMDL
