MODEL 1
REMARK VINA RESULT:      -7.3      0.000      0.000
REMARK  Name = 
REMARK  8 active torsions:
REMARK  status: ('A' for Active; 'I' for Inactive)
REMARK    1  A    between atoms: C_1  and  O_2
REMARK    2  A    between atoms: O_2  and  C_3
REMARK    3  A    between atoms: C_3  and  C_4
REMARK    4  A    between atoms: C_4  and  C_5
REMARK    5  A    between atoms: C_5  and  N_6
REMARK    6  A    between atoms: C_7  and  C_9
REMARK    7  A    between atoms: N_17  and  S_18
REMARK    8  A    between atoms: S_18  and  C_21
REMARK                            x       y       z     vdW  Elec       q    Type
REMARK                         _______ _______ _______ _____ _____    ______ ____
ROOT
ATOM      1  C   UNL     1       6.438   6.510  17.019  0.00  0.00    +0.000 C 
ATOM      2  C   UNL     1       6.434   5.692  18.332  0.00  0.00    +0.000 C 
ATOM      3  C   UNL     1       5.620   4.408  18.331  0.00  0.00    +0.000 C 
ATOM      4  N   UNL     1       4.243   4.622  17.809  0.00  0.00    +0.000 NA
ATOM      5  C   UNL     1       4.228   5.327  16.495  0.00  0.00    +0.000 C 
ATOM      6  C   UNL     1       4.950   6.682  16.609  0.00  0.00    +0.000 C 
ENDROOT
BRANCH   1   7
ATOM      7  N   UNL     1       7.081   7.801  17.384  0.00  0.00    +0.000 N 
ATOM      8  C   UNL     1       8.086   8.017  18.301  0.00  0.00    +0.000 C 
ATOM      9  O   UNL     1       8.638   7.149  18.958  0.00  0.00    +0.000 OA
ATOM     10  H   UNL     1       6.900   8.578  16.762  0.00  0.00    +0.000 HD
BRANCH   8  11
ATOM     11  C   UNL     1       8.522   9.445  18.397  0.00  0.00    +0.000 A 
ATOM     12  C   UNL     1       9.391   9.883  19.409  0.00  0.00    +0.000 A 
ATOM     13  C   UNL     1       9.700  11.241  19.529  0.00  0.00    +0.000 A 
ATOM     14  C   UNL     1       9.150  12.161  18.638  0.00  0.00    +0.000 A 
ATOM     15  C   UNL     1       8.321  11.723  17.604  0.00  0.00    +0.000 A 
ATOM     16  C   UNL     1       8.016  10.365  17.476  0.00  0.00    +0.000 A 
ENDBRANCH   8  11
ENDBRANCH   1   7
BRANCH   4  17
ATOM     17  S   UNL     1       3.293   3.170  17.801  0.00  0.00    +0.000 S 
ATOM     18  O   UNL     1       2.148   3.382  16.932  0.00  0.00    +0.000 OA
ATOM     19  O   UNL     1       4.189   2.055  17.597  0.00  0.00    +0.000 OA
BRANCH  17  20
ATOM     20  C   UNL     1       2.654   3.100  19.439  0.00  0.00    +0.000 A 
ATOM     21  C   UNL     1       1.328   3.449  19.699  0.00  0.00    +0.000 A 
ATOM     22  C   UNL     1       0.832   3.297  20.990  0.00  0.00    +0.000 A 
ATOM     23  C   UNL     1       1.683   2.802  21.968  0.00  0.00    +0.000 A 
ATOM     24  N   UNL     1       2.972   2.459  21.738  0.00  0.00    +0.000 NA
ATOM     25  C   UNL     1       3.432   2.604  20.469  0.00  0.00    +0.000 A 
ENDBRANCH  17  20
ENDBRANCH   4  17
BRANCH   1  26
ATOM     26  C   UNL     1       7.149   5.862  15.801  0.00  0.00    +0.000 C 
BRANCH  26  27
ATOM     27  C   UNL     1       7.175   4.355  15.598  0.00  0.00    +0.000 C 
BRANCH  27  29
ATOM     28  C   UNL     1       7.343   4.868  13.259  0.00  0.00    +0.000 C 
ATOM     29  O   UNL     1       6.637   4.187  14.276  0.00  0.00    +0.000 OA
ENDBRANCH  27  29
ENDBRANCH  26  27
ENDBRANCH   1  26
TORSDOF 7
ENDMDL
MODEL 2
REMARK VINA RESULT:      -7.3      8.452     10.036
REMARK  Name = 
REMARK  8 active torsions:
REMARK  status: ('A' for Active; 'I' for Inactive)
REMARK    1  A    between atoms: C_1  and  O_2
REMARK    2  A    between atoms: O_2  and  C_3
REMARK    3  A    between atoms: C_3  and  C_4
REMARK    4  A    between atoms: C_4  and  C_5
REMARK    5  A    between atoms: C_5  and  N_6
REMARK    6  A    between atoms: C_7  and  C_9
REMARK    7  A    between atoms: N_17  and  S_18
REMARK    8  A    between atoms: S_18  and  C_21
REMARK                            x       y       z     vdW  Elec       q    Type
REMARK                         _______ _______ _______ _____ _____    ______ ____
ROOT
ATOM      1  C   UNL     1       0.347  10.440  19.644  0.00  0.00    +0.000 C 
ATOM      2  C   UNL     1      -0.362  10.158  20.990  0.00  0.00    +0.000 C 
ATOM      3  C   UNL     1      -1.094  11.327  21.630  0.00  0.00    +0.000 C 
ATOM      4  N   UNL     1      -0.245  12.546  21.697  0.00  0.00    +0.000 NA
ATOM      5  C   UNL     1       0.374  12.891  20.385  0.00  0.00    +0.000 C 
ATOM      6  C   UNL     1       1.213  11.709  19.866  0.00  0.00    +0.000 C 
ENDROOT
BRANCH   1   7
ATOM      7  N   UNL     1       1.170   9.226  19.394  0.00  0.00    +0.000 N 
ATOM      8  C   UNL     1       1.965   8.952  18.303  0.00  0.00    +0.000 C 
ATOM      9  O   UNL     1       2.141   9.700  17.354  0.00  0.00    +0.000 OA
ATOM     10  H   UNL     1       1.317   8.619  20.189  0.00  0.00    +0.000 HD
BRANCH   8  11
ATOM     11  C   UNL     1       2.685   7.643  18.391  0.00  0.00    +0.000 A 
ATOM     12  C   UNL     1       3.602   7.240  17.407  0.00  0.00    +0.000 A 
ATOM     13  C   UNL     1       4.182   5.969  17.468  0.00  0.00    +0.000 A 
ATOM     14  C   UNL     1       3.856   5.105  18.512  0.00  0.00    +0.000 A 
ATOM     15  C   UNL     1       2.978   5.520  19.515  0.00  0.00    +0.000 A 
ATOM     16  C   UNL     1       2.402   6.792  19.462  0.00  0.00    +0.000 A 
ENDBRANCH   8  11
ENDBRANCH   1   7
BRANCH   4  17
ATOM     17  S   UNL     1      -1.059  13.894  22.428  0.00  0.00    +0.000 S 
ATOM     18  O   UNL     1      -0.877  13.809  23.866  0.00  0.00    +0.000 OA
ATOM     19  O   UNL     1      -0.690  15.084  21.696  0.00  0.00    +0.000 OA
BRANCH  17  20
ATOM     20  C   UNL     1      -2.759  13.544  22.132  0.00  0.00    +0.000 A 
ATOM     21  C   UNL     1      -3.322  13.771  20.875  0.00  0.00    +0.000 A 
ATOM     22  C   UNL     1      -4.644  13.400  20.652  0.00  0.00    +0.000 A 
ATOM     23  C   UNL     1      -5.350  12.818  21.697  0.00  0.00    +0.000 A 
ATOM     24  N   UNL     1      -4.823  12.591  22.923  0.00  0.00    +0.000 NA
ATOM     25  C   UNL     1      -3.528  12.949  23.115  0.00  0.00    +0.000 A 
ENDBRANCH  17  20
ENDBRANCH   4  17
BRANCH   1  26
ATOM     26  C   UNL     1      -0.569  10.749  18.430  0.00  0.00    +0.000 C 
BRANCH  26  27
ATOM     27  C   UNL     1      -1.899  10.040  18.229  0.00  0.00    +0.000 C 
BRANCH  27  29
ATOM     28  C   UNL     1      -2.633  10.553  16.002  0.00  0.00    +0.000 C 
ATOM     29  O   UNL     1      -1.884   9.692  16.835  0.00  0.00    +0.000 OA
ENDBRANCH  27  29
ENDBRANCH  26  27
ENDBRANCH   1  26
TORSDOF 7
ENDMDL
MODEL 3
REMARK VINA RESULT:      -7.3      5.710      7.159
REMARK  Name = 
REMARK  8 active torsions:
REMARK  status: ('A' for Active; 'I' for Inactive)
REMARK    1  A    between atoms: C_1  and  O_2
REMARK    2  A    between atoms: O_2  and  C_3
REMARK    3  A    between atoms: C_3  and  C_4
REMARK    4  A    between atoms: C_4  and  C_5
REMARK    5  A    between atoms: C_5  and  N_6
REMARK    6  A    between atoms: C_7  and  C_9
REMARK    7  A    between atoms: N_17  and  S_18
REMARK    8  A    between atoms: S_18  and  C_21
REMARK                            x       y       z     vdW  Elec       q    Type
REMARK                         _______ _______ _______ _____ _____    ______ ____
ROOT
ATOM      1  C   UNL     1       1.201   9.987  18.971  0.00  0.00    +0.000 C 
ATOM      2  C   UNL     1       2.008   9.319  17.831  0.00  0.00    +0.000 C 
ATOM      3  C   UNL     1       2.063   7.800  17.837  0.00  0.00    +0.000 C 
ATOM      4  N   UNL     1       2.442   7.261  19.171  0.00  0.00    +0.000 NA
ATOM      5  C   UNL     1       1.612   7.822  20.276  0.00  0.00    +0.000 C 
ATOM      6  C   UNL     1       1.717   9.358  20.294  0.00  0.00    +0.000 C 
ENDROOT
BRANCH   1   7
ATOM      7  N   UNL     1       1.529  11.434  18.863  0.00  0.00    +0.000 N 
ATOM      8  C   UNL     1       1.510  12.383  19.860  0.00  0.00    +0.000 C 
ATOM      9  O   UNL     1       1.235  12.170  21.031  0.00  0.00    +0.000 OA
ATOM     10  H   UNL     1       2.001  11.719  18.015  0.00  0.00    +0.000 HD
BRANCH   8  11
ATOM     11  C   UNL     1       1.931  13.746  19.408  0.00  0.00    +0.000 A 
ATOM     12  C   UNL     1       1.355  14.909  19.945  0.00  0.00    +0.000 A 
ATOM     13  C   UNL     1       1.700  16.163  19.430  0.00  0.00    +0.000 A 
ATOM     14  C   UNL     1       2.623  16.258  18.390  0.00  0.00    +0.000 A 
ATOM     15  C   UNL     1       3.229  15.107  17.885  0.00  0.00    +0.000 A 
ATOM     16  C   UNL     1       2.893  13.852  18.401  0.00  0.00    +0.000 A 
ENDBRANCH   8  11
ENDBRANCH   1   7
BRANCH   4  17
ATOM     17  S   UNL     1       2.514   5.527  19.201  0.00  0.00    +0.000 S 
ATOM     18  O   UNL     1       2.508   5.098  20.589  0.00  0.00    +0.000 OA
ATOM     19  O   UNL     1       1.540   5.027  18.259  0.00  0.00    +0.000 OA
BRANCH  17  20
ATOM     20  C   UNL     1       4.130   5.183  18.593  0.00  0.00    +0.000 A 
ATOM     21  C   UNL     1       4.344   4.970  17.231  0.00  0.00    +0.000 A 
ATOM     22  C   UNL     1       5.646   4.787  16.775  0.00  0.00    +0.000 A 
ATOM     23  C   UNL     1       6.680   4.826  17.700  0.00  0.00    +0.000 A 
ATOM     24  N   UNL     1       6.493   5.030  19.026  0.00  0.00    +0.000 NA
ATOM     25  C   UNL     1       5.217   5.216  19.447  0.00  0.00    +0.000 A 
ENDBRANCH  17  20
ENDBRANCH   4  17
BRANCH   1  26
ATOM     26  C   UNL     1      -0.334   9.763  18.956  0.00  0.00    +0.000 C 
BRANCH  26  27
ATOM     27  C   UNL     1      -1.194  10.186  17.775  0.00  0.00    +0.000 C 
BRANCH  27  29
ATOM     28  C   UNL     1      -2.101  11.884  19.210  0.00  0.00    +0.000 C 
ATOM     29  O   UNL     1      -1.417  11.586  18.009  0.00  0.00    +0.000 OA
ENDBRANCH  27  29
ENDBRANCH  26  27
ENDBRANCH   1  26
TORSDOF 7
ENDMDL
MODEL 4
REMARK VINA RESULT:      -7.2      8.505     10.119
REMARK  Name = 
REMARK  8 active torsions:
REMARK  status: ('A' for Active; 'I' for Inactive)
REMARK    1  A    between atoms: C_1  and  O_2
REMARK    2  A    between atoms: O_2  and  C_3
REMARK    3  A    between atoms: C_3  and  C_4
REMARK    4  A    between atoms: C_4  and  C_5
REMARK    5  A    between atoms: C_5  and  N_6
REMARK    6  A    between atoms: C_7  and  C_9
REMARK    7  A    between atoms: N_17  and  S_18
REMARK    8  A    between atoms: S_18  and  C_21
REMARK                            x       y       z     vdW  Elec       q    Type
REMARK                         _______ _______ _______ _____ _____    ______ ____
ROOT
ATOM      1  C   UNL     1       0.392  10.381  19.653  0.00  0.00    +0.000 C 
ATOM      2  C   UNL     1      -0.307  10.119  21.009  0.00  0.00    +0.000 C 
ATOM      3  C   UNL     1      -1.043  11.295  21.633  0.00  0.00    +0.000 C 
ATOM      4  N   UNL     1      -0.202  12.521  21.672  0.00  0.00    +0.000 NA
ATOM      5  C   UNL     1       0.406  12.846  20.350  0.00  0.00    +0.000 C 
ATOM      6  C   UNL     1       1.251  11.660  19.847  0.00  0.00    +0.000 C 
ENDROOT
BRANCH   1   7
ATOM      7  N   UNL     1       1.221   9.168  19.420  0.00  0.00    +0.000 N 
ATOM      8  C   UNL     1       1.989   8.867  18.317  0.00  0.00    +0.000 C 
ATOM      9  O   UNL     1       2.130   9.585  17.339  0.00  0.00    +0.000 OA
ATOM     10  H   UNL     1       1.398   8.590  20.230  0.00  0.00    +0.000 HD
BRANCH   8  11
ATOM     11  C   UNL     1       2.726   7.569  18.427  0.00  0.00    +0.000 A 
ATOM     12  C   UNL     1       2.495   6.679  19.489  0.00  0.00    +0.000 A 
ATOM     13  C   UNL     1       3.270   5.523  19.614  0.00  0.00    +0.000 A 
ATOM     14  C   UNL     1       4.268   5.248  18.680  0.00  0.00    +0.000 A 
ATOM     15  C   UNL     1       4.469   6.109  17.600  0.00  0.00    +0.000 A 
ATOM     16  C   UNL     1       3.692   7.263  17.466  0.00  0.00    +0.000 A 
ENDBRANCH   8  11
ENDBRANCH   1   7
BRANCH   4  17
ATOM     17  S   UNL     1      -1.021  13.876  22.383  0.00  0.00    +0.000 S 
ATOM     18  O   UNL     1      -0.837  13.813  23.823  0.00  0.00    +0.000 OA
ATOM     19  O   UNL     1      -0.656  15.057  21.635  0.00  0.00    +0.000 OA
BRANCH  17  20
ATOM     20  C   UNL     1      -2.719  13.516  22.093  0.00  0.00    +0.000 A 
ATOM     21  C   UNL     1      -3.282  13.721  20.832  0.00  0.00    +0.000 A 
ATOM     22  C   UNL     1      -4.604  13.343  20.616  0.00  0.00    +0.000 A 
ATOM     23  C   UNL     1      -5.307  12.774  21.669  0.00  0.00    +0.000 A 
ATOM     24  N   UNL     1      -4.780  12.568  22.899  0.00  0.00    +0.000 NA
ATOM     25  C   UNL     1      -3.487  12.934  23.085  0.00  0.00    +0.000 A 
ENDBRANCH  17  20
ENDBRANCH   4  17
BRANCH   1  26
ATOM     26  C   UNL     1      -0.534  10.662  18.440  0.00  0.00    +0.000 C 
BRANCH  26  27
ATOM     27  C   UNL     1      -1.920  10.047  18.330  0.00  0.00    +0.000 C 
BRANCH  27  29
ATOM     28  C   UNL     1      -4.110  10.878  17.805  0.00  0.00    +0.000 C 
ATOM     29  O   UNL     1      -2.779  11.187  18.168  0.00  0.00    +0.000 OA
ENDBRANCH  27  29
ENDBRANCH  26  27
ENDBRANCH   1  26
TORSDOF 7
ENDMDL
MODEL 5
REMARK VINA RESULT:      -7.2      6.124      7.579
REMARK  Name = 
REMARK  8 active torsions:
REMARK  status: ('A' for Active; 'I' for Inactive)
REMARK    1  A    between atoms: C_1  and  O_2
REMARK    2  A    between atoms: O_2  and  C_3
REMARK    3  A    between atoms: C_3  and  C_4
REMARK    4  A    between atoms: C_4  and  C_5
REMARK    5  A    between atoms: C_5  and  N_6
REMARK    6  A    between atoms: C_7  and  C_9
REMARK    7  A    between atoms: N_17  and  S_18
REMARK    8  A    between atoms: S_18  and  C_21
REMARK                            x       y       z     vdW  Elec       q    Type
REMARK                         _______ _______ _______ _____ _____    ______ ____
ROOT
ATOM      1  C   UNL     1       0.942  10.261  19.010  0.00  0.00    +0.000 C 
ATOM      2  C   UNL     1       1.829   9.755  17.847  0.00  0.00    +0.000 C 
ATOM      3  C   UNL     1       2.040   8.252  17.759  0.00  0.00    +0.000 C 
ATOM      4  N   UNL     1       2.455   7.670  19.063  0.00  0.00    +0.000 NA
ATOM      5  C   UNL     1       1.556   8.070  20.184  0.00  0.00    +0.000 C 
ATOM      6  C   UNL     1       1.501   9.604  20.301  0.00  0.00    +0.000 C 
ENDROOT
BRANCH   1   7
ATOM      7  N   UNL     1       1.120  11.738  19.000  0.00  0.00    +0.000 N 
ATOM      8  C   UNL     1       1.074  12.603  20.070  0.00  0.00    +0.000 C 
ATOM      9  O   UNL     1       0.897  12.277  21.233  0.00  0.00    +0.000 OA
ATOM     10  H   UNL     1       1.505  12.132  18.152  0.00  0.00    +0.000 HD
BRANCH   8  11
ATOM     11  C   UNL     1       1.329  14.032  19.706  0.00  0.00    +0.000 A 
ATOM     12  C   UNL     1       2.529  14.676  20.049  0.00  0.00    +0.000 A 
ATOM     13  C   UNL     1       2.694  16.039  19.781  0.00  0.00    +0.000 A 
ATOM     14  C   UNL     1       1.671  16.756  19.163  0.00  0.00    +0.000 A 
ATOM     15  C   UNL     1       0.495  16.108  18.780  0.00  0.00    +0.000 A 
ATOM     16  C   UNL     1       0.328  14.745  19.040  0.00  0.00    +0.000 A 
ENDBRANCH   8  11
ENDBRANCH   1   7
BRANCH   4  17
ATOM     17  S   UNL     1       2.706   5.954  18.986  0.00  0.00    +0.000 S 
ATOM     18  O   UNL     1       2.569   5.415  20.328  0.00  0.00    +0.000 OA
ATOM     19  O   UNL     1       1.917   5.440  17.891  0.00  0.00    +0.000 OA
BRANCH  17  20
ATOM     20  C   UNL     1       4.413   5.816  18.578  0.00  0.00    +0.000 A 
ATOM     21  C   UNL     1       4.936   6.501  17.480  0.00  0.00    +0.000 A 
ATOM     22  C   UNL     1       6.306   6.439  17.239  0.00  0.00    +0.000 A 
ATOM     23  C   UNL     1       7.094   5.695  18.107  0.00  0.00    +0.000 A 
ATOM     24  N   UNL     1       6.605   5.023  19.175  0.00  0.00    +0.000 NA
ATOM     25  C   UNL     1       5.269   5.106  19.398  0.00  0.00    +0.000 A 
ENDBRANCH  17  20
ENDBRANCH   4  17
BRANCH   1  26
ATOM     26  C   UNL     1      -0.562   9.883  18.950  0.00  0.00    +0.000 C 
BRANCH  26  27
ATOM     27  C   UNL     1      -1.435  10.255  17.762  0.00  0.00    +0.000 C 
BRANCH  27  29
ATOM     28  C   UNL     1      -2.511  12.001  19.010  0.00  0.00    +0.000 C 
ATOM     29  O   UNL     1      -1.654  11.664  17.937  0.00  0.00    +0.000 OA
ENDBRANCH  27  29
ENDBRANCH  26  27
ENDBRANCH   1  26
TORSDOF 7
ENDMDL
MODEL 6
REMARK VINA RESULT:      -7.1      4.254      7.007
REMARK  Name = 
REMARK  8 active torsions:
REMARK  status: ('A' for Active; 'I' for Inactive)
REMARK    1  A    between atoms: C_1  and  O_2
REMARK    2  A    between atoms: O_2  and  C_3
REMARK    3  A    between atoms: C_3  and  C_4
REMARK    4  A    between atoms: C_4  and  C_5
REMARK    5  A    between atoms: C_5  and  N_6
REMARK    6  A    between atoms: C_7  and  C_9
REMARK    7  A    between atoms: N_17  and  S_18
REMARK    8  A    between atoms: S_18  and  C_21
REMARK                            x       y       z     vdW  Elec       q    Type
REMARK                         _______ _______ _______ _____ _____    ______ ____
ROOT
ATOM      1  C   UNL     1       2.104   6.839  19.324  0.00  0.00    +0.000 C 
ATOM      2  C   UNL     1       1.827   6.082  18.003  0.00  0.00    +0.000 C 
ATOM      3  C   UNL     1       2.667   4.841  17.742  0.00  0.00    +0.000 C 
ATOM      4  N   UNL     1       4.119   5.100  17.937  0.00  0.00    +0.000 NA
ATOM      5  C   UNL     1       4.419   5.746  19.247  0.00  0.00    +0.000 C 
ATOM      6  C   UNL     1       3.640   7.067  19.381  0.00  0.00    +0.000 C 
ENDROOT
BRANCH   1   7
ATOM      7  N   UNL     1       1.345   8.112  19.192  0.00  0.00    +0.000 N 
ATOM      8  C   UNL     1       1.509   9.101  18.248  0.00  0.00    +0.000 C 
ATOM      9  O   UNL     1       2.314   9.073  17.330  0.00  0.00    +0.000 OA
ATOM     10  H   UNL     1       0.491   8.176  19.730  0.00  0.00    +0.000 HD
BRANCH   8  11
ATOM     11  C   UNL     1       0.547  10.239  18.389  0.00  0.00    +0.000 A 
ATOM     12  C   UNL     1      -0.812  10.099  18.064  0.00  0.00    +0.000 A 
ATOM     13  C   UNL     1      -1.661  11.208  18.113  0.00  0.00    +0.000 A 
ATOM     14  C   UNL     1      -1.161  12.452  18.495  0.00  0.00    +0.000 A 
ATOM     15  C   UNL     1       0.179  12.584  18.861  0.00  0.00    +0.000 A 
ATOM     16  C   UNL     1       1.031  11.476  18.821  0.00  0.00    +0.000 A 
ENDBRANCH   8  11
ENDBRANCH   1   7
BRANCH   4  17
ATOM     17  S   UNL     1       5.098   3.698  17.641  0.00  0.00    +0.000 S 
ATOM     18  O   UNL     1       6.114   3.628  18.677  0.00  0.00    +0.000 OA
ATOM     19  O   UNL     1       4.213   2.585  17.386  0.00  0.00    +0.000 OA
BRANCH  17  20
ATOM     20  C   UNL     1       5.947   4.108  16.154  0.00  0.00    +0.000 A 
ATOM     21  C   UNL     1       5.527   3.584  14.931  0.00  0.00    +0.000 A 
ATOM     22  C   UNL     1       6.166   3.998  13.766  0.00  0.00    +0.000 A 
ATOM     23  C   UNL     1       7.198   4.921  13.874  0.00  0.00    +0.000 A 
ATOM     24  N   UNL     1       7.621   5.440  15.050  0.00  0.00    +0.000 NA
ATOM     25  C   UNL     1       6.976   5.031  16.172  0.00  0.00    +0.000 A 
ENDBRANCH  17  20
ENDBRANCH   4  17
BRANCH   1  26
ATOM     26  C   UNL     1       1.729   6.103  20.637  0.00  0.00    +0.000 C 
BRANCH  26  27
ATOM     27  C   UNL     1       1.268   4.654  20.639  0.00  0.00    +0.000 C 
BRANCH  27  29
ATOM     28  C   UNL     1       2.788   2.816  20.906  0.00  0.00    +0.000 C 
ATOM     29  O   UNL     1       2.242   3.994  21.463  0.00  0.00    +0.000 OA
ENDBRANCH  27  29
ENDBRANCH  26  27
ENDBRANCH   1  26
TORSDOF 7
ENDMDL
MODEL 7
REMARK VINA RESULT:      -7.0      5.680      7.158
REMARK  Name = 
REMARK  8 active torsions:
REMARK  status: ('A' for Active; 'I' for Inactive)
REMARK    1  A    between atoms: C_1  and  O_2
REMARK    2  A    between atoms: O_2  and  C_3
REMARK    3  A    between atoms: C_3  and  C_4
REMARK    4  A    between atoms: C_4  and  C_5
REMARK    5  A    between atoms: C_5  and  N_6
REMARK    6  A    between atoms: C_7  and  C_9
REMARK    7  A    between atoms: N_17  and  S_18
REMARK    8  A    between atoms: S_18  and  C_21
REMARK                            x       y       z     vdW  Elec       q    Type
REMARK                         _______ _______ _______ _____ _____    ______ ____
ROOT
ATOM      1  C   UNL     1       1.244   9.774  18.934  0.00  0.00    +0.000 C 
ATOM      2  C   UNL     1       2.143   9.104  17.868  0.00  0.00    +0.000 C 
ATOM      3  C   UNL     1       2.215   7.586  17.897  0.00  0.00    +0.000 C 
ATOM      4  N   UNL     1       2.498   7.067  19.262  0.00  0.00    +0.000 NA
ATOM      5  C   UNL     1       1.579   7.630  20.294  0.00  0.00    +0.000 C 
ATOM      6  C   UNL     1       1.664   9.167  20.301  0.00  0.00    +0.000 C 
ENDROOT
BRANCH   1   7
ATOM      7  N   UNL     1       1.562  11.224  18.834  0.00  0.00    +0.000 N 
ATOM      8  C   UNL     1       1.047  12.258  19.584  0.00  0.00    +0.000 C 
ATOM      9  O   UNL     1       0.242  12.136  20.494  0.00  0.00    +0.000 OA
ATOM     10  H   UNL     1       2.382  11.461  18.291  0.00  0.00    +0.000 HD
BRANCH   8  11
ATOM     11  C   UNL     1       1.615  13.599  19.239  0.00  0.00    +0.000 A 
ATOM     12  C   UNL     1       2.516  13.765  18.175  0.00  0.00    +0.000 A 
ATOM     13  C   UNL     1       3.102  15.013  17.942  0.00  0.00    +0.000 A 
ATOM     14  C   UNL     1       2.784  16.095  18.761  0.00  0.00    +0.000 A 
ATOM     15  C   UNL     1       1.855  15.943  19.792  0.00  0.00    +0.000 A 
ATOM     16  C   UNL     1       1.262  14.699  20.024  0.00  0.00    +0.000 A 
ENDBRANCH   8  11
ENDBRANCH   1   7
BRANCH   4  17
ATOM     17  S   UNL     1       2.588   5.335  19.320  0.00  0.00    +0.000 S 
ATOM     18  O   UNL     1       2.651   4.930  20.713  0.00  0.00    +0.000 OA
ATOM     19  O   UNL     1       1.575   4.809  18.434  0.00  0.00    +0.000 OA
BRANCH  17  20
ATOM     20  C   UNL     1       4.176   4.994  18.642  0.00  0.00    +0.000 A 
ATOM     21  C   UNL     1       4.310   4.607  17.308  0.00  0.00    +0.000 A 
ATOM     22  C   UNL     1       5.586   4.430  16.783  0.00  0.00    +0.000 A 
ATOM     23  C   UNL     1       6.676   4.649  17.614  0.00  0.00    +0.000 A 
ATOM     24  N   UNL     1       6.568   5.023  18.910  0.00  0.00    +0.000 NA
ATOM     25  C   UNL     1       5.315   5.200  19.399  0.00  0.00    +0.000 A 
ENDBRANCH  17  20
ENDBRANCH   4  17
BRANCH   1  26
ATOM     26  C   UNL     1      -0.283   9.531  18.806  0.00  0.00    +0.000 C 
BRANCH  26  27
ATOM     27  C   UNL     1      -1.084  10.069  17.630  0.00  0.00    +0.000 C 
BRANCH  27  29
ATOM     28  C   UNL     1      -2.724  11.637  18.413  0.00  0.00    +0.000 C 
ATOM     29  O   UNL     1      -2.391  10.282  18.186  0.00  0.00    +0.000 OA
ENDBRANCH  27  29
ENDBRANCH  26  27
ENDBRANCH   1  26
TORSDOF 7
ENDMDL
MODEL 8
REMARK VINA RESULT:      -7.0      6.076      7.622
REMARK  Name = 
REMARK  8 active torsions:
REMARK  status: ('A' for Active; 'I' for Inactive)
REMARK    1  A    between atoms: C_1  and  O_2
REMARK    2  A    between atoms: O_2  and  C_3
REMARK    3  A    between atoms: C_3  and  C_4
REMARK    4  A    between atoms: C_4  and  C_5
REMARK    5  A    between atoms: C_5  and  N_6
REMARK    6  A    between atoms: C_7  and  C_9
REMARK    7  A    between atoms: N_17  and  S_18
REMARK    8  A    between atoms: S_18  and  C_21
REMARK                            x       y       z     vdW  Elec       q    Type
REMARK                         _______ _______ _______ _____ _____    ______ ____
ROOT
ATOM      1  C   UNL     1       0.925  10.094  19.314  0.00  0.00    +0.000 C 
ATOM      2  C   UNL     1       1.836   9.767  18.107  0.00  0.00    +0.000 C 
ATOM      3  C   UNL     1       2.126   8.296  17.852  0.00  0.00    +0.000 C 
ATOM      4  N   UNL     1       2.571   7.595  19.086  0.00  0.00    +0.000 NA
ATOM      5  C   UNL     1       1.653   7.820  20.240  0.00  0.00    +0.000 C 
ATOM      6  C   UNL     1       1.519   9.327  20.527  0.00  0.00    +0.000 C 
ENDROOT
BRANCH   1   7
ATOM      7  N   UNL     1       1.026  11.570  19.470  0.00  0.00    +0.000 N 
ATOM      8  C   UNL     1       0.779  12.321  20.597  0.00  0.00    +0.000 C 
ATOM      9  O   UNL     1       0.450  11.873  21.685  0.00  0.00    +0.000 OA
ATOM     10  H   UNL     1       1.511  12.061  18.731  0.00  0.00    +0.000 HD
BRANCH   8  11
ATOM     11  C   UNL     1       1.011  13.788  20.412  0.00  0.00    +0.000 A 
ATOM     12  C   UNL     1       0.528  14.473  19.285  0.00  0.00    +0.000 A 
ATOM     13  C   UNL     1       0.847  15.821  19.095  0.00  0.00    +0.000 A 
ATOM     14  C   UNL     1       1.637  16.488  20.029  0.00  0.00    +0.000 A 
ATOM     15  C   UNL     1       2.082  15.821  21.172  0.00  0.00    +0.000 A 
ATOM     16  C   UNL     1       1.759  14.475  21.370  0.00  0.00    +0.000 A 
ENDBRANCH   8  11
ENDBRANCH   1   7
BRANCH   4  17
ATOM     17  S   UNL     1       2.911   5.914  18.819  0.00  0.00    +0.000 S 
ATOM     18  O   UNL     1       2.963   5.251  20.111  0.00  0.00    +0.000 OA
ATOM     19  O   UNL     1       2.032   5.445  17.773  0.00  0.00    +0.000 OA
BRANCH  17  20
ATOM     20  C   UNL     1       4.564   5.930  18.214  0.00  0.00    +0.000 A 
ATOM     21  C   UNL     1       5.608   5.424  18.990  0.00  0.00    +0.000 A 
ATOM     22  C   UNL     1       6.887   5.372  18.446  0.00  0.00    +0.000 A 
ATOM     23  C   UNL     1       7.069   5.828  17.147  0.00  0.00    +0.000 A 
ATOM     24  N   UNL     1       6.071   6.323  16.379  0.00  0.00    +0.000 NA
ATOM     25  C   UNL     1       4.829   6.354  16.925  0.00  0.00    +0.000 A 
ENDBRANCH  17  20
ENDBRANCH   4  17
BRANCH   1  26
ATOM     26  C   UNL     1      -0.557   9.647  19.205  0.00  0.00    +0.000 C 
BRANCH  26  27
ATOM     27  C   UNL     1      -1.571  10.432  18.388  0.00  0.00    +0.000 C 
BRANCH  27  29
ATOM     28  C   UNL     1      -2.646  10.049  16.276  0.00  0.00    +0.000 C 
ATOM     29  O   UNL     1      -1.527   9.795  17.101  0.00  0.00    +0.000 OA
ENDBRANCH  27  29
ENDBRANCH  26  27
ENDBRANCH   1  26
TORSDOF 7
ENDMDL
MODEL 9
REMARK VINA RESULT:      -6.9      7.980     10.572
REMARK  Name = 
REMARK  8 active torsions:
REMARK  status: ('A' for Active; 'I' for Inactive)
REMARK    1  A    between atoms: C_1  and  O_2
REMARK    2  A    between atoms: O_2  and  C_3
REMARK    3  A    between atoms: C_3  and  C_4
REMARK    4  A    between atoms: C_4  and  C_5
REMARK    5  A    between atoms: C_5  and  N_6
REMARK    6  A    between atoms: C_7  and  C_9
REMARK    7  A    between atoms: N_17  and  S_18
REMARK    8  A    between atoms: S_18  and  C_21
REMARK                            x       y       z     vdW  Elec       q    Type
REMARK                         _______ _______ _______ _____ _____    ______ ____
ROOT
ATOM      1  C   UNL     1       0.370  10.422  19.649  0.00  0.00    +0.000 C 
ATOM      2  C   UNL     1       0.453  10.704  21.168  0.00  0.00    +0.000 C 
ATOM      3  C   UNL     1      -0.079  12.048  21.640  0.00  0.00    +0.000 C 
ATOM      4  N   UNL     1       0.467  13.176  20.838  0.00  0.00    +0.000 NA
ATOM      5  C   UNL     1       0.311  12.967  19.370  0.00  0.00    +0.000 C 
ATOM      6  C   UNL     1       0.996  11.656  18.943  0.00  0.00    +0.000 C 
ENDROOT
BRANCH   1   7
ATOM      7  N   UNL     1       1.175   9.186  19.453  0.00  0.00    +0.000 N 
ATOM      8  C   UNL     1       1.954   8.846  18.370  0.00  0.00    +0.000 C 
ATOM      9  O   UNL     1       2.129   9.540  17.382  0.00  0.00    +0.000 OA
ATOM     10  H   UNL     1       1.323   8.619  20.278  0.00  0.00    +0.000 HD
BRANCH   8  11
ATOM     11  C   UNL     1       2.658   7.533  18.518  0.00  0.00    +0.000 A 
ATOM     12  C   UNL     1       3.575   7.077  17.557  0.00  0.00    +0.000 A 
ATOM     13  C   UNL     1       4.139   5.803  17.677  0.00  0.00    +0.000 A 
ATOM     14  C   UNL     1       3.798   4.989  18.755  0.00  0.00    +0.000 A 
ATOM     15  C   UNL     1       2.921   5.458  19.735  0.00  0.00    +0.000 A 
ATOM     16  C   UNL     1       2.360   6.733  19.624  0.00  0.00    +0.000 A 
ENDBRANCH   8  11
ENDBRANCH   1   7
BRANCH   4  17
ATOM     17  S   UNL     1      -0.125  14.721  21.361  0.00  0.00    +0.000 S 
ATOM     18  O   UNL     1      -1.577  14.681  21.343  0.00  0.00    +0.000 OA
ATOM     19  O   UNL     1       0.598  15.091  22.557  0.00  0.00    +0.000 OA
BRANCH  17  20
ATOM     20  C   UNL     1       0.348  15.796  20.050  0.00  0.00    +0.000 A 
ATOM     21  C   UNL     1      -0.601  16.270  19.144  0.00  0.00    +0.000 A 
ATOM     22  C   UNL     1      -0.208  17.187  18.174  0.00  0.00    +0.000 A 
ATOM     23  C   UNL     1       1.120  17.592  18.151  0.00  0.00    +0.000 A 
ATOM     24  N   UNL     1       2.057  17.143  19.019  0.00  0.00    +0.000 NA
ATOM     25  C   UNL     1       1.649  16.258  19.964  0.00  0.00    +0.000 A 
ENDBRANCH  17  20
ENDBRANCH   4  17
BRANCH   1  26
ATOM     26  C   UNL     1      -1.052  10.259  19.051  0.00  0.00    +0.000 C 
BRANCH  26  27
ATOM     27  C   UNL     1      -1.275  10.031  17.564  0.00  0.00    +0.000 C 
BRANCH  27  29
ATOM     28  C   UNL     1      -2.767  10.974  15.937  0.00  0.00    +0.000 C 
ATOM     29  O   UNL     1      -2.111  11.134  17.178  0.00  0.00    +0.000 OA
ENDBRANCH  27  29
ENDBRANCH  26  27
ENDBRANCH   1  26
TORSDOF 7
ENDMDL
