MODEL 1
REMARK VINA RESULT:      -8.2      0.000      0.000
REMARK  Name = 
REMARK  14 active torsions:
REMARK  status: ('A' for Active; 'I' for Inactive)
REMARK    1  A    between atoms: C_1  and  C_2
REMARK    2  A    between atoms: C_2  and  O_3
REMARK    3  A    between atoms: O_3  and  C_4
REMARK    4  A    between atoms: C_9  and  N_10
REMARK    5  A    between atoms: N_10  and  C_11
REMARK    6  A    between atoms: N_10  and  S_25
REMARK    7  A    between atoms: C_11  and  C_12
REMARK    8  A    between atoms: N_14  and  C_15
REMARK    9  A    between atoms: C_15  and  C_16
REMARK   10  A    between atoms: C_16  and  C_17
REMARK   11  A    between atoms: C_20  and  O_21
REMARK   12  A    between atoms: O_21  and  C_22
REMARK   13  A    between atoms: S_25  and  C_28
REMARK   14  A    between atoms: C_31  and  C_32
REMARK                            x       y       z     vdW  Elec       q    Type
REMARK                         _______ _______ _______ _____ _____    ______ ____
ROOT
ATOM      1  N   UNL     1       4.526   5.140  19.065  0.00  0.00    +0.000 N 
ENDROOT
BRANCH   1   7
ATOM      2  C   UNL     1       3.575   3.070  19.983  0.00  0.00    +0.000 A 
ATOM      3  C   UNL     1       2.803   2.378  20.952  0.00  0.00    +0.000 A 
ATOM      4  C   UNL     1       1.823   3.042  21.662  0.00  0.00    +0.000 A 
ATOM      5  C   UNL     1       1.655   4.378  21.424  0.00  0.00    +0.000 A 
ATOM      6  C   UNL     1       2.542   5.093  20.585  0.00  0.00    +0.000 A 
ATOM      7  C   UNL     1       3.563   4.455  19.903  0.00  0.00    +0.000 A 
BRANCH   2   8
ATOM      8  O   UNL     1       4.262   2.448  18.983  0.00  0.00    +0.000 OA
BRANCH   8  10
ATOM      9  C   UNL     1       2.442   2.162  17.672  0.00  0.00    +0.000 C 
ATOM     10  C   UNL     1       3.479   1.407  18.427  0.00  0.00    +0.000 C 
ENDBRANCH   8  10
ENDBRANCH   2   8
ENDBRANCH   1   7
BRANCH   1  11
ATOM     11  S   UNL     1       3.977   6.019  17.727  0.00  0.00    +0.000 S 
ATOM     12  O   UNL     1       2.548   5.745  17.561  0.00  0.00    +0.000 OA
ATOM     13  O   UNL     1       4.418   7.383  17.870  0.00  0.00    +0.000 OA
BRANCH  11  14
ATOM     14  C   UNL     1       4.786   5.342  16.293  0.00  0.00    +0.000 A 
ATOM     15  C   UNL     1       5.327   6.214  15.345  0.00  0.00    +0.000 A 
ATOM     16  C   UNL     1       6.007   5.708  14.236  0.00  0.00    +0.000 A 
ATOM     17  C   UNL     1       6.166   4.328  14.064  0.00  0.00    +0.000 A 
ATOM     18  C   UNL     1       6.865   3.782  12.853  0.00  0.00    +0.000 C 
ATOM     19  C   UNL     1       5.665   3.461  15.047  0.00  0.00    +0.000 A 
ATOM     20  C   UNL     1       4.990   3.964  16.168  0.00  0.00    +0.000 A 
ENDBRANCH  11  14
ENDBRANCH   1  11
BRANCH   1  21
ATOM     21  C   UNL     1       5.950   4.699  19.090  0.00  0.00    +0.000 C 
BRANCH  21  22
ATOM     22  C   UNL     1       7.107   5.666  19.354  0.00  0.00    +0.000 C 
ATOM     23  O   UNL     1       7.825   5.563  20.351  0.00  0.00    +0.000 OA
ATOM     24  N   UNL     1       7.374   6.617  18.369  0.00  0.00    +0.000 N 
ATOM     25  H   UNL     1       6.564   6.878  17.811  0.00  0.00    +0.000 HD
BRANCH  24  26
ATOM     26  C   UNL     1       8.410   7.638  18.569  0.00  0.00    +0.000 C 
BRANCH  26  27
ATOM     27  C   UNL     1       8.153   9.040  17.936  0.00  0.00    +0.000 C 
BRANCH  27  28
ATOM     28  C   UNL     1       8.837  10.275  18.513  0.00  0.00    +0.000 A 
ATOM     29  C   UNL     1       9.085  11.414  17.734  0.00  0.00    +0.000 A 
ATOM     30  C   UNL     1       9.952  12.423  18.199  0.00  0.00    +0.000 A 
ATOM     31  C   UNL     1      10.577  12.333  19.452  0.00  0.00    +0.000 A 
ATOM     32  C   UNL     1      10.208  11.291  20.309  0.00  0.00    +0.000 A 
ATOM     33  C   UNL     1       9.332  10.272  19.843  0.00  0.00    +0.000 A 
BRANCH  31  34
ATOM     34  O   UNL     1      11.637  13.192  19.603  0.00  0.00    +0.000 OA
ATOM     35  C   UNL     1      11.398  14.556  19.936  0.00  0.00    +0.000 C 
ENDBRANCH  31  34
ENDBRANCH  27  28
ENDBRANCH  26  27
ENDBRANCH  24  26
ENDBRANCH  21  22
ENDBRANCH   1  21
TORSDOF 11
ENDMDL
MODEL 2
REMARK VINA RESULT:      -7.8      1.627      2.522
REMARK  Name = 
REMARK  14 active torsions:
REMARK  status: ('A' for Active; 'I' for Inactive)
REMARK    1  A    between atoms: C_1  and  C_2
REMARK    2  A    between atoms: C_2  and  O_3
REMARK    3  A    between atoms: O_3  and  C_4
REMARK    4  A    between atoms: C_9  and  N_10
REMARK    5  A    between atoms: N_10  and  C_11
REMARK    6  A    between atoms: N_10  and  S_25
REMARK    7  A    between atoms: C_11  and  C_12
REMARK    8  A    between atoms: N_14  and  C_15
REMARK    9  A    between atoms: C_15  and  C_16
REMARK   10  A    between atoms: C_16  and  C_17
REMARK   11  A    between atoms: C_20  and  O_21
REMARK   12  A    between atoms: O_21  and  C_22
REMARK   13  A    between atoms: S_25  and  C_28
REMARK   14  A    between atoms: C_31  and  C_32
REMARK                            x       y       z     vdW  Elec       q    Type
REMARK                         _______ _______ _______ _____ _____    ______ ____
ROOT
ATOM      1  N   UNL     1       4.853   4.878  17.970  0.00  0.00    +0.000 N 
ENDROOT
BRANCH   1   7
ATOM      2  C   UNL     1       3.121   5.637  19.537  0.00  0.00    +0.000 A 
ATOM      3  C   UNL     1       2.345   6.666  20.132  0.00  0.00    +0.000 A 
ATOM      4  C   UNL     1       2.139   7.855  19.462  0.00  0.00    +0.000 A 
ATOM      5  C   UNL     1       2.734   8.013  18.241  0.00  0.00    +0.000 A 
ATOM      6  C   UNL     1       3.644   7.053  17.736  0.00  0.00    +0.000 A 
ATOM      7  C   UNL     1       3.903   5.877  18.416  0.00  0.00    +0.000 A 
BRANCH   2   8
ATOM      8  O   UNL     1       3.055   4.329  19.916  0.00  0.00    +0.000 OA
BRANCH   8  10
ATOM      9  C   UNL     1       1.895   2.391  19.823  0.00  0.00    +0.000 C 
ATOM     10  C   UNL     1       1.718   3.868  19.849  0.00  0.00    +0.000 C 
ENDBRANCH   8  10
ENDBRANCH   2   8
ENDBRANCH   1   7
BRANCH   1  11
ATOM     11  S   UNL     1       4.369   3.733  16.823  0.00  0.00    +0.000 S 
ATOM     12  O   UNL     1       4.787   2.412  17.298  0.00  0.00    +0.000 OA
ATOM     13  O   UNL     1       2.981   3.960  16.512  0.00  0.00    +0.000 OA
BRANCH  11  14
ATOM     14  C   UNL     1       5.308   4.051  15.343  0.00  0.00    +0.000 A 
ATOM     15  C   UNL     1       6.471   4.820  15.431  0.00  0.00    +0.000 A 
ATOM     16  C   UNL     1       7.249   5.044  14.295  0.00  0.00    +0.000 A 
ATOM     17  C   UNL     1       6.884   4.495  13.059  0.00  0.00    +0.000 A 
ATOM     18  C   UNL     1       7.701   4.766  11.829  0.00  0.00    +0.000 C 
ATOM     19  C   UNL     1       5.744   3.682  12.991  0.00  0.00    +0.000 A 
ATOM     20  C   UNL     1       4.964   3.445  14.131  0.00  0.00    +0.000 A 
ENDBRANCH  11  14
ENDBRANCH   1  11
BRANCH   1  21
ATOM     21  C   UNL     1       6.036   4.573  18.825  0.00  0.00    +0.000 C 
BRANCH  21  22
ATOM     22  C   UNL     1       7.062   5.637  19.223  0.00  0.00    +0.000 C 
ATOM     23  O   UNL     1       7.589   5.647  20.337  0.00  0.00    +0.000 OA
ATOM     24  N   UNL     1       7.446   6.545  18.236  0.00  0.00    +0.000 N 
ATOM     25  H   UNL     1       6.739   6.712  17.524  0.00  0.00    +0.000 HD
BRANCH  24  26
ATOM     26  C   UNL     1       8.362   7.651  18.545  0.00  0.00    +0.000 C 
BRANCH  26  27
ATOM     27  C   UNL     1       8.053   9.030  17.888  0.00  0.00    +0.000 C 
BRANCH  27  28
ATOM     28  C   UNL     1       8.769  10.286  18.375  0.00  0.00    +0.000 A 
ATOM     29  C   UNL     1       9.584  10.276  19.516  0.00  0.00    +0.000 A 
ATOM     30  C   UNL     1      10.008  11.485  20.103  0.00  0.00    +0.000 A 
ATOM     31  C   UNL     1       9.647  12.729  19.561  0.00  0.00    +0.000 A 
ATOM     32  C   UNL     1       8.980  12.753  18.331  0.00  0.00    +0.000 A 
ATOM     33  C   UNL     1       8.553  11.534  17.737  0.00  0.00    +0.000 A 
BRANCH  31  34
ATOM     34  O   UNL     1       9.831  13.780  20.423  0.00  0.00    +0.000 OA
ATOM     35  C   UNL     1       9.299  13.713  21.743  0.00  0.00    +0.000 C 
ENDBRANCH  31  34
ENDBRANCH  27  28
ENDBRANCH  26  27
ENDBRANCH  24  26
ENDBRANCH  21  22
ENDBRANCH   1  21
TORSDOF 11
ENDMDL
MODEL 3
REMARK VINA RESULT:      -7.8      7.635     11.882
REMARK  Name = 
REMARK  14 active torsions:
REMARK  status: ('A' for Active; 'I' for Inactive)
REMARK    1  A    between atoms: C_1  and  C_2
REMARK    2  A    between atoms: C_2  and  O_3
REMARK    3  A    between atoms: O_3  and  C_4
REMARK    4  A    between atoms: C_9  and  N_10
REMARK    5  A    between atoms: N_10  and  C_11
REMARK    6  A    between atoms: N_10  and  S_25
REMARK    7  A    between atoms: C_11  and  C_12
REMARK    8  A    between atoms: N_14  and  C_15
REMARK    9  A    between atoms: C_15  and  C_16
REMARK   10  A    between atoms: C_16  and  C_17
REMARK   11  A    between atoms: C_20  and  O_21
REMARK   12  A    between atoms: O_21  and  C_22
REMARK   13  A    between atoms: S_25  and  C_28
REMARK   14  A    between atoms: C_31  and  C_32
REMARK                            x       y       z     vdW  Elec       q    Type
REMARK                         _______ _______ _______ _____ _____    ______ ____
ROOT
ATOM      1  N   UNL     1       0.548  13.743  19.735  0.00  0.00    +0.000 N 
ENDROOT
BRANCH   1   7
ATOM      2  C   UNL     1       1.163  16.014  19.032  0.00  0.00    +0.000 A 
ATOM      3  C   UNL     1       2.114  16.956  18.560  0.00  0.00    +0.000 A 
ATOM      4  C   UNL     1       3.224  16.530  17.859  0.00  0.00    +0.000 A 
ATOM      5  C   UNL     1       3.386  15.186  17.673  0.00  0.00    +0.000 A 
ATOM      6  C   UNL     1       2.526  14.248  18.294  0.00  0.00    +0.000 A 
ATOM      7  C   UNL     1       1.437  14.654  19.044  0.00  0.00    +0.000 A 
BRANCH   2   8
ATOM      8  O   UNL     1      -0.117  16.340  19.368  0.00  0.00    +0.000 OA
BRANCH   8  10
ATOM      9  C   UNL     1      -1.819  17.793  19.045  0.00  0.00    +0.000 C 
ATOM     10  C   UNL     1      -0.718  17.093  18.330  0.00  0.00    +0.000 C 
ENDBRANCH   8  10
ENDBRANCH   2   8
ENDBRANCH   1   7
BRANCH   1  11
ATOM     11  S   UNL     1       0.955  13.213  21.289  0.00  0.00    +0.000 S 
ATOM     12  O   UNL     1       1.518  11.866  21.174  0.00  0.00    +0.000 OA
ATOM     13  O   UNL     1       1.728  14.244  21.933  0.00  0.00    +0.000 OA
BRANCH  11  14
ATOM     14  C   UNL     1      -0.568  13.041  22.195  0.00  0.00    +0.000 A 
ATOM     15  C   UNL     1      -1.403  14.153  22.334  0.00  0.00    +0.000 A 
ATOM     16  C   UNL     1      -2.624  14.033  22.999  0.00  0.00    +0.000 A 
ATOM     17  C   UNL     1      -3.033  12.801  23.524  0.00  0.00    +0.000 A 
ATOM     18  C   UNL     1      -4.329  12.679  24.271  0.00  0.00    +0.000 C 
ATOM     19  C   UNL     1      -2.213  11.679  23.335  0.00  0.00    +0.000 A 
ATOM     20  C   UNL     1      -0.991  11.791  22.659  0.00  0.00    +0.000 A 
ENDBRANCH  11  14
ENDBRANCH   1  11
BRANCH   1  21
ATOM     21  C   UNL     1      -0.422  12.937  18.940  0.00  0.00    +0.000 C 
BRANCH  21  22
ATOM     22  C   UNL     1      -0.294  11.420  18.776  0.00  0.00    +0.000 C 
ATOM     23  O   UNL     1      -1.241  10.661  18.994  0.00  0.00    +0.000 OA
ATOM     24  N   UNL     1       0.917  10.938  18.279  0.00  0.00    +0.000 N 
ATOM     25  H   UNL     1       1.717  11.532  18.483  0.00  0.00    +0.000 HD
BRANCH  24  26
ATOM     26  C   UNL     1       1.162   9.495  18.165  0.00  0.00    +0.000 C 
BRANCH  26  27
ATOM     27  C   UNL     1       1.704   8.766  19.433  0.00  0.00    +0.000 C 
BRANCH  27  28
ATOM     28  C   UNL     1       2.135   7.307  19.349  0.00  0.00    +0.000 A 
ATOM     29  C   UNL     1       2.698   6.768  18.182  0.00  0.00    +0.000 A 
ATOM     30  C   UNL     1       2.833   5.373  18.031  0.00  0.00    +0.000 A 
ATOM     31  C   UNL     1       2.430   4.484  19.039  0.00  0.00    +0.000 A 
ATOM     32  C   UNL     1       2.027   5.010  20.272  0.00  0.00    +0.000 A 
ATOM     33  C   UNL     1       1.891   6.418  20.427  0.00  0.00    +0.000 A 
BRANCH  31  34
ATOM     34  O   UNL     1       2.297   3.188  18.610  0.00  0.00    +0.000 OA
ATOM     35  C   UNL     1       1.041   2.528  18.736  0.00  0.00    +0.000 C 
ENDBRANCH  31  34
ENDBRANCH  27  28
ENDBRANCH  26  27
ENDBRANCH  24  26
ENDBRANCH  21  22
ENDBRANCH   1  21
TORSDOF 11
ENDMDL
MODEL 4
REMARK VINA RESULT:      -7.7      7.960     11.885
REMARK  Name = 
REMARK  14 active torsions:
REMARK  status: ('A' for Active; 'I' for Inactive)
REMARK    1  A    between atoms: C_1  and  C_2
REMARK    2  A    between atoms: C_2  and  O_3
REMARK    3  A    between atoms: O_3  and  C_4
REMARK    4  A    between atoms: C_9  and  N_10
REMARK    5  A    between atoms: N_10  and  C_11
REMARK    6  A    between atoms: N_10  and  S_25
REMARK    7  A    between atoms: C_11  and  C_12
REMARK    8  A    between atoms: N_14  and  C_15
REMARK    9  A    between atoms: C_15  and  C_16
REMARK   10  A    between atoms: C_16  and  C_17
REMARK   11  A    between atoms: C_20  and  O_21
REMARK   12  A    between atoms: O_21  and  C_22
REMARK   13  A    between atoms: S_25  and  C_28
REMARK   14  A    between atoms: C_31  and  C_32
REMARK                            x       y       z     vdW  Elec       q    Type
REMARK                         _______ _______ _______ _____ _____    ______ ____
ROOT
ATOM      1  N   UNL     1       0.249  14.149  19.996  0.00  0.00    +0.000 N 
ENDROOT
BRANCH   1   7
ATOM      2  C   UNL     1       1.004  16.175  18.832  0.00  0.00    +0.000 A 
ATOM      3  C   UNL     1       2.016  16.941  18.196  0.00  0.00    +0.000 A 
ATOM      4  C   UNL     1       3.115  16.315  17.642  0.00  0.00    +0.000 A 
ATOM      5  C   UNL     1       3.206  14.957  17.761  0.00  0.00    +0.000 A 
ATOM      6  C   UNL     1       2.282  14.223  18.545  0.00  0.00    +0.000 A 
ATOM      7  C   UNL     1       1.202  14.839  19.151  0.00  0.00    +0.000 A 
BRANCH   2   8
ATOM      8  O   UNL     1      -0.262  16.630  19.046  0.00  0.00    +0.000 OA
BRANCH   8  10
ATOM      9  C   UNL     1      -1.547  18.427  18.563  0.00  0.00    +0.000 C 
ATOM     10  C   UNL     1      -0.709  17.375  17.927  0.00  0.00    +0.000 C 
ENDBRANCH   8  10
ENDBRANCH   2   8
ENDBRANCH   1   7
BRANCH   1  11
ATOM     11  S   UNL     1       0.741  13.601  21.519  0.00  0.00    +0.000 S 
ATOM     12  O   UNL     1       1.423  12.317  21.339  0.00  0.00    +0.000 OA
ATOM     13  O   UNL     1       1.432  14.675  22.186  0.00  0.00    +0.000 OA
BRANCH  11  14
ATOM     14  C   UNL     1      -0.737  13.255  22.449  0.00  0.00    +0.000 A 
ATOM     15  C   UNL     1      -1.496  14.322  22.936  0.00  0.00    +0.000 A 
ATOM     16  C   UNL     1      -2.684  14.078  23.627  0.00  0.00    +0.000 A 
ATOM     17  C   UNL     1      -3.134  12.768  23.833  0.00  0.00    +0.000 A 
ATOM     18  C   UNL     1      -4.392  12.503  24.609  0.00  0.00    +0.000 C 
ATOM     19  C   UNL     1      -2.393  11.705  23.297  0.00  0.00    +0.000 A 
ATOM     20  C   UNL     1      -1.205  11.945  22.593  0.00  0.00    +0.000 A 
ENDBRANCH  11  14
ENDBRANCH   1  11
BRANCH   1  21
ATOM     21  C   UNL     1      -0.954  13.527  19.372  0.00  0.00    +0.000 C 
BRANCH  21  22
ATOM     22  C   UNL     1      -0.887  12.222  18.573  0.00  0.00    +0.000 C 
ATOM     23  O   UNL     1      -1.625  12.013  17.608  0.00  0.00    +0.000 OA
ATOM     24  N   UNL     1       0.111  11.314  18.928  0.00  0.00    +0.000 N 
ATOM     25  H   UNL     1       0.398  11.370  19.902  0.00  0.00    +0.000 HD
BRANCH  24  26
ATOM     26  C   UNL     1       0.202  10.002  18.274  0.00  0.00    +0.000 C 
BRANCH  26  27
ATOM     27  C   UNL     1       1.619   9.534  17.822  0.00  0.00    +0.000 C 
BRANCH  27  28
ATOM     28  C   UNL     1       2.248   8.294  18.447  0.00  0.00    +0.000 A 
ATOM     29  C   UNL     1       3.149   7.485  17.738  0.00  0.00    +0.000 A 
ATOM     30  C   UNL     1       3.501   6.210  18.225  0.00  0.00    +0.000 A 
ATOM     31  C   UNL     1       2.983   5.718  19.433  0.00  0.00    +0.000 A 
ATOM     32  C   UNL     1       2.221   6.577  20.233  0.00  0.00    +0.000 A 
ATOM     33  C   UNL     1       1.865   7.864  19.743  0.00  0.00    +0.000 A 
BRANCH  31  34
ATOM     34  O   UNL     1       3.134   4.363  19.586  0.00  0.00    +0.000 OA
ATOM     35  C   UNL     1       4.324   3.729  19.126  0.00  0.00    +0.000 C 
ENDBRANCH  31  34
ENDBRANCH  27  28
ENDBRANCH  26  27
ENDBRANCH  24  26
ENDBRANCH  21  22
ENDBRANCH   1  21
TORSDOF 11
ENDMDL
MODEL 5
REMARK VINA RESULT:      -7.7      1.647      2.420
REMARK  Name = 
REMARK  14 active torsions:
REMARK  status: ('A' for Active; 'I' for Inactive)
REMARK    1  A    between atoms: C_1  and  C_2
REMARK    2  A    between atoms: C_2  and  O_3
REMARK    3  A    between atoms: O_3  and  C_4
REMARK    4  A    between atoms: C_9  and  N_10
REMARK    5  A    between atoms: N_10  and  C_11
REMARK    6  A    between atoms: N_10  and  S_25
REMARK    7  A    between atoms: C_11  and  C_12
REMARK    8  A    between atoms: N_14  and  C_15
REMARK    9  A    between atoms: C_15  and  C_16
REMARK   10  A    between atoms: C_16  and  C_17
REMARK   11  A    between atoms: C_20  and  O_21
REMARK   12  A    between atoms: O_21  and  C_22
REMARK   13  A    between atoms: S_25  and  C_28
REMARK   14  A    between atoms: C_31  and  C_32
REMARK                            x       y       z     vdW  Elec       q    Type
REMARK                         _______ _______ _______ _____ _____    ______ ____
ROOT
ATOM      1  N   UNL     1       4.340   5.025  18.585  0.00  0.00    +0.000 N 
ENDROOT
BRANCH   1   7
ATOM      2  C   UNL     1       2.467   5.314  20.147  0.00  0.00    +0.000 A 
ATOM      3  C   UNL     1       1.582   6.139  20.888  0.00  0.00    +0.000 A 
ATOM      4  C   UNL     1       1.323   7.430  20.473  0.00  0.00    +0.000 A 
ATOM      5  C   UNL     1       1.974   7.886  19.360  0.00  0.00    +0.000 A 
ATOM      6  C   UNL     1       2.982   7.118  18.730  0.00  0.00    +0.000 A 
ATOM      7  C   UNL     1       3.292   5.840  19.163  0.00  0.00    +0.000 A 
BRANCH   2   8
ATOM      8  O   UNL     1       2.481   3.954  20.234  0.00  0.00    +0.000 OA
BRANCH   8  10
ATOM      9  C   UNL     1       1.938   2.466  21.847  0.00  0.00    +0.000 C 
ATOM     10  C   UNL     1       1.349   3.500  20.953  0.00  0.00    +0.000 C 
ENDBRANCH   8  10
ENDBRANCH   2   8
ENDBRANCH   1   7
BRANCH   1  11
ATOM     11  S   UNL     1       3.948   3.916  17.368  0.00  0.00    +0.000 S 
ATOM     12  O   UNL     1       4.319   2.580  17.838  0.00  0.00    +0.000 OA
ATOM     13  O   UNL     1       2.592   4.162  16.951  0.00  0.00    +0.000 OA
BRANCH  11  14
ATOM     14  C   UNL     1       5.008   4.271  15.982  0.00  0.00    +0.000 A 
ATOM     15  C   UNL     1       5.385   5.594  15.739  0.00  0.00    +0.000 A 
ATOM     16  C   UNL     1       6.253   5.892  14.687  0.00  0.00    +0.000 A 
ATOM     17  C   UNL     1       6.763   4.874  13.871  0.00  0.00    +0.000 A 
ATOM     18  C   UNL     1       7.666   5.198  12.717  0.00  0.00    +0.000 C 
ATOM     19  C   UNL     1       6.419   3.544  14.154  0.00  0.00    +0.000 A 
ATOM     20  C   UNL     1       5.557   3.238  15.215  0.00  0.00    +0.000 A 
ENDBRANCH  11  14
ENDBRANCH   1  11
BRANCH   1  21
ATOM     21  C   UNL     1       5.604   4.823  19.350  0.00  0.00    +0.000 C 
BRANCH  21  22
ATOM     22  C   UNL     1       6.946   5.402  18.894  0.00  0.00    +0.000 C 
ATOM     23  O   UNL     1       7.925   4.684  18.684  0.00  0.00    +0.000 OA
ATOM     24  N   UNL     1       6.988   6.772  18.637  0.00  0.00    +0.000 N 
ATOM     25  H   UNL     1       6.313   7.317  19.169  0.00  0.00    +0.000 HD
BRANCH  24  26
ATOM     26  C   UNL     1       8.249   7.432  18.275  0.00  0.00    +0.000 C 
BRANCH  26  27
ATOM     27  C   UNL     1       8.146   8.843  17.618  0.00  0.00    +0.000 C 
BRANCH  27  28
ATOM     28  C   UNL     1       8.736  10.058  18.325  0.00  0.00    +0.000 A 
ATOM     29  C   UNL     1       9.308   9.965  19.603  0.00  0.00    +0.000 A 
ATOM     30  C   UNL     1       9.592  11.129  20.345  0.00  0.00    +0.000 A 
ATOM     31  C   UNL     1       9.334  12.409  19.830  0.00  0.00    +0.000 A 
ATOM     32  C   UNL     1       8.926  12.522  18.496  0.00  0.00    +0.000 A 
ATOM     33  C   UNL     1       8.639  11.349  17.745  0.00  0.00    +0.000 A 
BRANCH  31  34
ATOM     34  O   UNL     1       9.331  13.396  20.783  0.00  0.00    +0.000 OA
ATOM     35  C   UNL     1       8.312  14.392  20.764  0.00  0.00    +0.000 C 
ENDBRANCH  31  34
ENDBRANCH  27  28
ENDBRANCH  26  27
ENDBRANCH  24  26
ENDBRANCH  21  22
ENDBRANCH   1  21
TORSDOF 11
ENDMDL
MODEL 6
REMARK VINA RESULT:      -7.6      1.115      2.336
REMARK  Name = 
REMARK  14 active torsions:
REMARK  status: ('A' for Active; 'I' for Inactive)
REMARK    1  A    between atoms: C_1  and  C_2
REMARK    2  A    between atoms: C_2  and  O_3
REMARK    3  A    between atoms: O_3  and  C_4
REMARK    4  A    between atoms: C_9  and  N_10
REMARK    5  A    between atoms: N_10  and  C_11
REMARK    6  A    between atoms: N_10  and  S_25
REMARK    7  A    between atoms: C_11  and  C_12
REMARK    8  A    between atoms: N_14  and  C_15
REMARK    9  A    between atoms: C_15  and  C_16
REMARK   10  A    between atoms: C_16  and  C_17
REMARK   11  A    between atoms: C_20  and  O_21
REMARK   12  A    between atoms: O_21  and  C_22
REMARK   13  A    between atoms: S_25  and  C_28
REMARK   14  A    between atoms: C_31  and  C_32
REMARK                            x       y       z     vdW  Elec       q    Type
REMARK                         _______ _______ _______ _____ _____    ______ ____
ROOT
ATOM      1  N   UNL     1       4.531   4.842  18.973  0.00  0.00    +0.000 N 
ENDROOT
BRANCH   1   7
ATOM      2  C   UNL     1       2.635   4.807  20.534  0.00  0.00    +0.000 A 
ATOM      3  C   UNL     1       1.633   4.111  21.259  0.00  0.00    +0.000 A 
ATOM      4  C   UNL     1       1.797   2.775  21.562  0.00  0.00    +0.000 A 
ATOM      5  C   UNL     1       2.926   2.150  21.111  0.00  0.00    +0.000 A 
ATOM      6  C   UNL     1       3.833   2.806  20.244  0.00  0.00    +0.000 A 
ATOM      7  C   UNL     1       3.660   4.132  19.887  0.00  0.00    +0.000 A 
BRANCH   2   8
ATOM      8  O   UNL     1       2.757   6.165  20.531  0.00  0.00    +0.000 OA
BRANCH   8  10
ATOM      9  C   UNL     1       1.657   8.046  21.134  0.00  0.00    +0.000 C 
ATOM     10  C   UNL     1       1.485   6.769  20.388  0.00  0.00    +0.000 C 
ENDBRANCH   8  10
ENDBRANCH   2   8
ENDBRANCH   1   7
BRANCH   1  11
ATOM     11  S   UNL     1       3.861   5.608  17.622  0.00  0.00    +0.000 S 
ATOM     12  O   UNL     1       2.508   5.081  17.428  0.00  0.00    +0.000 OA
ATOM     13  O   UNL     1       4.046   7.029  17.767  0.00  0.00    +0.000 OA
BRANCH  11  14
ATOM     14  C   UNL     1       4.807   5.087  16.207  0.00  0.00    +0.000 A 
ATOM     15  C   UNL     1       4.792   3.739  15.841  0.00  0.00    +0.000 A 
ATOM     16  C   UNL     1       5.488   3.313  14.708  0.00  0.00    +0.000 A 
ATOM     17  C   UNL     1       6.199   4.228  13.921  0.00  0.00    +0.000 A 
ATOM     18  C   UNL     1       6.978   3.765  12.724  0.00  0.00    +0.000 C 
ATOM     19  C   UNL     1       6.167   5.586  14.266  0.00  0.00    +0.000 A 
ATOM     20  C   UNL     1       5.461   6.021  15.396  0.00  0.00    +0.000 A 
ENDBRANCH  11  14
ENDBRANCH   1  11
BRANCH   1  21
ATOM     21  C   UNL     1       5.984   4.511  18.955  0.00  0.00    +0.000 C 
BRANCH  21  22
ATOM     22  C   UNL     1       7.069   5.540  19.287  0.00  0.00    +0.000 C 
ATOM     23  O   UNL     1       7.703   5.498  20.343  0.00  0.00    +0.000 OA
ATOM     24  N   UNL     1       7.373   6.478  18.300  0.00  0.00    +0.000 N 
ATOM     25  H   UNL     1       6.602   6.685  17.669  0.00  0.00    +0.000 HD
BRANCH  24  26
ATOM     26  C   UNL     1       8.339   7.554  18.556  0.00  0.00    +0.000 C 
BRANCH  26  27
ATOM     27  C   UNL     1       8.098   8.910  17.826  0.00  0.00    +0.000 C 
BRANCH  27  28
ATOM     28  C   UNL     1       8.690  10.197  18.389  0.00  0.00    +0.000 A 
ATOM     29  C   UNL     1       9.217  10.262  19.688  0.00  0.00    +0.000 A 
ATOM     30  C   UNL     1       9.503  11.507  20.282  0.00  0.00    +0.000 A 
ATOM     31  C   UNL     1       9.289  12.713  19.597  0.00  0.00    +0.000 A 
ATOM     32  C   UNL     1       8.928  12.659  18.246  0.00  0.00    +0.000 A 
ATOM     33  C   UNL     1       8.640  11.403  17.644  0.00  0.00    +0.000 A 
BRANCH  31  34
ATOM     34  O   UNL     1       9.276  13.816  20.413  0.00  0.00    +0.000 OA
ATOM     35  C   UNL     1      10.431  14.141  21.180  0.00  0.00    +0.000 C 
ENDBRANCH  31  34
ENDBRANCH  27  28
ENDBRANCH  26  27
ENDBRANCH  24  26
ENDBRANCH  21  22
ENDBRANCH   1  21
TORSDOF 11
ENDMDL
MODEL 7
REMARK VINA RESULT:      -7.5      4.634      7.128
REMARK  Name = 
REMARK  14 active torsions:
REMARK  status: ('A' for Active; 'I' for Inactive)
REMARK    1  A    between atoms: C_1  and  C_2
REMARK    2  A    between atoms: C_2  and  O_3
REMARK    3  A    between atoms: O_3  and  C_4
REMARK    4  A    between atoms: C_9  and  N_10
REMARK    5  A    between atoms: N_10  and  C_11
REMARK    6  A    between atoms: N_10  and  S_25
REMARK    7  A    between atoms: C_11  and  C_12
REMARK    8  A    between atoms: N_14  and  C_15
REMARK    9  A    between atoms: C_15  and  C_16
REMARK   10  A    between atoms: C_16  and  C_17
REMARK   11  A    between atoms: C_20  and  O_21
REMARK   12  A    between atoms: O_21  and  C_22
REMARK   13  A    between atoms: S_25  and  C_28
REMARK   14  A    between atoms: C_31  and  C_32
REMARK                            x       y       z     vdW  Elec       q    Type
REMARK                         _______ _______ _______ _____ _____    ______ ____
ROOT
ATOM      1  N   UNL     1       3.519   5.132  18.490  0.00  0.00    +0.000 N 
ENDROOT
BRANCH   1   7
ATOM      2  C   UNL     1       2.224   3.177  19.220  0.00  0.00    +0.000 A 
ATOM      3  C   UNL     1       1.742   2.313  20.238  0.00  0.00    +0.000 A 
ATOM      4  C   UNL     1       1.630   2.765  21.537  0.00  0.00    +0.000 A 
ATOM      5  C   UNL     1       2.031   4.044  21.806  0.00  0.00    +0.000 A 
ATOM      6  C   UNL     1       2.670   4.837  20.822  0.00  0.00    +0.000 A 
ATOM      7  C   UNL     1       2.838   4.383  19.527  0.00  0.00    +0.000 A 
BRANCH   2   8
ATOM      8  O   UNL     1       2.003   2.972  17.891  0.00  0.00    +0.000 OA
BRANCH   8  10
ATOM      9  C   UNL     1       3.726   1.511  17.986  0.00  0.00    +0.000 C 
ATOM     10  C   UNL     1       2.310   1.633  17.545  0.00  0.00    +0.000 C 
ENDBRANCH   8  10
ENDBRANCH   2   8
ENDBRANCH   1   7
BRANCH   1  11
ATOM     11  S   UNL     1       5.210   5.131  18.448  0.00  0.00    +0.000 S 
ATOM     12  O   UNL     1       5.669   6.499  18.700  0.00  0.00    +0.000 OA
ATOM     13  O   UNL     1       5.685   4.065  19.292  0.00  0.00    +0.000 OA
BRANCH  11  14
ATOM     14  C   UNL     1       5.688   4.744  16.777  0.00  0.00    +0.000 A 
ATOM     15  C   UNL     1       4.754   4.147  15.927  0.00  0.00    +0.000 A 
ATOM     16  C   UNL     1       5.089   3.876  14.599  0.00  0.00    +0.000 A 
ATOM     17  C   UNL     1       6.355   4.208  14.100  0.00  0.00    +0.000 A 
ATOM     18  C   UNL     1       6.728   3.884  12.683  0.00  0.00    +0.000 C 
ATOM     19  C   UNL     1       7.268   4.854  14.946  0.00  0.00    +0.000 A 
ATOM     20  C   UNL     1       6.934   5.137  16.277  0.00  0.00    +0.000 A 
ENDBRANCH  11  14
ENDBRANCH   1  11
BRANCH   1  21
ATOM     21  C   UNL     1       2.790   6.231  17.795  0.00  0.00    +0.000 C 
BRANCH  21  22
ATOM     22  C   UNL     1       2.442   7.554  18.483  0.00  0.00    +0.000 C 
ATOM     23  O   UNL     1       2.492   7.681  19.708  0.00  0.00    +0.000 OA
ATOM     24  N   UNL     1       2.153   8.640  17.656  0.00  0.00    +0.000 N 
ATOM     25  H   UNL     1       1.773   8.383  16.748  0.00  0.00    +0.000 HD
BRANCH  24  26
ATOM     26  C   UNL     1       1.729   9.926  18.224  0.00  0.00    +0.000 C 
BRANCH  26  27
ATOM     27  C   UNL     1       0.509   9.903  19.195  0.00  0.00    +0.000 C 
BRANCH  27  28
ATOM     28  C   UNL     1      -0.780  10.625  18.818  0.00  0.00    +0.000 A 
ATOM     29  C   UNL     1      -1.290  11.678  19.592  0.00  0.00    +0.000 A 
ATOM     30  C   UNL     1      -2.605  12.142  19.389  0.00  0.00    +0.000 A 
ATOM     31  C   UNL     1      -3.435  11.587  18.403  0.00  0.00    +0.000 A 
ATOM     32  C   UNL     1      -2.885  10.658  17.513  0.00  0.00    +0.000 A 
ATOM     33  C   UNL     1      -1.558  10.188  17.716  0.00  0.00    +0.000 A 
BRANCH  31  34
ATOM     34  O   UNL     1      -4.763  11.892  18.564  0.00  0.00    +0.000 OA
ATOM     35  C   UNL     1      -5.728  11.336  17.675  0.00  0.00    +0.000 C 
ENDBRANCH  31  34
ENDBRANCH  27  28
ENDBRANCH  26  27
ENDBRANCH  24  26
ENDBRANCH  21  22
ENDBRANCH   1  21
TORSDOF 11
ENDMDL
MODEL 8
REMARK VINA RESULT:      -7.5      7.398     10.364
REMARK  Name = 
REMARK  14 active torsions:
REMARK  status: ('A' for Active; 'I' for Inactive)
REMARK    1  A    between atoms: C_1  and  C_2
REMARK    2  A    between atoms: C_2  and  O_3
REMARK    3  A    between atoms: O_3  and  C_4
REMARK    4  A    between atoms: C_9  and  N_10
REMARK    5  A    between atoms: N_10  and  C_11
REMARK    6  A    between atoms: N_10  and  S_25
REMARK    7  A    between atoms: C_11  and  C_12
REMARK    8  A    between atoms: N_14  and  C_15
REMARK    9  A    between atoms: C_15  and  C_16
REMARK   10  A    between atoms: C_16  and  C_17
REMARK   11  A    between atoms: C_20  and  O_21
REMARK   12  A    between atoms: O_21  and  C_22
REMARK   13  A    between atoms: S_25  and  C_28
REMARK   14  A    between atoms: C_31  and  C_32
REMARK                            x       y       z     vdW  Elec       q    Type
REMARK                         _______ _______ _______ _____ _____    ______ ____
ROOT
ATOM      1  N   UNL     1      -0.268  11.350  20.282  0.00  0.00    +0.000 N 
ENDROOT
BRANCH   1   7
ATOM      2  C   UNL     1      -2.468  11.839  19.306  0.00  0.00    +0.000 A 
ATOM      3  C   UNL     1      -3.356  11.888  18.200  0.00  0.00    +0.000 A 
ATOM      4  C   UNL     1      -3.146  11.073  17.106  0.00  0.00    +0.000 A 
ATOM      5  C   UNL     1      -2.048  10.259  17.115  0.00  0.00    +0.000 A 
ATOM      6  C   UNL     1      -1.078  10.343  18.143  0.00  0.00    +0.000 A 
ATOM      7  C   UNL     1      -1.244  11.191  19.223  0.00  0.00    +0.000 A 
BRANCH   2   8
ATOM      8  O   UNL     1      -2.793  12.285  20.553  0.00  0.00    +0.000 OA
BRANCH   8  10
ATOM      9  C   UNL     1      -4.724  12.779  21.621  0.00  0.00    +0.000 C 
ATOM     10  C   UNL     1      -3.870  13.202  20.478  0.00  0.00    +0.000 C 
ENDBRANCH   8  10
ENDBRANCH   2   8
ENDBRANCH   1   7
BRANCH   1  11
ATOM     11  S   UNL     1       0.990  12.464  20.085  0.00  0.00    +0.000 S 
ATOM     12  O   UNL     1       1.778  12.479  21.319  0.00  0.00    +0.000 OA
ATOM     13  O   UNL     1       1.648  12.188  18.834  0.00  0.00    +0.000 OA
BRANCH  11  14
ATOM     14  C   UNL     1       0.241  14.074  19.952  0.00  0.00    +0.000 A 
ATOM     15  C   UNL     1       0.203  14.702  18.705  0.00  0.00    +0.000 A 
ATOM     16  C   UNL     1      -0.420  15.944  18.565  0.00  0.00    +0.000 A 
ATOM     17  C   UNL     1      -1.021  16.569  19.664  0.00  0.00    +0.000 A 
ATOM     18  C   UNL     1      -1.658  17.920  19.523  0.00  0.00    +0.000 C 
ATOM     19  C   UNL     1      -1.023  15.908  20.901  0.00  0.00    +0.000 A 
ATOM     20  C   UNL     1      -0.408  14.657  21.045  0.00  0.00    +0.000 A 
ENDBRANCH  11  14
ENDBRANCH   1  11
BRANCH   1  21
ATOM     21  C   UNL     1      -0.098  10.255  21.279  0.00  0.00    +0.000 C 
BRANCH  21  22
ATOM     22  C   UNL     1       0.940   9.141  21.112  0.00  0.00    +0.000 C 
ATOM     23  O   UNL     1       1.447   8.575  22.082  0.00  0.00    +0.000 OA
ATOM     24  N   UNL     1       1.221   8.730  19.809  0.00  0.00    +0.000 N 
ATOM     25  H   UNL     1       1.078   9.450  19.104  0.00  0.00    +0.000 HD
BRANCH  24  26
ATOM     26  C   UNL     1       2.261   7.728  19.544  0.00  0.00    +0.000 C 
BRANCH  26  27
ATOM     27  C   UNL     1       2.435   7.264  18.065  0.00  0.00    +0.000 C 
BRANCH  27  28
ATOM     28  C   UNL     1       3.489   6.220  17.712  0.00  0.00    +0.000 A 
ATOM     29  C   UNL     1       4.793   6.581  17.342  0.00  0.00    +0.000 A 
ATOM     30  C   UNL     1       5.659   5.635  16.760  0.00  0.00    +0.000 A 
ATOM     31  C   UNL     1       5.259   4.306  16.549  0.00  0.00    +0.000 A 
ATOM     32  C   UNL     1       4.028   3.889  17.068  0.00  0.00    +0.000 A 
ATOM     33  C   UNL     1       3.152   4.843  17.656  0.00  0.00    +0.000 A 
BRANCH  31  34
ATOM     34  O   UNL     1       6.062   3.620  15.673  0.00  0.00    +0.000 OA
ATOM     35  C   UNL     1       6.116   4.017  14.306  0.00  0.00    +0.000 C 
ENDBRANCH  31  34
ENDBRANCH  27  28
ENDBRANCH  26  27
ENDBRANCH  24  26
ENDBRANCH  21  22
ENDBRANCH   1  21
TORSDOF 11
ENDMDL
MODEL 9
REMARK VINA RESULT:      -7.4      4.320      6.302
REMARK  Name = 
REMARK  14 active torsions:
REMARK  status: ('A' for Active; 'I' for Inactive)
REMARK    1  A    between atoms: C_1  and  C_2
REMARK    2  A    between atoms: C_2  and  O_3
REMARK    3  A    between atoms: O_3  and  C_4
REMARK    4  A    between atoms: C_9  and  N_10
REMARK    5  A    between atoms: N_10  and  C_11
REMARK    6  A    between atoms: N_10  and  S_25
REMARK    7  A    between atoms: C_11  and  C_12
REMARK    8  A    between atoms: N_14  and  C_15
REMARK    9  A    between atoms: C_15  and  C_16
REMARK   10  A    between atoms: C_16  and  C_17
REMARK   11  A    between atoms: C_20  and  O_21
REMARK   12  A    between atoms: O_21  and  C_22
REMARK   13  A    between atoms: S_25  and  C_28
REMARK   14  A    between atoms: C_31  and  C_32
REMARK                            x       y       z     vdW  Elec       q    Type
REMARK                         _______ _______ _______ _____ _____    ______ ____
ROOT
ATOM      1  N   UNL     1       3.509   5.107  18.465  0.00  0.00    +0.000 N 
ENDROOT
BRANCH   1   7
ATOM      2  C   UNL     1       2.149   3.183  19.157  0.00  0.00    +0.000 A 
ATOM      3  C   UNL     1       1.640   2.314  20.157  0.00  0.00    +0.000 A 
ATOM      4  C   UNL     1       1.547   2.742  21.466  0.00  0.00    +0.000 A 
ATOM      5  C   UNL     1       1.993   4.000  21.762  0.00  0.00    +0.000 A 
ATOM      6  C   UNL     1       2.657   4.792  20.793  0.00  0.00    +0.000 A 
ATOM      7  C   UNL     1       2.805   4.361  19.487  0.00  0.00    +0.000 A 
BRANCH   2   8
ATOM      8  O   UNL     1       1.918   3.015  17.824  0.00  0.00    +0.000 OA
BRANCH   8  10
ATOM      9  C   UNL     1       3.650   1.570  17.981  0.00  0.00    +0.000 C 
ATOM     10  C   UNL     1       2.275   1.703  17.428  0.00  0.00    +0.000 C 
ENDBRANCH   8  10
ENDBRANCH   2   8
ENDBRANCH   1   7
BRANCH   1  11
ATOM     11  S   UNL     1       5.201   5.099  18.454  0.00  0.00    +0.000 S 
ATOM     12  O   UNL     1       5.662   6.457  18.750  0.00  0.00    +0.000 OA
ATOM     13  O   UNL     1       5.655   4.008  19.279  0.00  0.00    +0.000 OA
BRANCH  11  14
ATOM     14  C   UNL     1       5.707   4.752  16.782  0.00  0.00    +0.000 A 
ATOM     15  C   UNL     1       4.785   4.190  15.898  0.00  0.00    +0.000 A 
ATOM     16  C   UNL     1       5.143   3.952  14.570  0.00  0.00    +0.000 A 
ATOM     17  C   UNL     1       6.422   4.283  14.105  0.00  0.00    +0.000 A 
ATOM     18  C   UNL     1       6.820   3.994  12.687  0.00  0.00    +0.000 C 
ATOM     19  C   UNL     1       7.325   4.895  14.986  0.00  0.00    +0.000 A 
ATOM     20  C   UNL     1       6.967   5.145  16.318  0.00  0.00    +0.000 A 
ENDBRANCH  11  14
ENDBRANCH   1  11
BRANCH   1  21
ATOM     21  C   UNL     1       2.799   6.212  17.758  0.00  0.00    +0.000 C 
BRANCH  21  22
ATOM     22  C   UNL     1       2.468   7.545  18.435  0.00  0.00    +0.000 C 
ATOM     23  O   UNL     1       2.475   7.670  19.661  0.00  0.00    +0.000 OA
ATOM     24  N   UNL     1       2.246   8.640  17.600  0.00  0.00    +0.000 N 
ATOM     25  H   UNL     1       1.893   8.396  16.677  0.00  0.00    +0.000 HD
BRANCH  24  26
ATOM     26  C   UNL     1       1.842   9.939  18.152  0.00  0.00    +0.000 C 
BRANCH  26  27
ATOM     27  C   UNL     1       0.395  10.045  18.724  0.00  0.00    +0.000 C 
BRANCH  27  28
ATOM     28  C   UNL     1       0.153  10.727  20.066  0.00  0.00    +0.000 A 
ATOM     29  C   UNL     1      -0.214  10.001  21.208  0.00  0.00    +0.000 A 
ATOM     30  C   UNL     1      -0.698  10.666  22.353  0.00  0.00    +0.000 A 
ATOM     31  C   UNL     1      -0.810  12.064  22.396  0.00  0.00    +0.000 A 
ATOM     32  C   UNL     1      -0.289  12.810  21.333  0.00  0.00    +0.000 A 
ATOM     33  C   UNL     1       0.200  12.141  20.177  0.00  0.00    +0.000 A 
BRANCH  31  34
ATOM     34  O   UNL     1      -1.609  12.522  23.414  0.00  0.00    +0.000 OA
ATOM     35  C   UNL     1      -2.990  12.174  23.439  0.00  0.00    +0.000 C 
ENDBRANCH  31  34
ENDBRANCH  27  28
ENDBRANCH  26  27
ENDBRANCH  24  26
ENDBRANCH  21  22
ENDBRANCH   1  21
TORSDOF 11
ENDMDL
