MODEL 1
REMARK VINA RESULT:      -7.7      0.000      0.000
REMARK  Name = 
REMARK  12 active torsions:
REMARK  status: ('A' for Active; 'I' for Inactive)
REMARK    1  A    between atoms: C_1  and  O_2
REMARK    2  A    between atoms: O_2  and  C_3
REMARK    3  A    between atoms: C_5  and  C_6
REMARK    4  A    between atoms: C_7  and  C_8
REMARK    5  A    between atoms: C_13  and  N_14
REMARK    6  A    between atoms: N_14  and  C_15
REMARK    7  A    between atoms: C_15  and  C_16
REMARK    8  A    between atoms: C_15  and  C_17
REMARK    9  A    between atoms: C_20  and  O_21
REMARK   10  A    between atoms: O_21  and  C_22
REMARK   11  A    between atoms: C_23  and  O_24
REMARK   12  A    between atoms: O_24  and  C_25
REMARK                            x       y       z     vdW  Elec       q    Type
REMARK                         _______ _______ _______ _____ _____    ______ ____
ROOT
ATOM      1  C   UNL     1       8.269   8.973  17.931  0.00  0.00    +0.000 C 
ATOM      2  C   UNL     1       8.287   7.741  18.462  0.00  0.00    +0.000 C 
ENDROOT
BRANCH   2   3
ATOM      3  C   UNL     1       7.538   6.579  17.977  0.00  0.00    +0.000 A 
ATOM      4  N   UNL     1       7.535   6.438  16.647  0.00  0.00    +0.000 NA
ATOM      5  C   UNL     1       6.851   5.387  16.196  0.00  0.00    +0.000 A 
ATOM      6 CL   UNL     1       6.916   5.174  14.495  0.00  0.00    +0.000 Cl
ATOM      7  C   UNL     1       6.165   4.506  16.986  0.00  0.00    +0.000 A 
ATOM      8  C   UNL     1       6.248   4.715  18.342  0.00  0.00    +0.000 A 
ATOM      9  N   UNL     1       6.945   5.741  18.854  0.00  0.00    +0.000 NA
BRANCH   8  10
ATOM     10  N   UNL     1       5.612   3.779  19.162  0.00  0.00    +0.000 N 
ATOM     11  H   UNL     1       6.114   2.898  19.200  0.00  0.00    +0.000 HD
BRANCH  10  12
ATOM     12  C   UNL     1       4.159   3.661  19.171  0.00  0.00    +0.000 C 
ATOM     13  C   UNL     1       3.668   2.554  20.098  0.00  0.00    +0.000 C 
ATOM     14  C   UNL     1       3.610   5.013  19.649  0.00  0.00    +0.000 C 
ENDBRANCH  10  12
ENDBRANCH   8  10
ENDBRANCH   2   3
BRANCH   1  17
ATOM     15  C   UNL     1      10.055  12.293  18.159  0.00  0.00    +0.000 A 
ATOM     16  C   UNL     1       9.532  11.084  17.661  0.00  0.00    +0.000 A 
ATOM     17  C   UNL     1       8.981  10.126  18.508  0.00  0.00    +0.000 A 
ATOM     18  C   UNL     1       9.025  10.369  19.882  0.00  0.00    +0.000 A 
ATOM     19  C   UNL     1       9.615  11.530  20.413  0.00  0.00    +0.000 A 
ATOM     20  C   UNL     1      10.149  12.510  19.552  0.00  0.00    +0.000 A 
BRANCH  15  22
ATOM     21  C   UNL     1      11.886  13.200  16.960  0.00  0.00    +0.000 C 
ATOM     22  O   UNL     1      10.494  13.255  17.283  0.00  0.00    +0.000 OA
ENDBRANCH  15  22
BRANCH  19  23
ATOM     23  O   UNL     1       9.548  11.530  21.786  0.00  0.00    +0.000 OA
ATOM     24  C   UNL     1       8.376  11.989  22.438  0.00  0.00    +0.000 C 
ENDBRANCH  19  23
BRANCH  20  25
ATOM     25  O   UNL     1      10.714  13.596  20.164  0.00  0.00    +0.000 OA
ATOM     26  C   UNL     1       9.977  14.784  20.390  0.00  0.00    +0.000 C 
ENDBRANCH  20  25
ENDBRANCH   1  17
TORSDOF 7
ENDMDL
MODEL 2
REMARK VINA RESULT:      -7.5      0.637      2.535
REMARK  Name = 
REMARK  12 active torsions:
REMARK  status: ('A' for Active; 'I' for Inactive)
REMARK    1  A    between atoms: C_1  and  O_2
REMARK    2  A    between atoms: O_2  and  C_3
REMARK    3  A    between atoms: C_5  and  C_6
REMARK    4  A    between atoms: C_7  and  C_8
REMARK    5  A    between atoms: C_13  and  N_14
REMARK    6  A    between atoms: N_14  and  C_15
REMARK    7  A    between atoms: C_15  and  C_16
REMARK    8  A    between atoms: C_15  and  C_17
REMARK    9  A    between atoms: C_20  and  O_21
REMARK   10  A    between atoms: O_21  and  C_22
REMARK   11  A    between atoms: C_23  and  O_24
REMARK   12  A    between atoms: O_24  and  C_25
REMARK                            x       y       z     vdW  Elec       q    Type
REMARK                         _______ _______ _______ _____ _____    ______ ____
ROOT
ATOM      1  C   UNL     1       8.242   9.188  18.081  0.00  0.00    +0.000 C 
ATOM      2  C   UNL     1       8.460   7.902  18.392  0.00  0.00    +0.000 C 
ENDROOT
BRANCH   2   3
ATOM      3  C   UNL     1       7.629   6.762  17.991  0.00  0.00    +0.000 A 
ATOM      4  N   UNL     1       7.594   6.540  16.673  0.00  0.00    +0.000 NA
ATOM      5  C   UNL     1       6.836   5.510  16.298  0.00  0.00    +0.000 A 
ATOM      6 CL   UNL     1       6.858   5.188  14.613  0.00  0.00    +0.000 Cl
ATOM      7  C   UNL     1       6.109   4.726  17.151  0.00  0.00    +0.000 A 
ATOM      8  C   UNL     1       6.229   5.013  18.490  0.00  0.00    +0.000 A 
ATOM      9  N   UNL     1       6.999   6.021  18.927  0.00  0.00    +0.000 NA
BRANCH   8  10
ATOM     10  N   UNL     1       5.549   4.173  19.376  0.00  0.00    +0.000 N 
ATOM     11  H   UNL     1       6.155   3.466  19.778  0.00  0.00    +0.000 HD
BRANCH  10  12
ATOM     12  C   UNL     1       4.191   3.726  19.087  0.00  0.00    +0.000 C 
ATOM     13  C   UNL     1       3.967   2.263  19.450  0.00  0.00    +0.000 C 
ATOM     14  C   UNL     1       3.250   4.611  19.917  0.00  0.00    +0.000 C 
ENDBRANCH  10  12
ENDBRANCH   8  10
ENDBRANCH   2   3
BRANCH   1  17
ATOM     15  C   UNL     1       9.857  11.613  20.484  0.00  0.00    +0.000 A 
ATOM     16  C   UNL     1       8.963  10.688  19.914  0.00  0.00    +0.000 A 
ATOM     17  C   UNL     1       9.067  10.303  18.579  0.00  0.00    +0.000 A 
ATOM     18  C   UNL     1      10.046  10.918  17.799  0.00  0.00    +0.000 A 
ATOM     19  C   UNL     1      10.900  11.907  18.320  0.00  0.00    +0.000 A 
ATOM     20  C   UNL     1      10.810  12.276  19.678  0.00  0.00    +0.000 A 
BRANCH  15  22
ATOM     21  C   UNL     1       8.699  12.727  22.225  0.00  0.00    +0.000 C 
ATOM     22  O   UNL     1       9.787  11.887  21.828  0.00  0.00    +0.000 OA
ENDBRANCH  15  22
BRANCH  19  23
ATOM     23  O   UNL     1      11.762  12.369  17.355  0.00  0.00    +0.000 OA
ATOM     24  C   UNL     1      11.407  13.494  16.568  0.00  0.00    +0.000 C 
ENDBRANCH  19  23
BRANCH  20  25
ATOM     25  O   UNL     1      11.673  13.256  20.087  0.00  0.00    +0.000 OA
ATOM     26  C   UNL     1      11.272  14.612  20.161  0.00  0.00    +0.000 C 
ENDBRANCH  20  25
ENDBRANCH   1  17
TORSDOF 7
ENDMDL
MODEL 3
REMARK VINA RESULT:      -7.3      6.975      9.527
REMARK  Name = 
REMARK  12 active torsions:
REMARK  status: ('A' for Active; 'I' for Inactive)
REMARK    1  A    between atoms: C_1  and  O_2
REMARK    2  A    between atoms: O_2  and  C_3
REMARK    3  A    between atoms: C_5  and  C_6
REMARK    4  A    between atoms: C_7  and  C_8
REMARK    5  A    between atoms: C_13  and  N_14
REMARK    6  A    between atoms: N_14  and  C_15
REMARK    7  A    between atoms: C_15  and  C_16
REMARK    8  A    between atoms: C_15  and  C_17
REMARK    9  A    between atoms: C_20  and  O_21
REMARK   10  A    between atoms: O_21  and  C_22
REMARK   11  A    between atoms: C_23  and  O_24
REMARK   12  A    between atoms: O_24  and  C_25
REMARK                            x       y       z     vdW  Elec       q    Type
REMARK                         _______ _______ _______ _____ _____    ______ ____
ROOT
ATOM      1  C   UNL     1       2.116   7.676  18.172  0.00  0.00    +0.000 C 
ATOM      2  C   UNL     1       2.138   9.002  17.973  0.00  0.00    +0.000 C 
ENDROOT
BRANCH   2   3
ATOM      3  C   UNL     1       1.034   9.933  18.221  0.00  0.00    +0.000 A 
ATOM      4  N   UNL     1       1.387  11.052  18.863  0.00  0.00    +0.000 NA
ATOM      5  C   UNL     1       0.387  11.902  19.098  0.00  0.00    +0.000 A 
ATOM      6 CL   UNL     1       0.864  13.366  19.856  0.00  0.00    +0.000 Cl
ATOM      7  C   UNL     1      -0.919  11.684  18.756  0.00  0.00    +0.000 A 
ATOM      8  C   UNL     1      -1.181  10.519  18.075  0.00  0.00    +0.000 A 
ATOM      9  N   UNL     1      -0.211   9.639  17.787  0.00  0.00    +0.000 NA
BRANCH   8  10
ATOM     10  N   UNL     1      -2.499  10.320  17.656  0.00  0.00    +0.000 N 
ATOM     11  H   UNL     1      -2.792   9.353  17.756  0.00  0.00    +0.000 HD
BRANCH  10  12
ATOM     12  C   UNL     1      -3.019  11.002  16.477  0.00  0.00    +0.000 C 
ATOM     13  C   UNL     1      -2.891  10.161  15.212  0.00  0.00    +0.000 C 
ATOM     14  C   UNL     1      -4.501  11.292  16.754  0.00  0.00    +0.000 C 
ENDBRANCH  10  12
ENDBRANCH   8  10
ENDBRANCH   2   3
BRANCH   1  17
ATOM     15  C   UNL     1       3.997   4.507  17.344  0.00  0.00    +0.000 A 
ATOM     16  C   UNL     1       3.028   5.399  17.843  0.00  0.00    +0.000 A 
ATOM     17  C   UNL     1       3.231   6.776  17.829  0.00  0.00    +0.000 A 
ATOM     18  C   UNL     1       4.461   7.248  17.368  0.00  0.00    +0.000 A 
ATOM     19  C   UNL     1       5.479   6.377  16.941  0.00  0.00    +0.000 A 
ATOM     20  C   UNL     1       5.261   4.984  16.932  0.00  0.00    +0.000 A 
BRANCH  15  22
ATOM     21  C   UNL     1       2.398   2.794  17.699  0.00  0.00    +0.000 C 
ATOM     22  O   UNL     1       3.715   3.164  17.279  0.00  0.00    +0.000 OA
ENDBRANCH  15  22
BRANCH  19  23
ATOM     23  O   UNL     1       6.594   7.079  16.552  0.00  0.00    +0.000 OA
ATOM     24  C   UNL     1       7.575   7.438  17.511  0.00  0.00    +0.000 C 
ENDBRANCH  19  23
BRANCH  20  25
ATOM     25  O   UNL     1       6.316   4.219  16.513  0.00  0.00    +0.000 OA
ATOM     26  C   UNL     1       6.514   3.919  15.144  0.00  0.00    +0.000 C 
ENDBRANCH  20  25
ENDBRANCH   1  17
TORSDOF 7
ENDMDL
MODEL 4
REMARK VINA RESULT:      -7.3      1.715      3.087
REMARK  Name = 
REMARK  12 active torsions:
REMARK  status: ('A' for Active; 'I' for Inactive)
REMARK    1  A    between atoms: C_1  and  O_2
REMARK    2  A    between atoms: O_2  and  C_3
REMARK    3  A    between atoms: C_5  and  C_6
REMARK    4  A    between atoms: C_7  and  C_8
REMARK    5  A    between atoms: C_13  and  N_14
REMARK    6  A    between atoms: N_14  and  C_15
REMARK    7  A    between atoms: C_15  and  C_16
REMARK    8  A    between atoms: C_15  and  C_17
REMARK    9  A    between atoms: C_20  and  O_21
REMARK   10  A    between atoms: O_21  and  C_22
REMARK   11  A    between atoms: C_23  and  O_24
REMARK   12  A    between atoms: O_24  and  C_25
REMARK                            x       y       z     vdW  Elec       q    Type
REMARK                         _______ _______ _______ _____ _____    ______ ____
ROOT
ATOM      1  C   UNL     1       8.323   9.124  18.013  0.00  0.00    +0.000 C 
ATOM      2  C   UNL     1       8.323   7.826  18.352  0.00  0.00    +0.000 C 
ENDROOT
BRANCH   2   3
ATOM      3  C   UNL     1       7.442   6.790  17.805  0.00  0.00    +0.000 A 
ATOM      4  N   UNL     1       6.838   6.034  18.728  0.00  0.00    +0.000 NA
ATOM      5  C   UNL     1       6.040   5.085  18.240  0.00  0.00    +0.000 A 
ATOM      6 CL   UNL     1       5.214   4.169  19.433  0.00  0.00    +0.000 Cl
ATOM      7  C   UNL     1       5.839   4.843  16.909  0.00  0.00    +0.000 A 
ATOM      8  C   UNL     1       6.480   5.689  16.035  0.00  0.00    +0.000 A 
ATOM      9  N   UNL     1       7.275   6.678  16.470  0.00  0.00    +0.000 NA
BRANCH   8  10
ATOM     10  N   UNL     1       6.226   5.498  14.675  0.00  0.00    +0.000 N 
ATOM     11  H   UNL     1       5.234   5.531  14.461  0.00  0.00    +0.000 HD
BRANCH  10  12
ATOM     12  C   UNL     1       6.988   4.525  13.902  0.00  0.00    +0.000 C 
ATOM     13  C   UNL     1       6.101   3.649  13.024  0.00  0.00    +0.000 C 
ATOM     14  C   UNL     1       7.955   5.325  13.018  0.00  0.00    +0.000 C 
ENDBRANCH  10  12
ENDBRANCH   8  10
ENDBRANCH   2   3
BRANCH   1  17
ATOM     15  C   UNL     1      10.840  11.913  18.408  0.00  0.00    +0.000 A 
ATOM     16  C   UNL     1      10.131  10.810  17.893  0.00  0.00    +0.000 A 
ATOM     17  C   UNL     1       9.178  10.138  18.655  0.00  0.00    +0.000 A 
ATOM     18  C   UNL     1       8.993  10.548  19.976  0.00  0.00    +0.000 A 
ATOM     19  C   UNL     1       9.745  11.594  20.542  0.00  0.00    +0.000 A 
ATOM     20  C   UNL     1      10.691  12.289  19.761  0.00  0.00    +0.000 A 
BRANCH  15  22
ATOM     21  C   UNL     1      11.091  13.665  16.833  0.00  0.00    +0.000 C 
ATOM     22  O   UNL     1      11.694  12.613  17.591  0.00  0.00    +0.000 OA
ENDBRANCH  15  22
BRANCH  19  23
ATOM     23  O   UNL     1       9.392  11.796  21.855  0.00  0.00    +0.000 OA
ATOM     24  C   UNL     1       8.244  12.568  22.168  0.00  0.00    +0.000 C 
ENDBRANCH  19  23
BRANCH  20  25
ATOM     25  O   UNL     1      11.382  13.279  20.405  0.00  0.00    +0.000 OA
ATOM     26  C   UNL     1      10.909  14.614  20.433  0.00  0.00    +0.000 C 
ENDBRANCH  20  25
ENDBRANCH   1  17
TORSDOF 7
ENDMDL
MODEL 5
REMARK VINA RESULT:      -7.3      6.958      9.347
REMARK  Name = 
REMARK  12 active torsions:
REMARK  status: ('A' for Active; 'I' for Inactive)
REMARK    1  A    between atoms: C_1  and  O_2
REMARK    2  A    between atoms: O_2  and  C_3
REMARK    3  A    between atoms: C_5  and  C_6
REMARK    4  A    between atoms: C_7  and  C_8
REMARK    5  A    between atoms: C_13  and  N_14
REMARK    6  A    between atoms: N_14  and  C_15
REMARK    7  A    between atoms: C_15  and  C_16
REMARK    8  A    between atoms: C_15  and  C_17
REMARK    9  A    between atoms: C_20  and  O_21
REMARK   10  A    between atoms: O_21  and  C_22
REMARK   11  A    between atoms: C_23  and  O_24
REMARK   12  A    between atoms: O_24  and  C_25
REMARK                            x       y       z     vdW  Elec       q    Type
REMARK                         _______ _______ _______ _____ _____    ______ ____
ROOT
ATOM      1  C   UNL     1       2.277   7.674  18.367  0.00  0.00    +0.000 C 
ATOM      2  C   UNL     1       1.892   8.827  17.799  0.00  0.00    +0.000 C 
ENDROOT
BRANCH   2   3
ATOM      3  C   UNL     1       0.837   9.720  18.286  0.00  0.00    +0.000 A 
ATOM      4  N   UNL     1       1.245  10.618  19.189  0.00  0.00    +0.000 NA
ATOM      5  C   UNL     1       0.291  11.431  19.642  0.00  0.00    +0.000 A 
ATOM      6 CL   UNL     1       0.840  12.625  20.745  0.00  0.00    +0.000 Cl
ATOM      7  C   UNL     1      -1.023  11.376  19.267  0.00  0.00    +0.000 A 
ATOM      8  C   UNL     1      -1.343  10.440  18.313  0.00  0.00    +0.000 A 
ATOM      9  N   UNL     1      -0.419   9.613  17.801  0.00  0.00    +0.000 NA
BRANCH   8  10
ATOM     10  N   UNL     1      -2.667  10.424  17.868  0.00  0.00    +0.000 N 
ATOM     11  H   UNL     1      -3.077   9.496  17.912  0.00  0.00    +0.000 HD
BRANCH  10  12
ATOM     12  C   UNL     1      -3.079  11.222  16.720  0.00  0.00    +0.000 C 
ATOM     13  C   UNL     1      -2.850  10.504  15.395  0.00  0.00    +0.000 C 
ATOM     14  C   UNL     1      -4.577  11.508  16.897  0.00  0.00    +0.000 C 
ENDBRANCH  10  12
ENDBRANCH   8  10
ENDBRANCH   2   3
BRANCH   1  17
ATOM     15  C   UNL     1       5.546   6.489  16.892  0.00  0.00    +0.000 A 
ATOM     16  C   UNL     1       4.471   7.311  17.280  0.00  0.00    +0.000 A 
ATOM     17  C   UNL     1       3.291   6.774  17.789  0.00  0.00    +0.000 A 
ATOM     18  C   UNL     1       3.176   5.384  17.838  0.00  0.00    +0.000 A 
ATOM     19  C   UNL     1       4.201   4.537  17.380  0.00  0.00    +0.000 A 
ATOM     20  C   UNL     1       5.405   5.083  16.890  0.00  0.00    +0.000 A 
BRANCH  15  22
ATOM     21  C   UNL     1       7.581   7.504  17.554  0.00  0.00    +0.000 C 
ATOM     22  O   UNL     1       6.729   7.060  16.494  0.00  0.00    +0.000 OA
ENDBRANCH  15  22
BRANCH  19  23
ATOM     23  O   UNL     1       3.844   3.217  17.518  0.00  0.00    +0.000 OA
ATOM     24  C   UNL     1       2.475   2.847  17.491  0.00  0.00    +0.000 C 
ENDBRANCH  19  23
BRANCH  20  25
ATOM     25  O   UNL     1       6.335   4.178  16.455  0.00  0.00    +0.000 OA
ATOM     26  C   UNL     1       6.498   3.887  15.079  0.00  0.00    +0.000 C 
ENDBRANCH  20  25
ENDBRANCH   1  17
TORSDOF 7
ENDMDL
MODEL 6
REMARK VINA RESULT:      -7.2      6.675      9.385
REMARK  Name = 
REMARK  12 active torsions:
REMARK  status: ('A' for Active; 'I' for Inactive)
REMARK    1  A    between atoms: C_1  and  O_2
REMARK    2  A    between atoms: O_2  and  C_3
REMARK    3  A    between atoms: C_5  and  C_6
REMARK    4  A    between atoms: C_7  and  C_8
REMARK    5  A    between atoms: C_13  and  N_14
REMARK    6  A    between atoms: N_14  and  C_15
REMARK    7  A    between atoms: C_15  and  C_16
REMARK    8  A    between atoms: C_15  and  C_17
REMARK    9  A    between atoms: C_20  and  O_21
REMARK   10  A    between atoms: O_21  and  C_22
REMARK   11  A    between atoms: C_23  and  O_24
REMARK   12  A    between atoms: O_24  and  C_25
REMARK                            x       y       z     vdW  Elec       q    Type
REMARK                         _______ _______ _______ _____ _____    ______ ____
ROOT
ATOM      1  C   UNL     1       2.373   7.624  18.646  0.00  0.00    +0.000 C 
ATOM      2  C   UNL     1       1.874   8.679  17.986  0.00  0.00    +0.000 C 
ENDROOT
BRANCH   2   3
ATOM      3  C   UNL     1       0.831   9.588  18.470  0.00  0.00    +0.000 A 
ATOM      4  N   UNL     1      -0.199   9.744  17.632  0.00  0.00    +0.000 NA
ATOM      5  C   UNL     1      -1.150  10.574  18.062  0.00  0.00    +0.000 A 
ATOM      6 CL   UNL     1      -2.501  10.710  17.012  0.00  0.00    +0.000 Cl
ATOM      7  C   UNL     1      -1.112  11.258  19.245  0.00  0.00    +0.000 A 
ATOM      8  C   UNL     1      -0.027  11.012  20.053  0.00  0.00    +0.000 A 
ATOM      9  N   UNL     1       0.947  10.166  19.685  0.00  0.00    +0.000 NA
BRANCH   8  10
ATOM     10  N   UNL     1      -0.014  11.648  21.297  0.00  0.00    +0.000 N 
ATOM     11  H   UNL     1       0.910  11.651  21.717  0.00  0.00    +0.000 HD
BRANCH  10  12
ATOM     12  C   UNL     1      -1.116  11.476  22.236  0.00  0.00    +0.000 C 
ATOM     13  C   UNL     1      -0.889  10.315  23.198  0.00  0.00    +0.000 C 
ATOM     14  C   UNL     1      -1.227  12.786  23.029  0.00  0.00    +0.000 C 
ENDBRANCH  10  12
ENDBRANCH   8  10
ENDBRANCH   2   3
BRANCH   1  17
ATOM     15  C   UNL     1       3.876   4.460  17.232  0.00  0.00    +0.000 A 
ATOM     16  C   UNL     1       3.043   5.348  17.938  0.00  0.00    +0.000 A 
ATOM     17  C   UNL     1       3.366   6.696  18.077  0.00  0.00    +0.000 A 
ATOM     18  C   UNL     1       4.584   7.130  17.551  0.00  0.00    +0.000 A 
ATOM     19  C   UNL     1       5.475   6.249  16.913  0.00  0.00    +0.000 A 
ATOM     20  C   UNL     1       5.133   4.890  16.752  0.00  0.00    +0.000 A 
BRANCH  15  22
ATOM     21  C   UNL     1       2.293   2.772  17.741  0.00  0.00    +0.000 C 
ATOM     22  O   UNL     1       3.471   3.164  17.029  0.00  0.00    +0.000 OA
ENDBRANCH  15  22
BRANCH  19  23
ATOM     23  O   UNL     1       6.607   6.909  16.500  0.00  0.00    +0.000 OA
ATOM     24  C   UNL     1       7.544   7.377  17.456  0.00  0.00    +0.000 C 
ENDBRANCH  19  23
BRANCH  20  25
ATOM     25  O   UNL     1       6.071   4.110  16.132  0.00  0.00    +0.000 OA
ATOM     26  C   UNL     1       6.088   3.952  14.725  0.00  0.00    +0.000 C 
ENDBRANCH  20  25
ENDBRANCH   1  17
TORSDOF 7
ENDMDL
MODEL 7
REMARK VINA RESULT:      -7.1      2.101      3.171
REMARK  Name = 
REMARK  12 active torsions:
REMARK  status: ('A' for Active; 'I' for Inactive)
REMARK    1  A    between atoms: C_1  and  O_2
REMARK    2  A    between atoms: O_2  and  C_3
REMARK    3  A    between atoms: C_5  and  C_6
REMARK    4  A    between atoms: C_7  and  C_8
REMARK    5  A    between atoms: C_13  and  N_14
REMARK    6  A    between atoms: N_14  and  C_15
REMARK    7  A    between atoms: C_15  and  C_16
REMARK    8  A    between atoms: C_15  and  C_17
REMARK    9  A    between atoms: C_20  and  O_21
REMARK   10  A    between atoms: O_21  and  C_22
REMARK   11  A    between atoms: C_23  and  O_24
REMARK   12  A    between atoms: O_24  and  C_25
REMARK                            x       y       z     vdW  Elec       q    Type
REMARK                         _______ _______ _______ _____ _____    ______ ____
ROOT
ATOM      1  C   UNL     1       8.191   9.467  17.763  0.00  0.00    +0.000 C 
ATOM      2  C   UNL     1       8.172   8.137  17.932  0.00  0.00    +0.000 C 
ENDROOT
BRANCH   2   3
ATOM      3  C   UNL     1       7.193   7.206  17.362  0.00  0.00    +0.000 A 
ATOM      4  N   UNL     1       5.948   7.363  17.822  0.00  0.00    +0.000 NA
ATOM      5  C   UNL     1       5.052   6.518  17.313  0.00  0.00    +0.000 A 
ATOM      6 CL   UNL     1       3.444   6.776  17.855  0.00  0.00    +0.000 Cl
ATOM      7  C   UNL     1       5.336   5.531  16.410  0.00  0.00    +0.000 A 
ATOM      8  C   UNL     1       6.638   5.464  15.974  0.00  0.00    +0.000 A 
ATOM      9  N   UNL     1       7.576   6.306  16.431  0.00  0.00    +0.000 NA
BRANCH   8  10
ATOM     10  N   UNL     1       6.925   4.507  14.997  0.00  0.00    +0.000 N 
ATOM     11  H   UNL     1       7.779   3.997  15.198  0.00  0.00    +0.000 HD
BRANCH  10  12
ATOM     12  C   UNL     1       6.694   4.790  13.586  0.00  0.00    +0.000 C 
ATOM     13  C   UNL     1       7.967   5.206  12.857  0.00  0.00    +0.000 C 
ATOM     14  C   UNL     1       6.145   3.499  12.962  0.00  0.00    +0.000 C 
ENDBRANCH  10  12
ENDBRANCH   8  10
ENDBRANCH   2   3
BRANCH   1  17
ATOM     15  C   UNL     1      10.953  12.003  18.215  0.00  0.00    +0.000 A 
ATOM     16  C   UNL     1      10.134  10.998  17.667  0.00  0.00    +0.000 A 
ATOM     17  C   UNL     1       9.153  10.364  18.427  0.00  0.00    +0.000 A 
ATOM     18  C   UNL     1       9.052  10.707  19.776  0.00  0.00    +0.000 A 
ATOM     19  C   UNL     1       9.912  11.648  20.371  0.00  0.00    +0.000 A 
ATOM     20  C   UNL     1      10.886  12.307  19.593  0.00  0.00    +0.000 A 
BRANCH  15  22
ATOM     21  C   UNL     1      11.269  13.737  16.631  0.00  0.00    +0.000 C 
ATOM     22  O   UNL     1      11.836  12.676  17.406  0.00  0.00    +0.000 OA
ENDBRANCH  15  22
BRANCH  19  23
ATOM     23  O   UNL     1       9.624  11.800  21.705  0.00  0.00    +0.000 OA
ATOM     24  C   UNL     1       8.279  11.948  22.128  0.00  0.00    +0.000 C 
ENDBRANCH  19  23
BRANCH  20  25
ATOM     25  O   UNL     1      11.683  13.194  20.265  0.00  0.00    +0.000 OA
ATOM     26  C   UNL     1      11.405  14.583  20.268  0.00  0.00    +0.000 C 
ENDBRANCH  20  25
ENDBRANCH   1  17
TORSDOF 7
ENDMDL
MODEL 8
REMARK VINA RESULT:      -7.1      6.602      9.071
REMARK  Name = 
REMARK  12 active torsions:
REMARK  status: ('A' for Active; 'I' for Inactive)
REMARK    1  A    between atoms: C_1  and  O_2
REMARK    2  A    between atoms: O_2  and  C_3
REMARK    3  A    between atoms: C_5  and  C_6
REMARK    4  A    between atoms: C_7  and  C_8
REMARK    5  A    between atoms: C_13  and  N_14
REMARK    6  A    between atoms: N_14  and  C_15
REMARK    7  A    between atoms: C_15  and  C_16
REMARK    8  A    between atoms: C_15  and  C_17
REMARK    9  A    between atoms: C_20  and  O_21
REMARK   10  A    between atoms: O_21  and  C_22
REMARK   11  A    between atoms: C_23  and  O_24
REMARK   12  A    between atoms: O_24  and  C_25
REMARK                            x       y       z     vdW  Elec       q    Type
REMARK                         _______ _______ _______ _____ _____    ______ ____
ROOT
ATOM      1  C   UNL     1       2.151   7.508  18.237  0.00  0.00    +0.000 C 
ATOM      2  C   UNL     1       2.082   8.843  18.124  0.00  0.00    +0.000 C 
ENDROOT
BRANCH   2   3
ATOM      3  C   UNL     1       0.985   9.694  18.592  0.00  0.00    +0.000 A 
ATOM      4  N   UNL     1      -0.047   9.781  17.746  0.00  0.00    +0.000 NA
ATOM      5  C   UNL     1      -1.047  10.559  18.160  0.00  0.00    +0.000 A 
ATOM      6 CL   UNL     1      -2.397  10.605  17.101  0.00  0.00    +0.000 Cl
ATOM      7  C   UNL     1      -1.057  11.257  19.336  0.00  0.00    +0.000 A 
ATOM      8  C   UNL     1       0.035  11.083  20.154  0.00  0.00    +0.000 A 
ATOM      9  N   UNL     1       1.059  10.292  19.801  0.00  0.00    +0.000 NA
BRANCH   8  10
ATOM     10  N   UNL     1       0.003  11.733  21.390  0.00  0.00    +0.000 N 
ATOM     11  H   UNL     1       0.912  11.742  21.843  0.00  0.00    +0.000 HD
BRANCH  10  12
ATOM     12  C   UNL     1      -1.131  11.569  22.291  0.00  0.00    +0.000 C 
ATOM     13  C   UNL     1      -0.953  10.396  23.248  0.00  0.00    +0.000 C 
ATOM     14  C   UNL     1      -1.248  12.873  23.093  0.00  0.00    +0.000 C 
ENDBRANCH  10  12
ENDBRANCH   8  10
ENDBRANCH   2   3
BRANCH   1  17
ATOM     15  C   UNL     1       5.545   6.579  16.865  0.00  0.00    +0.000 A 
ATOM     16  C   UNL     1       4.405   7.319  17.232  0.00  0.00    +0.000 A 
ATOM     17  C   UNL     1       3.243   6.693  17.676  0.00  0.00    +0.000 A 
ATOM     18  C   UNL     1       3.217   5.298  17.680  0.00  0.00    +0.000 A 
ATOM     19  C   UNL     1       4.312   4.532  17.241  0.00  0.00    +0.000 A 
ATOM     20  C   UNL     1       5.496   5.169  16.817  0.00  0.00    +0.000 A 
BRANCH  15  22
ATOM     21  C   UNL     1       7.566   7.551  17.631  0.00  0.00    +0.000 C 
ATOM     22  O   UNL     1       6.704   7.237  16.533  0.00  0.00    +0.000 OA
ENDBRANCH  15  22
BRANCH  19  23
ATOM     23  O   UNL     1       4.036   3.188  17.326  0.00  0.00    +0.000 OA
ATOM     24  C   UNL     1       2.843   2.748  17.954  0.00  0.00    +0.000 C 
ENDBRANCH  19  23
BRANCH  20  25
ATOM     25  O   UNL     1       6.499   4.339  16.395  0.00  0.00    +0.000 OA
ATOM     26  C   UNL     1       6.662   4.010  15.027  0.00  0.00    +0.000 C 
ENDBRANCH  20  25
ENDBRANCH   1  17
TORSDOF 7
ENDMDL
MODEL 9
REMARK VINA RESULT:      -7.1      7.284     10.170
REMARK  Name = 
REMARK  12 active torsions:
REMARK  status: ('A' for Active; 'I' for Inactive)
REMARK    1  A    between atoms: C_1  and  O_2
REMARK    2  A    between atoms: O_2  and  C_3
REMARK    3  A    between atoms: C_5  and  C_6
REMARK    4  A    between atoms: C_7  and  C_8
REMARK    5  A    between atoms: C_13  and  N_14
REMARK    6  A    between atoms: N_14  and  C_15
REMARK    7  A    between atoms: C_15  and  C_16
REMARK    8  A    between atoms: C_15  and  C_17
REMARK    9  A    between atoms: C_20  and  O_21
REMARK   10  A    between atoms: O_21  and  C_22
REMARK   11  A    between atoms: C_23  and  O_24
REMARK   12  A    between atoms: O_24  and  C_25
REMARK                            x       y       z     vdW  Elec       q    Type
REMARK                         _______ _______ _______ _____ _____    ______ ____
ROOT
ATOM      1  C   UNL     1       1.932   8.632  18.210  0.00  0.00    +0.000 C 
ATOM      2  C   UNL     1       1.268   9.360  19.120  0.00  0.00    +0.000 C 
ENDROOT
BRANCH   2   3
ATOM      3  C   UNL     1       0.562  10.620  18.871  0.00  0.00    +0.000 A 
ATOM      4  N   UNL     1       1.083  11.679  19.499  0.00  0.00    +0.000 NA
ATOM      5  C   UNL     1       0.443  12.829  19.283  0.00  0.00    +0.000 A 
ATOM      6 CL   UNL     1       1.163  14.194  20.034  0.00  0.00    +0.000 Cl
ATOM      7  C   UNL     1      -0.678  12.965  18.512  0.00  0.00    +0.000 A 
ATOM      8  C   UNL     1      -1.124  11.826  17.884  0.00  0.00    +0.000 A 
ATOM      9  N   UNL     1      -0.504  10.647  18.043  0.00  0.00    +0.000 NA
BRANCH   8  10
ATOM     10  N   UNL     1      -2.224  11.968  17.035  0.00  0.00    +0.000 N 
ATOM     11  H   UNL     1      -2.705  12.851  17.173  0.00  0.00    +0.000 HD
BRANCH  10  12
ATOM     12  C   UNL     1      -3.093  10.834  16.745  0.00  0.00    +0.000 C 
ATOM     13  C   UNL     1      -4.565  11.145  16.996  0.00  0.00    +0.000 C 
ATOM     14  C   UNL     1      -2.887  10.489  15.263  0.00  0.00    +0.000 C 
ENDBRANCH  10  12
ENDBRANCH   8  10
ENDBRANCH   2   3
BRANCH   1  17
ATOM     15  C   UNL     1       2.868   5.359  19.846  0.00  0.00    +0.000 A 
ATOM     16  C   UNL     1       2.296   6.624  19.610  0.00  0.00    +0.000 A 
ATOM     17  C   UNL     1       2.693   7.412  18.533  0.00  0.00    +0.000 A 
ATOM     18  C   UNL     1       3.730   6.940  17.728  0.00  0.00    +0.000 A 
ATOM     19  C   UNL     1       4.376   5.717  17.988  0.00  0.00    +0.000 A 
ATOM     20  C   UNL     1       3.955   4.909  19.064  0.00  0.00    +0.000 A 
BRANCH  15  22
ATOM     21  C   UNL     1       1.070   4.031  20.631  0.00  0.00    +0.000 C 
ATOM     22  O   UNL     1       2.376   4.569  20.856  0.00  0.00    +0.000 OA
ENDBRANCH  15  22
BRANCH  19  23
ATOM     23  O   UNL     1       5.370   5.483  17.068  0.00  0.00    +0.000 OA
ATOM     24  C   UNL     1       5.096   4.709  15.912  0.00  0.00    +0.000 C 
ENDBRANCH  19  23
BRANCH  20  25
ATOM     25  O   UNL     1       4.654   3.747  19.244  0.00  0.00    +0.000 OA
ATOM     26  C   UNL     1       4.078   2.485  18.957  0.00  0.00    +0.000 C 
ENDBRANCH  20  25
ENDBRANCH   1  17
TORSDOF 7
ENDMDL
