MODEL 1
REMARK VINA RESULT:      -7.7      0.000      0.000
REMARK  Name = 
REMARK  6 active torsions:
REMARK  status: ('A' for Active; 'I' for Inactive)
REMARK    1  A    between atoms: C_1  and  C_2
REMARK    2  A    between atoms: C_3  and  C_4
REMARK    3  A    between atoms: C_4  and  O_6
REMARK    4  A    between atoms: CA_7  and  C_8
REMARK    5  A    between atoms: C_8  and  OXT_10
REMARK    6  A    between atoms: C_15  and  N_16
REMARK                            x       y       z     vdW  Elec       q    Type
REMARK                         _______ _______ _______ _____ _____    ______ ____
ROOT
ATOM      1  C   UNL     1       2.330   4.388  21.047  0.00  0.00    +0.000 C 
ATOM      2  C   UNL     1       2.938   4.935  19.774  0.00  0.00    +0.000 A 
ATOM      3  C   UNL     1       3.756   4.167  18.912  0.00  0.00    +0.000 A 
ATOM      4  CA  UNL     1       4.274   4.804  17.779  0.00  0.00    +0.000 A 
ATOM      5  N   UNL     1       3.963   6.075  17.394  0.00  0.00    +0.000 NA
ATOM      6  C   UNL     1       3.170   6.794  18.210  0.00  0.00    +0.000 A 
ATOM      7  C   UNL     1       2.888   8.086  17.841  0.00  0.00    +0.000 A 
ATOM      8  C   UNL     1       2.048   8.903  18.609  0.00  0.00    +0.000 A 
ATOM      9  C   UNL     1       1.466   8.444  19.789  0.00  0.00    +0.000 A 
ATOM     10  C   UNL     1       1.791   7.138  20.167  0.00  0.00    +0.000 A 
ATOM     11  C   UNL     1       2.633   6.282  19.407  0.00  0.00    +0.000 A 
ENDROOT
BRANCH   9  12
ATOM     12  N   UNL     1       0.594   9.218  20.519  0.00  0.00    +0.000 N 
ATOM     13  C   UNL     1       0.246  10.612  20.185  0.00  0.00    +0.000 C 
ATOM     14  C   UNL     1       0.400  11.503  21.428  0.00  0.00    +0.000 C 
ATOM     15  O   UNL     1      -0.345  10.993  22.548  0.00  0.00    +0.000 OA
ATOM     16  C   UNL     1       0.091   9.663  22.874  0.00  0.00    +0.000 C 
ATOM     17  C   UNL     1      -0.119   8.699  21.696  0.00  0.00    +0.000 C 
ENDBRANCH   9  12
BRANCH   3  18
ATOM     18  C   UNL     1       4.067   2.745  19.172  0.00  0.00    +0.000 C 
ATOM     19  O   UNL     1       3.412   1.781  18.837  0.00  0.00    +0.000 OA
BRANCH  18  20
ATOM     20  O   UNL     1       5.199   2.637  19.888  0.00  0.00    +0.000 OA
ATOM     21  H   UNL     1       5.766   3.393  19.599  0.00  0.00    +0.000 HD
ENDBRANCH  18  20
ENDBRANCH   3  18
BRANCH   4  22
ATOM     22  C   UNL     1       5.309   4.180  16.878  0.00  0.00    +0.000 C 
ATOM     23  O   UNL     1       5.123   3.803  15.732  0.00  0.00    +0.000 OA
BRANCH  22  24
ATOM     24  OXT UNL     1       6.497   4.055  17.521  0.00  0.00    +0.000 OA
ATOM     25  HXT UNL     1       6.371   3.575  18.370  0.00  0.00    +0.000 HD
ENDBRANCH  22  24
ENDBRANCH   4  22
TORSDOF 5
ENDMDL
MODEL 2
REMARK VINA RESULT:      -7.5      1.324      2.906
REMARK  Name = 
REMARK  6 active torsions:
REMARK  status: ('A' for Active; 'I' for Inactive)
REMARK    1  A    between atoms: C_1  and  C_2
REMARK    2  A    between atoms: C_3  and  C_4
REMARK    3  A    between atoms: C_4  and  O_6
REMARK    4  A    between atoms: CA_7  and  C_8
REMARK    5  A    between atoms: C_8  and  OXT_10
REMARK    6  A    between atoms: C_15  and  N_16
REMARK                            x       y       z     vdW  Elec       q    Type
REMARK                         _______ _______ _______ _____ _____    ______ ____
ROOT
ATOM      1  C   UNL     1       4.486   6.922  16.962  0.00  0.00    +0.000 C 
ATOM      2  C   UNL     1       3.976   5.945  17.999  0.00  0.00    +0.000 A 
ATOM      3  C   UNL     1       4.449   4.617  18.113  0.00  0.00    +0.000 A 
ATOM      4  CA  UNL     1       3.874   3.811  19.102  0.00  0.00    +0.000 A 
ATOM      5  N   UNL     1       2.968   4.245  20.025  0.00  0.00    +0.000 NA
ATOM      6  C   UNL     1       2.536   5.515  19.922  0.00  0.00    +0.000 A 
ATOM      7  C   UNL     1       1.596   5.940  20.829  0.00  0.00    +0.000 A 
ATOM      8  C   UNL     1       1.108   7.252  20.820  0.00  0.00    +0.000 A 
ATOM      9  C   UNL     1       1.546   8.188  19.883  0.00  0.00    +0.000 A 
ATOM     10  C   UNL     1       2.478   7.728  18.947  0.00  0.00    +0.000 A 
ATOM     11  C   UNL     1       2.998   6.406  18.933  0.00  0.00    +0.000 A 
ENDROOT
BRANCH   9  12
ATOM     12  N   UNL     1       1.116   9.494  19.903  0.00  0.00    +0.000 N 
ATOM     13  C   UNL     1       0.792  10.240  21.134  0.00  0.00    +0.000 C 
ATOM     14  C   UNL     1      -0.585  10.909  20.994  0.00  0.00    +0.000 C 
ATOM     15  O   UNL     1      -0.669  11.720  19.809  0.00  0.00    +0.000 OA
ATOM     16  C   UNL     1      -0.420  10.922  18.639  0.00  0.00    +0.000 C 
ATOM     17  C   UNL     1       0.982  10.294  18.677  0.00  0.00    +0.000 C 
ENDBRANCH   9  12
BRANCH   3  18
ATOM     18  C   UNL     1       5.510   4.074  17.238  0.00  0.00    +0.000 C 
ATOM     19  O   UNL     1       5.388   3.685  16.096  0.00  0.00    +0.000 OA
BRANCH  18  20
ATOM     20  O   UNL     1       6.681   4.027  17.897  0.00  0.00    +0.000 OA
ATOM     21  H   UNL     1       6.554   3.354  18.610  0.00  0.00    +0.000 HD
ENDBRANCH  18  20
ENDBRANCH   3  18
BRANCH   4  22
ATOM     22  C   UNL     1       4.132   2.331  19.219  0.00  0.00    +0.000 C 
ATOM     23  O   UNL     1       3.472   1.448  18.696  0.00  0.00    +0.000 OA
BRANCH  22  24
ATOM     24  OXT UNL     1       5.196   2.088  20.025  0.00  0.00    +0.000 OA
ATOM     25  HXT UNL     1       5.674   1.284  19.719  0.00  0.00    +0.000 HD
ENDBRANCH  22  24
ENDBRANCH   4  22
TORSDOF 5
ENDMDL
MODEL 3
REMARK VINA RESULT:      -7.2      1.396      2.862
REMARK  Name = 
REMARK  6 active torsions:
REMARK  status: ('A' for Active; 'I' for Inactive)
REMARK    1  A    between atoms: C_1  and  C_2
REMARK    2  A    between atoms: C_3  and  C_4
REMARK    3  A    between atoms: C_4  and  O_6
REMARK    4  A    between atoms: CA_7  and  C_8
REMARK    5  A    between atoms: C_8  and  OXT_10
REMARK    6  A    between atoms: C_15  and  N_16
REMARK                            x       y       z     vdW  Elec       q    Type
REMARK                         _______ _______ _______ _____ _____    ______ ____
ROOT
ATOM      1  C   UNL     1       4.529   6.900  16.735  0.00  0.00    +0.000 C 
ATOM      2  C   UNL     1       4.018   5.991  17.832  0.00  0.00    +0.000 A 
ATOM      3  C   UNL     1       4.495   4.675  18.035  0.00  0.00    +0.000 A 
ATOM      4  CA  UNL     1       3.919   3.933  19.073  0.00  0.00    +0.000 A 
ATOM      5  N   UNL     1       3.009   4.424  19.962  0.00  0.00    +0.000 NA
ATOM      6  C   UNL     1       2.573   5.683  19.774  0.00  0.00    +0.000 A 
ATOM      7  C   UNL     1       1.628   6.162  20.648  0.00  0.00    +0.000 A 
ATOM      8  C   UNL     1       1.135   7.470  20.551  0.00  0.00    +0.000 A 
ATOM      9  C   UNL     1       1.573   8.343  19.557  0.00  0.00    +0.000 A 
ATOM     10  C   UNL     1       2.510   7.827  18.656  0.00  0.00    +0.000 A 
ATOM     11  C   UNL     1       3.035   6.509  18.731  0.00  0.00    +0.000 A 
ENDROOT
BRANCH   9  12
ATOM     12  N   UNL     1       1.138   9.646  19.490  0.00  0.00    +0.000 N 
ATOM     13  C   UNL     1       1.331  10.524  18.320  0.00  0.00    +0.000 C 
ATOM     14  C   UNL     1       1.928  11.869  18.766  0.00  0.00    +0.000 C 
ATOM     15  O   UNL     1       1.145  12.484  19.805  0.00  0.00    +0.000 OA
ATOM     16  C   UNL     1       1.057  11.614  20.945  0.00  0.00    +0.000 C 
ATOM     17  C   UNL     1       0.387  10.279  20.584  0.00  0.00    +0.000 C 
ENDBRANCH   9  12
BRANCH   3  18
ATOM     18  C   UNL     1       5.562   4.081  17.201  0.00  0.00    +0.000 C 
ATOM     19  O   UNL     1       5.450   3.636  16.078  0.00  0.00    +0.000 OA
BRANCH  18  20
ATOM     20  O   UNL     1       6.724   4.055  17.876  0.00  0.00    +0.000 OA
ATOM     21  H   UNL     1       7.192   3.244  17.562  0.00  0.00    +0.000 HD
ENDBRANCH  18  20
ENDBRANCH   3  18
BRANCH   4  22
ATOM     22  C   UNL     1       4.182   2.465  19.287  0.00  0.00    +0.000 C 
ATOM     23  O   UNL     1       3.542   1.547  18.801  0.00  0.00    +0.000 OA
BRANCH  22  24
ATOM     24  OXT UNL     1       5.225   2.280  20.135  0.00  0.00    +0.000 OA
ATOM     25  HXT UNL     1       6.061   2.575  19.710  0.00  0.00    +0.000 HD
ENDBRANCH  22  24
ENDBRANCH   4  22
TORSDOF 5
ENDMDL
MODEL 4
REMARK VINA RESULT:      -7.1      2.046      7.616
REMARK  Name = 
REMARK  6 active torsions:
REMARK  status: ('A' for Active; 'I' for Inactive)
REMARK    1  A    between atoms: C_1  and  C_2
REMARK    2  A    between atoms: C_3  and  C_4
REMARK    3  A    between atoms: C_4  and  O_6
REMARK    4  A    between atoms: CA_7  and  C_8
REMARK    5  A    between atoms: C_8  and  OXT_10
REMARK    6  A    between atoms: C_15  and  N_16
REMARK                            x       y       z     vdW  Elec       q    Type
REMARK                         _______ _______ _______ _____ _____    ______ ____
ROOT
ATOM      1  C   UNL     1       0.171   9.342  22.352  0.00  0.00    +0.000 C 
ATOM      2  C   UNL     1       0.389   9.896  20.961  0.00  0.00    +0.000 A 
ATOM      3  C   UNL     1      -0.055  11.177  20.557  0.00  0.00    +0.000 A 
ATOM      4  CA  UNL     1       0.192  11.557  19.233  0.00  0.00    +0.000 A 
ATOM      5  N   UNL     1       0.917  10.825  18.340  0.00  0.00    +0.000 NA
ATOM      6  C   UNL     1       1.351   9.615  18.736  0.00  0.00    +0.000 A 
ATOM      7  C   UNL     1       2.049   8.863  17.823  0.00  0.00    +0.000 A 
ATOM      8  C   UNL     1       2.567   7.604  18.152  0.00  0.00    +0.000 A 
ATOM      9  C   UNL     1       2.391   7.050  19.419  0.00  0.00    +0.000 A 
ATOM     10  C   UNL     1       1.649   7.815  20.325  0.00  0.00    +0.000 A 
ATOM     11  C   UNL     1       1.117   9.098  20.026  0.00  0.00    +0.000 A 
ENDROOT
BRANCH   9  12
ATOM     12  N   UNL     1       2.945   5.841  19.769  0.00  0.00    +0.000 N 
ATOM     13  C   UNL     1       4.293   5.400  19.361  0.00  0.00    +0.000 C 
ATOM     14  C   UNL     1       4.222   3.985  18.764  0.00  0.00    +0.000 C 
ATOM     15  O   UNL     1       3.575   3.059  19.655  0.00  0.00    +0.000 OA
ATOM     16  C   UNL     1       2.241   3.503  19.954  0.00  0.00    +0.000 C 
ATOM     17  C   UNL     1       2.248   4.881  20.636  0.00  0.00    +0.000 C 
ENDBRANCH   9  12
BRANCH   3  18
ATOM     18  C   UNL     1      -0.753  12.101  21.477  0.00  0.00    +0.000 C 
ATOM     19  O   UNL     1      -1.939  12.127  21.727  0.00  0.00    +0.000 OA
BRANCH  18  20
ATOM     20  O   UNL     1       0.117  12.978  22.008  0.00  0.00    +0.000 OA
ATOM     21  H   UNL     1       0.911  12.949  21.420  0.00  0.00    +0.000 HD
ENDBRANCH  18  20
ENDBRANCH   3  18
BRANCH   4  22
ATOM     22  C   UNL     1      -0.386  12.800  18.606  0.00  0.00    +0.000 C 
ATOM     23  O   UNL     1      -0.148  13.947  18.947  0.00  0.00    +0.000 OA
BRANCH  22  24
ATOM     24  OXT UNL     1      -1.250  12.482  17.610  0.00  0.00    +0.000 OA
ATOM     25  HXT UNL     1      -0.896  11.729  17.085  0.00  0.00    +0.000 HD
ENDBRANCH  22  24
ENDBRANCH   4  22
TORSDOF 5
ENDMDL
MODEL 5
REMARK VINA RESULT:      -7.1      0.813      1.027
REMARK  Name = 
REMARK  6 active torsions:
REMARK  status: ('A' for Active; 'I' for Inactive)
REMARK    1  A    between atoms: C_1  and  C_2
REMARK    2  A    between atoms: C_3  and  C_4
REMARK    3  A    between atoms: C_4  and  O_6
REMARK    4  A    between atoms: CA_7  and  C_8
REMARK    5  A    between atoms: C_8  and  OXT_10
REMARK    6  A    between atoms: C_15  and  N_16
REMARK                            x       y       z     vdW  Elec       q    Type
REMARK                         _______ _______ _______ _____ _____    ______ ____
ROOT
ATOM      1  C   UNL     1       2.224   4.717  20.856  0.00  0.00    +0.000 C 
ATOM      2  C   UNL     1       2.932   5.181  19.601  0.00  0.00    +0.000 A 
ATOM      3  C   UNL     1       3.786   4.350  18.840  0.00  0.00    +0.000 A 
ATOM      4  CA  UNL     1       4.397   4.913  17.713  0.00  0.00    +0.000 A 
ATOM      5  N   UNL     1       4.145   6.167  17.242  0.00  0.00    +0.000 NA
ATOM      6  C   UNL     1       3.316   6.947  17.961  0.00  0.00    +0.000 A 
ATOM      7  C   UNL     1       3.094   8.223  17.506  0.00  0.00    +0.000 A 
ATOM      8  C   UNL     1       2.225   9.098  18.170  0.00  0.00    +0.000 A 
ATOM      9  C   UNL     1       1.552   8.717  19.330  0.00  0.00    +0.000 A 
ATOM     10  C   UNL     1       1.817   7.426  19.797  0.00  0.00    +0.000 A 
ATOM     11  C   UNL     1       2.687   6.512  19.144  0.00  0.00    +0.000 A 
ENDROOT
BRANCH   9  12
ATOM     12  N   UNL     1       0.652   9.549  19.956  0.00  0.00    +0.000 N 
ATOM     13  C   UNL     1      -0.667   9.908  19.402  0.00  0.00    +0.000 C 
ATOM     14  C   UNL     1      -0.854  11.434  19.443  0.00  0.00    +0.000 C 
ATOM     15  O   UNL     1      -0.638  11.965  20.763  0.00  0.00    +0.000 OA
ATOM     16  C   UNL     1       0.689  11.648  21.216  0.00  0.00    +0.000 C 
ATOM     17  C   UNL     1       0.913  10.129  21.282  0.00  0.00    +0.000 C 
ENDBRANCH   9  12
BRANCH   3  18
ATOM     18  C   UNL     1       4.042   2.937  19.195  0.00  0.00    +0.000 C 
ATOM     19  O   UNL     1       3.330   1.984  18.961  0.00  0.00    +0.000 OA
BRANCH  18  20
ATOM     20  O   UNL     1       5.198   2.827  19.873  0.00  0.00    +0.000 OA
ATOM     21  H   UNL     1       5.281   1.868  20.096  0.00  0.00    +0.000 HD
ENDBRANCH  18  20
ENDBRANCH   3  18
BRANCH   4  22
ATOM     22  C   UNL     1       5.474   4.219  16.920  0.00  0.00    +0.000 C 
ATOM     23  O   UNL     1       5.339   3.726  15.812  0.00  0.00    +0.000 OA
BRANCH  22  24
ATOM     24  OXT UNL     1       6.636   4.177  17.618  0.00  0.00    +0.000 OA
ATOM     25  HXT UNL     1       7.114   5.033  17.528  0.00  0.00    +0.000 HD
ENDBRANCH  22  24
ENDBRANCH   4  22
TORSDOF 5
ENDMDL
MODEL 6
REMARK VINA RESULT:      -6.8      1.914      7.671
REMARK  Name = 
REMARK  6 active torsions:
REMARK  status: ('A' for Active; 'I' for Inactive)
REMARK    1  A    between atoms: C_1  and  C_2
REMARK    2  A    between atoms: C_3  and  C_4
REMARK    3  A    between atoms: C_4  and  O_6
REMARK    4  A    between atoms: CA_7  and  C_8
REMARK    5  A    between atoms: C_8  and  OXT_10
REMARK    6  A    between atoms: C_15  and  N_16
REMARK                            x       y       z     vdW  Elec       q    Type
REMARK                         _______ _______ _______ _____ _____    ______ ____
ROOT
ATOM      1  C   UNL     1       1.837  10.065  17.762  0.00  0.00    +0.000 C 
ATOM      2  C   UNL     1       1.609   9.233  19.005  0.00  0.00    +0.000 A 
ATOM      3  C   UNL     1       0.805   9.660  20.087  0.00  0.00    +0.000 A 
ATOM      4  CA  UNL     1       0.696   8.801  21.188  0.00  0.00    +0.000 A 
ATOM      5  N   UNL     1       1.224   7.545  21.244  0.00  0.00    +0.000 NA
ATOM      6  C   UNL     1       1.972   7.138  20.202  0.00  0.00    +0.000 A 
ATOM      7  C   UNL     1       2.534   5.887  20.277  0.00  0.00    +0.000 A 
ATOM      8  C   UNL     1       3.304   5.364  19.230  0.00  0.00    +0.000 A 
ATOM      9  C   UNL     1       3.544   6.094  18.066  0.00  0.00    +0.000 A 
ATOM     10  C   UNL     1       2.993   7.378  18.022  0.00  0.00    +0.000 A 
ATOM     11  C   UNL     1       2.202   7.935  19.063  0.00  0.00    +0.000 A 
ENDROOT
BRANCH   9  12
ATOM     12  N   UNL     1       4.250   5.566  17.010  0.00  0.00    +0.000 N 
ATOM     13  C   UNL     1       4.181   4.154  16.592  0.00  0.00    +0.000 C 
ATOM     14  C   UNL     1       5.601   3.583  16.440  0.00  0.00    +0.000 C 
ATOM     15  O   UNL     1       6.411   4.387  15.564  0.00  0.00    +0.000 OA
ATOM     16  C   UNL     1       6.503   5.731  16.064  0.00  0.00    +0.000 C 
ATOM     17  C   UNL     1       5.118   6.392  16.158  0.00  0.00    +0.000 C 
ENDBRANCH   9  12
BRANCH   3  18
ATOM     18  C   UNL     1       0.093  10.956  20.085  0.00  0.00    +0.000 C 
ATOM     19  O   UNL     1      -1.003  11.187  19.621  0.00  0.00    +0.000 OA
BRANCH  18  20
ATOM     20  O   UNL     1       0.853  11.908  20.653  0.00  0.00    +0.000 OA
ATOM     21  H   UNL     1       1.177  12.467  19.905  0.00  0.00    +0.000 HD
ENDBRANCH  18  20
ENDBRANCH   3  18
BRANCH   4  22
ATOM     22  C   UNL     1       0.041   9.196  22.486  0.00  0.00    +0.000 C 
ATOM     23  O   UNL     1       0.421  10.077  23.238  0.00  0.00    +0.000 OA
BRANCH  22  24
ATOM     24  OXT UNL     1      -1.036   8.411  22.741  0.00  0.00    +0.000 OA
ATOM     25  HXT UNL     1      -0.899   7.516  22.357  0.00  0.00    +0.000 HD
ENDBRANCH  22  24
ENDBRANCH   4  22
TORSDOF 5
ENDMDL
MODEL 7
REMARK VINA RESULT:      -6.7      2.009      7.480
REMARK  Name = 
REMARK  6 active torsions:
REMARK  status: ('A' for Active; 'I' for Inactive)
REMARK    1  A    between atoms: C_1  and  C_2
REMARK    2  A    between atoms: C_3  and  C_4
REMARK    3  A    between atoms: C_4  and  O_6
REMARK    4  A    between atoms: CA_7  and  C_8
REMARK    5  A    between atoms: C_8  and  OXT_10
REMARK    6  A    between atoms: C_15  and  N_16
REMARK                            x       y       z     vdW  Elec       q    Type
REMARK                         _______ _______ _______ _____ _____    ______ ____
ROOT
ATOM      1  C   UNL     1       0.116   9.203  22.350  0.00  0.00    +0.000 C 
ATOM      2  C   UNL     1       0.473   9.726  20.976  0.00  0.00    +0.000 A 
ATOM      3  C   UNL     1       0.153  11.031  20.534  0.00  0.00    +0.000 A 
ATOM      4  CA  UNL     1       0.522  11.379  19.229  0.00  0.00    +0.000 A 
ATOM      5  N   UNL     1       1.256  10.587  18.396  0.00  0.00    +0.000 NA
ATOM      6  C   UNL     1       1.573   9.353  18.830  0.00  0.00    +0.000 A 
ATOM      7  C   UNL     1       2.280   8.544  17.974  0.00  0.00    +0.000 A 
ATOM      8  C   UNL     1       2.681   7.255  18.347  0.00  0.00    +0.000 A 
ATOM      9  C   UNL     1       2.374   6.729  19.601  0.00  0.00    +0.000 A 
ATOM     10  C   UNL     1       1.625   7.554  20.445  0.00  0.00    +0.000 A 
ATOM     11  C   UNL     1       1.209   8.869  20.101  0.00  0.00    +0.000 A 
ENDROOT
BRANCH   9  12
ATOM     12  N   UNL     1       2.814   5.487  19.997  0.00  0.00    +0.000 N 
ATOM     13  C   UNL     1       4.004   4.816  19.443  0.00  0.00    +0.000 C 
ATOM     14  C   UNL     1       3.649   3.378  19.027  0.00  0.00    +0.000 C 
ATOM     15  O   UNL     1       3.041   2.644  20.105  0.00  0.00    +0.000 OA
ATOM     16  C   UNL     1       1.847   3.307  20.550  0.00  0.00    +0.000 C 
ATOM     17  C   UNL     1       2.148   4.724  21.063  0.00  0.00    +0.000 C 
ENDBRANCH   9  12
BRANCH   3  18
ATOM     18  C   UNL     1      -0.541  12.012  21.395  0.00  0.00    +0.000 C 
ATOM     19  O   UNL     1      -0.054  12.681  22.281  0.00  0.00    +0.000 OA
BRANCH  18  20
ATOM     20  O   UNL     1      -1.850  12.056  21.093  0.00  0.00    +0.000 OA
ATOM     21  H   UNL     1      -2.213  12.819  21.605  0.00  0.00    +0.000 HD
ENDBRANCH  18  20
ENDBRANCH   3  18
BRANCH   4  22
ATOM     22  C   UNL     1       0.083  12.652  18.555  0.00  0.00    +0.000 C 
ATOM     23  O   UNL     1      -1.059  12.929  18.228  0.00  0.00    +0.000 OA
BRANCH  22  24
ATOM     24  OXT UNL     1       1.143  13.465  18.320  0.00  0.00    +0.000 OA
ATOM     25  HXT UNL     1       1.467  13.849  19.166  0.00  0.00    +0.000 HD
ENDBRANCH  22  24
ENDBRANCH   4  22
TORSDOF 5
ENDMDL
MODEL 8
REMARK VINA RESULT:      -6.7      1.979      3.340
REMARK  Name = 
REMARK  6 active torsions:
REMARK  status: ('A' for Active; 'I' for Inactive)
REMARK    1  A    between atoms: C_1  and  C_2
REMARK    2  A    between atoms: C_3  and  C_4
REMARK    3  A    between atoms: C_4  and  O_6
REMARK    4  A    between atoms: CA_7  and  C_8
REMARK    5  A    between atoms: C_8  and  OXT_10
REMARK    6  A    between atoms: C_15  and  N_16
REMARK                            x       y       z     vdW  Elec       q    Type
REMARK                         _______ _______ _______ _____ _____    ______ ____
ROOT
ATOM      1  C   UNL     1       3.962   6.500  17.317  0.00  0.00    +0.000 C 
ATOM      2  C   UNL     1       3.280   5.960  18.556  0.00  0.00    +0.000 A 
ATOM      3  C   UNL     1       3.473   4.644  19.036  0.00  0.00    +0.000 A 
ATOM      4  CA  UNL     1       2.763   4.265  20.181  0.00  0.00    +0.000 A 
ATOM      5  N   UNL     1       1.982   5.103  20.921  0.00  0.00    +0.000 NA
ATOM      6  C   UNL     1       1.817   6.360  20.467  0.00  0.00    +0.000 A 
ATOM      7  C   UNL     1       1.000   7.192  21.193  0.00  0.00    +0.000 A 
ATOM      8  C   UNL     1       0.791   8.525  20.817  0.00  0.00    +0.000 A 
ATOM      9  C   UNL     1       1.395   9.068  19.684  0.00  0.00    +0.000 A 
ATOM     10  C   UNL     1       2.196   8.196  18.940  0.00  0.00    +0.000 A 
ATOM     11  C   UNL     1       2.435   6.842  19.296  0.00  0.00    +0.000 A 
ENDROOT
BRANCH   9  12
ATOM     12  N   UNL     1       1.242  10.391  19.340  0.00  0.00    +0.000 N 
ATOM     13  C   UNL     1       1.671  10.966  18.052  0.00  0.00    +0.000 C 
ATOM     14  C   UNL     1       2.509  12.232  18.296  0.00  0.00    +0.000 C 
ATOM     15  O   UNL     1       1.818  13.179  19.130  0.00  0.00    +0.000 OA
ATOM     16  C   UNL     1       1.494  12.585  20.398  0.00  0.00    +0.000 C 
ATOM     17  C   UNL     1       0.583  11.360  20.228  0.00  0.00    +0.000 C 
ENDBRANCH   9  12
BRANCH   3  18
ATOM     18  C   UNL     1       4.386   3.684  18.377  0.00  0.00    +0.000 C 
ATOM     19  O   UNL     1       4.126   2.949  17.448  0.00  0.00    +0.000 OA
BRANCH  18  20
ATOM     20  O   UNL     1       5.588   3.694  18.978  0.00  0.00    +0.000 OA
ATOM     21  H   UNL     1       6.161   4.265  18.411  0.00  0.00    +0.000 HD
ENDBRANCH  18  20
ENDBRANCH   3  18
BRANCH   4  22
ATOM     22  C   UNL     1       2.714   2.849  20.696  0.00  0.00    +0.000 C 
ATOM     23  O   UNL     1       3.422   2.385  21.574  0.00  0.00    +0.000 OA
BRANCH  22  24
ATOM     24  OXT UNL     1       1.785   2.123  20.026  0.00  0.00    +0.000 OA
ATOM     25  HXT UNL     1       2.109   1.204  19.890  0.00  0.00    +0.000 HD
ENDBRANCH  22  24
ENDBRANCH   4  22
TORSDOF 5
ENDMDL
MODEL 9
REMARK VINA RESULT:      -6.7      3.157      7.349
REMARK  Name = 
REMARK  6 active torsions:
REMARK  status: ('A' for Active; 'I' for Inactive)
REMARK    1  A    between atoms: C_1  and  C_2
REMARK    2  A    between atoms: C_3  and  C_4
REMARK    3  A    between atoms: C_4  and  O_6
REMARK    4  A    between atoms: CA_7  and  C_8
REMARK    5  A    between atoms: C_8  and  OXT_10
REMARK    6  A    between atoms: C_15  and  N_16
REMARK                            x       y       z     vdW  Elec       q    Type
REMARK                         _______ _______ _______ _____ _____    ______ ____
ROOT
ATOM      1  C   UNL     1       3.529   2.066  18.083  0.00  0.00    +0.000 C 
ATOM      2  C   UNL     1       3.399   3.556  18.314  0.00  0.00    +0.000 A 
ATOM      3  C   UNL     1       2.695   4.113  19.407  0.00  0.00    +0.000 A 
ATOM      4  CA  UNL     1       2.632   5.509  19.488  0.00  0.00    +0.000 A 
ATOM      5  N   UNL     1       3.286   6.364  18.650  0.00  0.00    +0.000 NA
ATOM      6  C   UNL     1       3.969   5.826  17.623  0.00  0.00    +0.000 A 
ATOM      7  C   UNL     1       4.595   6.690  16.758  0.00  0.00    +0.000 A 
ATOM      8  C   UNL     1       5.354   6.224  15.677  0.00  0.00    +0.000 A 
ATOM      9  C   UNL     1       5.502   4.861  15.423  0.00  0.00    +0.000 A 
ATOM     10  C   UNL     1       4.830   3.998  16.294  0.00  0.00    +0.000 A 
ATOM     11  C   UNL     1       4.058   4.437  17.403  0.00  0.00    +0.000 A 
ENDROOT
BRANCH   9  12
ATOM     12  N   UNL     1       6.293   4.393  14.399  0.00  0.00    +0.000 N 
ATOM     13  C   UNL     1       7.576   5.001  14.001  0.00  0.00    +0.000 C 
ATOM     14  C   UNL     1       7.597   5.234  12.481  0.00  0.00    +0.000 C 
ATOM     15  O   UNL     1       7.296   4.031  11.751  0.00  0.00    +0.000 OA
ATOM     16  C   UNL     1       6.003   3.529  12.127  0.00  0.00    +0.000 C 
ATOM     17  C   UNL     1       5.944   3.193  13.625  0.00  0.00    +0.000 C 
ENDBRANCH   9  12
BRANCH   3  18
ATOM     18  C   UNL     1       2.043   3.279  20.439  0.00  0.00    +0.000 C 
ATOM     19  O   UNL     1       2.554   2.824  21.441  0.00  0.00    +0.000 OA
BRANCH  18  20
ATOM     20  O   UNL     1       0.762   3.042  20.109  0.00  0.00    +0.000 OA
ATOM     21  H   UNL     1       0.576   3.632  19.339  0.00  0.00    +0.000 HD
ENDBRANCH  18  20
ENDBRANCH   3  18
BRANCH   4  22
ATOM     22  C   UNL     1       1.763   6.244  20.477  0.00  0.00    +0.000 C 
ATOM     23  O   UNL     1       0.707   5.841  20.935  0.00  0.00    +0.000 OA
BRANCH  22  24
ATOM     24  OXT UNL     1       2.294   7.455  20.780  0.00  0.00    +0.000 OA
ATOM     25  HXT UNL     1       1.575   8.109  20.934  0.00  0.00    +0.000 HD
ENDBRANCH  22  24
ENDBRANCH   4  22
TORSDOF 5
ENDMDL
