MODEL 1
REMARK VINA RESULT:      -8.2      0.000      0.000
REMARK  Name = 
REMARK  11 active torsions:
REMARK  status: ('A' for Active; 'I' for Inactive)
REMARK    1  A    between atoms: C_1  and  C_2
REMARK    2  A    between atoms: C_2  and  C_3
REMARK    3  A    between atoms: C_2  and  C_4
REMARK    4  A    between atoms: C_2  and  C_5
REMARK    5  A    between atoms: C_5  and  N_6
REMARK    6  A    between atoms: N_6  and  C_7
REMARK    7  A    between atoms: C_7  and  C_8
REMARK    8  A    between atoms: C_19  and  C_21
REMARK    9  A    between atoms: C_21  and  N_22
REMARK   10  A    between atoms: C_25  and  C_26
REMARK   11  A    between atoms: C_26  and  C_28
REMARK                            x       y       z     vdW  Elec       q    Type
REMARK                         _______ _______ _______ _____ _____    ______ ____
ROOT
ATOM      1  N   UNL     1       0.418  10.243  19.617  0.00  0.00    +0.000 N 
ATOM      2  C   UNL     1       0.604   9.108  20.398  0.00  0.00    +0.000 C 
ATOM      3  O   UNL     1      -0.215   8.799  21.271  0.00  0.00    +0.000 OA
ENDROOT
BRANCH   1   4
ATOM      4  C   UNL     1      -0.905  10.873  19.724  0.00  0.00    +0.000 C 
BRANCH   4   6
ATOM      5  C   UNL     1      -1.289  12.321  17.507  0.00  0.00    +0.000 C 
ATOM      6  C   UNL     1      -1.710  11.127  18.396  0.00  0.00    +0.000 C 
ATOM      7  C   UNL     1      -3.198  11.317  18.730  0.00  0.00    +0.000 C 
ATOM      8  C   UNL     1      -1.483   9.881  17.508  0.00  0.00    +0.000 C 
ENDBRANCH   4   6
ENDBRANCH   1   4
BRANCH   1   9
ATOM      9  C   UNL     1       1.447  10.845  18.713  0.00  0.00    +0.000 C 
BRANCH   9  10
ATOM     10  C   UNL     1       1.915  12.292  19.034  0.00  0.00    +0.000 A 
ATOM     11  N   UNL     1       2.545  13.032  18.164  0.00  0.00    +0.000 NA
ATOM     12  C   UNL     1       3.054  14.244  18.606  0.00  0.00    +0.000 A 
ATOM     13  C   UNL     1       3.056  14.625  19.896  0.00  0.00    +0.000 A 
ATOM     14  C   UNL     1       2.276  13.811  20.832  0.00  0.00    +0.000 A 
ATOM     15  O   UNL     1       2.189  14.098  22.020  0.00  0.00    +0.000 OA
ATOM     16  N   UNL     1       1.674  12.715  20.310  0.00  0.00    +0.000 N 
ATOM     17  C   UNL     1       3.782  15.820  20.432  0.00  0.00    +0.000 C 
ATOM     18  O   UNL     1       4.618  16.448  19.443  0.00  0.00    +0.000 OA
ATOM     19  C   UNL     1       3.947  16.567  18.188  0.00  0.00    +0.000 C 
ATOM     20  C   UNL     1       3.710  15.168  17.598  0.00  0.00    +0.000 C 
ATOM     21  H   UNL     1       1.142  12.143  20.950  0.00  0.00    +0.000 HD
ENDBRANCH   9  10
ENDBRANCH   1   9
BRANCH   2  22
ATOM     22  C   UNL     1       1.868   8.272  20.278  0.00  0.00    +0.000 C 
BRANCH  22  23
ATOM     23  N   UNL     1       1.665   6.871  19.834  0.00  0.00    +0.000 NA
ATOM     24  C   UNL     1       2.229   6.777  18.477  0.00  0.00    +0.000 C 
ATOM     25  C   UNL     1       2.185   5.362  17.910  0.00  0.00    +0.000 C 
ATOM     26  C   UNL     1       2.888   4.362  18.828  0.00  0.00    +0.000 C 
ATOM     27  C   UNL     1       2.283   4.479  20.231  0.00  0.00    +0.000 C 
ATOM     28  C   UNL     1       2.303   5.918  20.757  0.00  0.00    +0.000 C 
BRANCH  26  29
ATOM     29  C   UNL     1       4.408   4.572  18.866  0.00  0.00    +0.000 C 
ATOM     30  O   UNL     1       5.042   4.630  19.919  0.00  0.00    +0.000 OA
BRANCH  29  31
ATOM     31  C   UNL     1       5.182   4.711  17.603  0.00  0.00    +0.000 A 
ATOM     32  C   UNL     1       6.140   5.736  17.531  0.00  0.00    +0.000 A 
ATOM     33  C   UNL     1       6.953   5.866  16.401  0.00  0.00    +0.000 A 
ATOM     34  C   UNL     1       6.806   4.966  15.356  0.00  0.00    +0.000 A 
ATOM     35  F   UNL     1       7.601   5.071  14.284  0.00  0.00    +0.000 F 
ATOM     36  C   UNL     1       5.856   3.950  15.409  0.00  0.00    +0.000 A 
ATOM     37  C   UNL     1       5.037   3.819  16.533  0.00  0.00    +0.000 A 
ENDBRANCH  29  31
ENDBRANCH  26  29
ENDBRANCH  22  23
ENDBRANCH   2  22
TORSDOF 8
ENDMDL
MODEL 2
REMARK VINA RESULT:      -8.2      5.198      7.540
REMARK  Name = 
REMARK  11 active torsions:
REMARK  status: ('A' for Active; 'I' for Inactive)
REMARK    1  A    between atoms: C_1  and  C_2
REMARK    2  A    between atoms: C_2  and  C_3
REMARK    3  A    between atoms: C_2  and  C_4
REMARK    4  A    between atoms: C_2  and  C_5
REMARK    5  A    between atoms: C_5  and  N_6
REMARK    6  A    between atoms: N_6  and  C_7
REMARK    7  A    between atoms: C_7  and  C_8
REMARK    8  A    between atoms: C_19  and  C_21
REMARK    9  A    between atoms: C_21  and  N_22
REMARK   10  A    between atoms: C_25  and  C_26
REMARK   11  A    between atoms: C_26  and  C_28
REMARK                            x       y       z     vdW  Elec       q    Type
REMARK                         _______ _______ _______ _____ _____    ______ ____
ROOT
ATOM      1  N   UNL     1       9.176  10.864  19.150  0.00  0.00    +0.000 N 
ATOM      2  C   UNL     1       8.629   9.836  18.390  0.00  0.00    +0.000 C 
ATOM      3  O   UNL     1       8.181  10.055  17.258  0.00  0.00    +0.000 OA
ENDROOT
BRANCH   1   4
ATOM      4  C   UNL     1       9.411  12.124  18.432  0.00  0.00    +0.000 C 
BRANCH   4   6
ATOM      5  C   UNL     1      12.032  11.589  18.494  0.00  0.00    +0.000 C 
ATOM      6  C   UNL     1      10.898  12.619  18.281  0.00  0.00    +0.000 C 
ATOM      7  C   UNL     1      11.152  13.777  19.259  0.00  0.00    +0.000 C 
ATOM      8  C   UNL     1      11.054  13.073  16.812  0.00  0.00    +0.000 C 
ENDBRANCH   4   6
ENDBRANCH   1   4
BRANCH   1   9
ATOM      9  C   UNL     1       9.518  10.773  20.604  0.00  0.00    +0.000 C 
BRANCH   9  10
ATOM     10  C   UNL     1       8.694  11.653  21.584  0.00  0.00    +0.000 A 
ATOM     11  N   UNL     1       8.103  11.159  22.637  0.00  0.00    +0.000 NA
ATOM     12  C   UNL     1       7.266  12.003  23.353  0.00  0.00    +0.000 A 
ATOM     13  C   UNL     1       6.928  13.240  22.945  0.00  0.00    +0.000 A 
ATOM     14  C   UNL     1       7.665  13.789  21.805  0.00  0.00    +0.000 A 
ATOM     15  O   UNL     1       7.453  14.920  21.383  0.00  0.00    +0.000 OA
ATOM     16  N   UNL     1       8.581  12.969  21.236  0.00  0.00    +0.000 N 
ATOM     17  C   UNL     1       5.869  14.087  23.580  0.00  0.00    +0.000 C 
ATOM     18  O   UNL     1       5.129  13.382  24.592  0.00  0.00    +0.000 OA
ATOM     19  C   UNL     1       5.992  12.625  25.441  0.00  0.00    +0.000 C 
ATOM     20  C   UNL     1       6.638  11.488  24.634  0.00  0.00    +0.000 C 
ATOM     21  H   UNL     1       9.088  13.336  20.444  0.00  0.00    +0.000 HD
ENDBRANCH   9  10
ENDBRANCH   1   9
BRANCH   2  22
ATOM     22  C   UNL     1       8.467   8.438  18.963  0.00  0.00    +0.000 C 
BRANCH  22  23
ATOM     23  N   UNL     1       7.953   7.418  18.016  0.00  0.00    +0.000 NA
ATOM     24  C   UNL     1       8.113   6.113  18.679  0.00  0.00    +0.000 C 
ATOM     25  C   UNL     1       7.537   4.958  17.867  0.00  0.00    +0.000 C 
ATOM     26  C   UNL     1       6.064   5.182  17.528  0.00  0.00    +0.000 C 
ATOM     27  C   UNL     1       5.925   6.544  16.839  0.00  0.00    +0.000 C 
ATOM     28  C   UNL     1       6.548   7.679  17.658  0.00  0.00    +0.000 C 
BRANCH  26  29
ATOM     29  C   UNL     1       5.160   5.097  18.764  0.00  0.00    +0.000 C 
ATOM     30  O   UNL     1       5.409   5.696  19.810  0.00  0.00    +0.000 OA
BRANCH  29  31
ATOM     31  C   UNL     1       3.921   4.273  18.737  0.00  0.00    +0.000 A 
ATOM     32  C   UNL     1       2.742   4.877  18.270  0.00  0.00    +0.000 A 
ATOM     33  C   UNL     1       1.566   4.132  18.146  0.00  0.00    +0.000 A 
ATOM     34  C   UNL     1       1.581   2.786  18.484  0.00  0.00    +0.000 A 
ATOM     35  F   UNL     1       0.464   2.062  18.342  0.00  0.00    +0.000 F 
ATOM     36  C   UNL     1       2.740   2.175  18.956  0.00  0.00    +0.000 A 
ATOM     37  C   UNL     1       3.915   2.918  19.087  0.00  0.00    +0.000 A 
ENDBRANCH  29  31
ENDBRANCH  26  29
ENDBRANCH  22  23
ENDBRANCH   2  22
TORSDOF 8
ENDMDL
MODEL 3
REMARK VINA RESULT:      -8.1      3.374      5.055
REMARK  Name = 
REMARK  11 active torsions:
REMARK  status: ('A' for Active; 'I' for Inactive)
REMARK    1  A    between atoms: C_1  and  C_2
REMARK    2  A    between atoms: C_2  and  C_3
REMARK    3  A    between atoms: C_2  and  C_4
REMARK    4  A    between atoms: C_2  and  C_5
REMARK    5  A    between atoms: C_5  and  N_6
REMARK    6  A    between atoms: N_6  and  C_7
REMARK    7  A    between atoms: C_7  and  C_8
REMARK    8  A    between atoms: C_19  and  C_21
REMARK    9  A    between atoms: C_21  and  N_22
REMARK   10  A    between atoms: C_25  and  C_26
REMARK   11  A    between atoms: C_26  and  C_28
REMARK                            x       y       z     vdW  Elec       q    Type
REMARK                         _______ _______ _______ _____ _____    ______ ____
ROOT
ATOM      1  N   UNL     1       1.183   9.721  19.939  0.00  0.00    +0.000 N 
ATOM      2  C   UNL     1       1.669   8.420  20.015  0.00  0.00    +0.000 C 
ATOM      3  O   UNL     1       2.105   7.968  21.080  0.00  0.00    +0.000 OA
ENDROOT
BRANCH   1   4
ATOM      4  C   UNL     1       0.989  10.398  21.228  0.00  0.00    +0.000 C 
BRANCH   4   6
ATOM      5  C   UNL     1       0.259   9.342  23.575  0.00  0.00    +0.000 C 
ATOM      6  C   UNL     1      -0.147   9.865  22.177  0.00  0.00    +0.000 C 
ATOM      7  C   UNL     1      -0.907   8.728  21.475  0.00  0.00    +0.000 C 
ATOM      8  C   UNL     1      -1.070  11.071  22.465  0.00  0.00    +0.000 C 
ENDBRANCH   4   6
ENDBRANCH   1   4
BRANCH   1   9
ATOM      9  C   UNL     1       0.866  10.450  18.672  0.00  0.00    +0.000 C 
BRANCH   9  10
ATOM     10  C   UNL     1      -0.630  10.770  18.392  0.00  0.00    +0.000 A 
ATOM     11  N   UNL     1      -1.354  11.487  19.206  0.00  0.00    +0.000 NA
ATOM     12  C   UNL     1      -2.713  11.576  18.939  0.00  0.00    +0.000 A 
ATOM     13  C   UNL     1      -3.334  10.861  17.984  0.00  0.00    +0.000 A 
ATOM     14  C   UNL     1      -2.484  10.128  17.044  0.00  0.00    +0.000 A 
ATOM     15  O   UNL     1      -2.956   9.476  16.119  0.00  0.00    +0.000 OA
ATOM     16  N   UNL     1      -1.149  10.198  17.266  0.00  0.00    +0.000 N 
ATOM     17  C   UNL     1      -4.819  10.775  17.813  0.00  0.00    +0.000 C 
ATOM     18  O   UNL     1      -5.537  11.421  18.879  0.00  0.00    +0.000 OA
ATOM     19  C   UNL     1      -4.963  12.687  19.205  0.00  0.00    +0.000 C 
ATOM     20  C   UNL     1      -3.566  12.477  19.811  0.00  0.00    +0.000 C 
ATOM     21  H   UNL     1      -0.556   9.689  16.627  0.00  0.00    +0.000 HD
ENDBRANCH   9  10
ENDBRANCH   1   9
BRANCH   2  22
ATOM     22  C   UNL     1       1.781   7.552  18.773  0.00  0.00    +0.000 C 
BRANCH  22  23
ATOM     23  N   UNL     1       2.160   6.138  19.017  0.00  0.00    +0.000 NA
ATOM     24  C   UNL     1       1.953   5.424  17.746  0.00  0.00    +0.000 C 
ATOM     25  C   UNL     1       2.392   3.964  17.805  0.00  0.00    +0.000 C 
ATOM     26  C   UNL     1       3.852   3.830  18.235  0.00  0.00    +0.000 C 
ATOM     27  C   UNL     1       4.041   4.579  19.559  0.00  0.00    +0.000 C 
ATOM     28  C   UNL     1       3.553   6.030  19.483  0.00  0.00    +0.000 C 
BRANCH  26  29
ATOM     29  C   UNL     1       4.827   4.345  17.169  0.00  0.00    +0.000 C 
ATOM     30  O   UNL     1       4.731   4.039  15.981  0.00  0.00    +0.000 OA
BRANCH  29  31
ATOM     31  C   UNL     1       5.944   5.254  17.543  0.00  0.00    +0.000 A 
ATOM     32  C   UNL     1       5.941   6.552  17.005  0.00  0.00    +0.000 A 
ATOM     33  C   UNL     1       6.918   7.477  17.383  0.00  0.00    +0.000 A 
ATOM     34  C   UNL     1       7.887   7.099  18.301  0.00  0.00    +0.000 A 
ATOM     35  F   UNL     1       8.810   7.989  18.685  0.00  0.00    +0.000 F 
ATOM     36  C   UNL     1       7.908   5.814  18.837  0.00  0.00    +0.000 A 
ATOM     37  C   UNL     1       6.937   4.884  18.458  0.00  0.00    +0.000 A 
ENDBRANCH  29  31
ENDBRANCH  26  29
ENDBRANCH  22  23
ENDBRANCH   2  22
TORSDOF 8
ENDMDL
MODEL 4
REMARK VINA RESULT:      -8.1      3.024      9.067
REMARK  Name = 
REMARK  11 active torsions:
REMARK  status: ('A' for Active; 'I' for Inactive)
REMARK    1  A    between atoms: C_1  and  C_2
REMARK    2  A    between atoms: C_2  and  C_3
REMARK    3  A    between atoms: C_2  and  C_4
REMARK    4  A    between atoms: C_2  and  C_5
REMARK    5  A    between atoms: C_5  and  N_6
REMARK    6  A    between atoms: N_6  and  C_7
REMARK    7  A    between atoms: C_7  and  C_8
REMARK    8  A    between atoms: C_19  and  C_21
REMARK    9  A    between atoms: C_21  and  N_22
REMARK   10  A    between atoms: C_25  and  C_26
REMARK   11  A    between atoms: C_26  and  C_28
REMARK                            x       y       z     vdW  Elec       q    Type
REMARK                         _______ _______ _______ _____ _____    ______ ____
ROOT
ATOM      1  N   UNL     1       2.059   6.364  20.054  0.00  0.00    +0.000 N 
ATOM      2  C   UNL     1       1.538   7.534  20.596  0.00  0.00    +0.000 C 
ATOM      3  O   UNL     1       1.176   7.578  21.777  0.00  0.00    +0.000 OA
ENDROOT
BRANCH   1   4
ATOM      4  C   UNL     1       2.379   5.308  21.023  0.00  0.00    +0.000 C 
BRANCH   4   6
ATOM      5  C   UNL     1       1.464   2.937  21.859  0.00  0.00    +0.000 C 
ATOM      6  C   UNL     1       1.924   3.838  20.689  0.00  0.00    +0.000 C 
ATOM      7  C   UNL     1       3.067   3.101  19.974  0.00  0.00    +0.000 C 
ATOM      8  C   UNL     1       0.677   3.968  19.784  0.00  0.00    +0.000 C 
ENDBRANCH   4   6
ENDBRANCH   1   4
BRANCH   1   9
ATOM      9  C   UNL     1       2.296   6.120  18.597  0.00  0.00    +0.000 C 
BRANCH   9  10
ATOM     10  C   UNL     1       3.767   5.897  18.145  0.00  0.00    +0.000 A 
ATOM     11  N   UNL     1       4.083   5.622  16.909  0.00  0.00    +0.000 NA
ATOM     12  C   UNL     1       5.404   5.286  16.649  0.00  0.00    +0.000 A 
ATOM     13  C   UNL     1       6.327   5.095  17.608  0.00  0.00    +0.000 A 
ATOM     14  C   UNL     1       5.961   5.484  18.972  0.00  0.00    +0.000 A 
ATOM     15  O   UNL     1       6.747   5.380  19.907  0.00  0.00    +0.000 OA
ATOM     16  N   UNL     1       4.699   5.948  19.141  0.00  0.00    +0.000 N 
ATOM     17  C   UNL     1       7.694   4.529  17.375  0.00  0.00    +0.000 C 
ATOM     18  O   UNL     1       7.876   4.060  16.028  0.00  0.00    +0.000 OA
ATOM     19  C   UNL     1       7.353   4.985  15.075  0.00  0.00    +0.000 C 
ATOM     20  C   UNL     1       5.824   5.053  15.211  0.00  0.00    +0.000 C 
ATOM     21  H   UNL     1       4.435   6.211  20.080  0.00  0.00    +0.000 HD
ENDBRANCH   9  10
ENDBRANCH   1   9
BRANCH   2  22
ATOM     22  C   UNL     1       1.298   8.760  19.730  0.00  0.00    +0.000 C 
BRANCH  22  23
ATOM     23  N   UNL     1       0.431   9.804  20.331  0.00  0.00    +0.000 NA
ATOM     24  C   UNL     1       1.289  10.978  20.560  0.00  0.00    +0.000 C 
ATOM     25  C   UNL     1       0.520  12.184  21.091  0.00  0.00    +0.000 C 
ATOM     26  C   UNL     1      -0.639  12.567  20.171  0.00  0.00    +0.000 C 
ATOM     27  C   UNL     1      -1.515  11.329  19.950  0.00  0.00    +0.000 C 
ATOM     28  C   UNL     1      -0.710  10.123  19.456  0.00  0.00    +0.000 C 
BRANCH  26  29
ATOM     29  C   UNL     1      -0.157  13.144  18.833  0.00  0.00    +0.000 C 
ATOM     30  O   UNL     1      -0.681  12.851  17.759  0.00  0.00    +0.000 OA
BRANCH  29  31
ATOM     31  C   UNL     1       0.981  14.100  18.791  0.00  0.00    +0.000 A 
ATOM     32  C   UNL     1       2.183  13.664  18.207  0.00  0.00    +0.000 A 
ATOM     33  C   UNL     1       3.261  14.542  18.066  0.00  0.00    +0.000 A 
ATOM     34  C   UNL     1       3.128  15.852  18.505  0.00  0.00    +0.000 A 
ATOM     35  F   UNL     1       4.148  16.703  18.348  0.00  0.00    +0.000 F 
ATOM     36  C   UNL     1       1.946  16.297  19.093  0.00  0.00    +0.000 A 
ATOM     37  C   UNL     1       0.868  15.421  19.241  0.00  0.00    +0.000 A 
ENDBRANCH  29  31
ENDBRANCH  26  29
ENDBRANCH  22  23
ENDBRANCH   2  22
TORSDOF 8
ENDMDL
MODEL 5
REMARK VINA RESULT:      -8.1      1.551      2.115
REMARK  Name = 
REMARK  11 active torsions:
REMARK  status: ('A' for Active; 'I' for Inactive)
REMARK    1  A    between atoms: C_1  and  C_2
REMARK    2  A    between atoms: C_2  and  C_3
REMARK    3  A    between atoms: C_2  and  C_4
REMARK    4  A    between atoms: C_2  and  C_5
REMARK    5  A    between atoms: C_5  and  N_6
REMARK    6  A    between atoms: N_6  and  C_7
REMARK    7  A    between atoms: C_7  and  C_8
REMARK    8  A    between atoms: C_19  and  C_21
REMARK    9  A    between atoms: C_21  and  N_22
REMARK   10  A    between atoms: C_25  and  C_26
REMARK   11  A    between atoms: C_26  and  C_28
REMARK                            x       y       z     vdW  Elec       q    Type
REMARK                         _______ _______ _______ _____ _____    ______ ____
ROOT
ATOM      1  N   UNL     1       0.423   9.427  19.845  0.00  0.00    +0.000 N 
ATOM      2  C   UNL     1       1.212   8.461  20.460  0.00  0.00    +0.000 C 
ATOM      3  O   UNL     1       1.097   8.225  21.669  0.00  0.00    +0.000 OA
ENDROOT
BRANCH   1   4
ATOM      4  C   UNL     1      -0.693   9.937  20.652  0.00  0.00    +0.000 C 
BRANCH   4   6
ATOM      5  C   UNL     1      -1.237  12.376  21.605  0.00  0.00    +0.000 C 
ATOM      6  C   UNL     1      -0.392  11.084  21.687  0.00  0.00    +0.000 C 
ATOM      7  C   UNL     1       1.082  11.502  21.570  0.00  0.00    +0.000 C 
ATOM      8  C   UNL     1      -0.707  10.499  23.083  0.00  0.00    +0.000 C 
ENDBRANCH   4   6
ENDBRANCH   1   4
BRANCH   1   9
ATOM      9  C   UNL     1       0.638   9.965  18.466  0.00  0.00    +0.000 C 
BRANCH   9  10
ATOM     10  C   UNL     1       1.052  11.458  18.343  0.00  0.00    +0.000 A 
ATOM     11  N   UNL     1       2.300  11.837  18.317  0.00  0.00    +0.000 NA
ATOM     12  C   UNL     1       2.554  13.200  18.365  0.00  0.00    +0.000 A 
ATOM     13  C   UNL     1       1.603  14.129  18.575  0.00  0.00    +0.000 A 
ATOM     14  C   UNL     1       0.211  13.678  18.524  0.00  0.00    +0.000 A 
ATOM     15  O   UNL     1      -0.726  14.456  18.669  0.00  0.00    +0.000 OA
ATOM     16  N   UNL     1       0.019  12.352  18.325  0.00  0.00    +0.000 N 
ATOM     17  C   UNL     1       1.871  15.577  18.843  0.00  0.00    +0.000 C 
ATOM     18  O   UNL     1       3.272  15.860  19.006  0.00  0.00    +0.000 OA
ATOM     19  C   UNL     1       4.060  15.195  18.019  0.00  0.00    +0.000 C 
ATOM     20  C   UNL     1       3.988  13.676  18.242  0.00  0.00    +0.000 C 
ATOM     21  H   UNL     1      -0.938  12.031  18.296  0.00  0.00    +0.000 HD
ENDBRANCH   9  10
ENDBRANCH   1   9
BRANCH   2  22
ATOM     22  C   UNL     1       2.310   7.742  19.695  0.00  0.00    +0.000 C 
BRANCH  22  23
ATOM     23  N   UNL     1       2.040   6.316  19.382  0.00  0.00    +0.000 NA
ATOM     24  C   UNL     1       2.577   6.075  18.033  0.00  0.00    +0.000 C 
ATOM     25  C   UNL     1       2.463   4.617  17.598  0.00  0.00    +0.000 C 
ATOM     26  C   UNL     1       3.137   3.675  18.594  0.00  0.00    +0.000 C 
ATOM     27  C   UNL     1       2.560   3.945  19.988  0.00  0.00    +0.000 C 
ATOM     28  C   UNL     1       2.652   5.423  20.381  0.00  0.00    +0.000 C 
BRANCH  26  29
ATOM     29  C   UNL     1       4.665   3.819  18.594  0.00  0.00    +0.000 C 
ATOM     30  O   UNL     1       5.350   3.612  19.595  0.00  0.00    +0.000 OA
BRANCH  29  31
ATOM     31  C   UNL     1       5.384   4.220  17.355  0.00  0.00    +0.000 A 
ATOM     32  C   UNL     1       6.306   5.277  17.446  0.00  0.00    +0.000 A 
ATOM     33  C   UNL     1       7.071   5.646  16.335  0.00  0.00    +0.000 A 
ATOM     34  C   UNL     1       6.911   4.952  15.145  0.00  0.00    +0.000 A 
ATOM     35  F   UNL     1       7.660   5.285  14.086  0.00  0.00    +0.000 F 
ATOM     36  C   UNL     1       5.997   3.908  15.037  0.00  0.00    +0.000 A 
ATOM     37  C   UNL     1       5.226   3.539  16.143  0.00  0.00    +0.000 A 
ENDBRANCH  29  31
ENDBRANCH  26  29
ENDBRANCH  22  23
ENDBRANCH   2  22
TORSDOF 8
ENDMDL
MODEL 6
REMARK VINA RESULT:      -8.1      0.960      1.265
REMARK  Name = 
REMARK  11 active torsions:
REMARK  status: ('A' for Active; 'I' for Inactive)
REMARK    1  A    between atoms: C_1  and  C_2
REMARK    2  A    between atoms: C_2  and  C_3
REMARK    3  A    between atoms: C_2  and  C_4
REMARK    4  A    between atoms: C_2  and  C_5
REMARK    5  A    between atoms: C_5  and  N_6
REMARK    6  A    between atoms: N_6  and  C_7
REMARK    7  A    between atoms: C_7  and  C_8
REMARK    8  A    between atoms: C_19  and  C_21
REMARK    9  A    between atoms: C_21  and  N_22
REMARK   10  A    between atoms: C_25  and  C_26
REMARK   11  A    between atoms: C_26  and  C_28
REMARK                            x       y       z     vdW  Elec       q    Type
REMARK                         _______ _______ _______ _____ _____    ______ ____
ROOT
ATOM      1  N   UNL     1       0.324  10.704  20.023  0.00  0.00    +0.000 N 
ATOM      2  C   UNL     1       0.466   9.476  20.660  0.00  0.00    +0.000 C 
ATOM      3  O   UNL     1      -0.390   9.073  21.455  0.00  0.00    +0.000 OA
ENDROOT
BRANCH   1   4
ATOM      4  C   UNL     1      -0.995  11.336  20.159  0.00  0.00    +0.000 C 
BRANCH   4   6
ATOM      5  C   UNL     1      -1.358  12.345  17.709  0.00  0.00    +0.000 C 
ATOM      6  C   UNL     1      -1.886  11.469  18.869  0.00  0.00    +0.000 C 
ATOM      7  C   UNL     1      -3.267  12.020  19.257  0.00  0.00    +0.000 C 
ATOM      8  C   UNL     1      -1.989  10.048  18.268  0.00  0.00    +0.000 C 
ENDBRANCH   4   6
ENDBRANCH   1   4
BRANCH   1   9
ATOM      9  C   UNL     1       1.394  11.400  19.243  0.00  0.00    +0.000 C 
BRANCH   9  10
ATOM     10  C   UNL     1       1.728  12.864  19.644  0.00  0.00    +0.000 A 
ATOM     11  N   UNL     1       1.451  13.879  18.874  0.00  0.00    +0.000 NA
ATOM     12  C   UNL     1       1.934  15.122  19.258  0.00  0.00    +0.000 A 
ATOM     13  C   UNL     1       2.778  15.307  20.289  0.00  0.00    +0.000 A 
ATOM     14  C   UNL     1       3.007  14.163  21.175  0.00  0.00    +0.000 A 
ATOM     15  O   UNL     1       3.731  14.245  22.161  0.00  0.00    +0.000 OA
ATOM     16  N   UNL     1       2.386  13.009  20.832  0.00  0.00    +0.000 N 
ATOM     17  C   UNL     1       3.479  16.594  20.596  0.00  0.00    +0.000 C 
ATOM     18  O   UNL     1       3.280  17.589  19.577  0.00  0.00    +0.000 OA
ATOM     19  C   UNL     1       1.917  17.643  19.156  0.00  0.00    +0.000 C 
ATOM     20  C   UNL     1       1.550  16.336  18.435  0.00  0.00    +0.000 C 
ATOM     21  H   UNL     1       2.546  12.213  21.432  0.00  0.00    +0.000 HD
ENDBRANCH   9  10
ENDBRANCH   1   9
BRANCH   2  22
ATOM     22  C   UNL     1       1.725   8.642  20.483  0.00  0.00    +0.000 C 
BRANCH  22  23
ATOM     23  N   UNL     1       1.531   7.332  19.815  0.00  0.00    +0.000 NA
ATOM     24  C   UNL     1       2.238   7.412  18.526  0.00  0.00    +0.000 C 
ATOM     25  C   UNL     1       2.215   6.097  17.752  0.00  0.00    +0.000 C 
ATOM     26  C   UNL     1       2.784   4.944  18.578  0.00  0.00    +0.000 C 
ATOM     27  C   UNL     1       2.031   4.882  19.911  0.00  0.00    +0.000 C 
ATOM     28  C   UNL     1       2.036   6.226  20.647  0.00  0.00    +0.000 C 
BRANCH  26  29
ATOM     29  C   UNL     1       4.295   5.077  18.805  0.00  0.00    +0.000 C 
ATOM     30  O   UNL     1       4.787   5.220  19.924  0.00  0.00    +0.000 OA
BRANCH  29  31
ATOM     31  C   UNL     1       5.238   5.032  17.655  0.00  0.00    +0.000 A 
ATOM     32  C   UNL     1       4.946   4.148  16.603  0.00  0.00    +0.000 A 
ATOM     33  C   UNL     1       5.749   4.119  15.459  0.00  0.00    +0.000 A 
ATOM     34  C   UNL     1       6.835   4.978  15.375  0.00  0.00    +0.000 A 
ATOM     35  F   UNL     1       7.592   4.972  14.270  0.00  0.00    +0.000 F 
ATOM     36  C   UNL     1       7.142   5.855  16.412  0.00  0.00    +0.000 A 
ATOM     37  C   UNL     1       6.345   5.883  17.559  0.00  0.00    +0.000 A 
ENDBRANCH  29  31
ENDBRANCH  26  29
ENDBRANCH  22  23
ENDBRANCH   2  22
TORSDOF 8
ENDMDL
MODEL 7
REMARK VINA RESULT:      -8.0      5.466     10.411
REMARK  Name = 
REMARK  11 active torsions:
REMARK  status: ('A' for Active; 'I' for Inactive)
REMARK    1  A    between atoms: C_1  and  C_2
REMARK    2  A    between atoms: C_2  and  C_3
REMARK    3  A    between atoms: C_2  and  C_4
REMARK    4  A    between atoms: C_2  and  C_5
REMARK    5  A    between atoms: C_5  and  N_6
REMARK    6  A    between atoms: N_6  and  C_7
REMARK    7  A    between atoms: C_7  and  C_8
REMARK    8  A    between atoms: C_19  and  C_21
REMARK    9  A    between atoms: C_21  and  N_22
REMARK   10  A    between atoms: C_25  and  C_26
REMARK   11  A    between atoms: C_26  and  C_28
REMARK                            x       y       z     vdW  Elec       q    Type
REMARK                         _______ _______ _______ _____ _____    ______ ____
ROOT
ATOM      1  N   UNL     1       7.216   6.167  17.897  0.00  0.00    +0.000 N 
ATOM      2  C   UNL     1       7.689   7.395  17.447  0.00  0.00    +0.000 C 
ATOM      3  O   UNL     1       8.261   7.491  16.355  0.00  0.00    +0.000 OA
ENDROOT
BRANCH   1   4
ATOM      4  C   UNL     1       7.211   5.089  16.900  0.00  0.00    +0.000 C 
BRANCH   4   6
ATOM      5  C   UNL     1       5.087   6.276  15.788  0.00  0.00    +0.000 C 
ATOM      6  C   UNL     1       6.032   5.054  15.857  0.00  0.00    +0.000 C 
ATOM      7  C   UNL     1       5.155   3.820  16.121  0.00  0.00    +0.000 C 
ATOM      8  C   UNL     1       6.693   4.992  14.461  0.00  0.00    +0.000 C 
ENDBRANCH   4   6
ENDBRANCH   1   4
BRANCH   1   9
ATOM      9  C   UNL     1       6.736   5.884  19.285  0.00  0.00    +0.000 C 
BRANCH   9  10
ATOM     10  C   UNL     1       5.441   5.037  19.431  0.00  0.00    +0.000 A 
ATOM     11  N   UNL     1       4.271   5.579  19.631  0.00  0.00    +0.000 NA
ATOM     12  C   UNL     1       3.211   4.726  19.903  0.00  0.00    +0.000 A 
ATOM     13  C   UNL     1       3.352   3.404  20.108  0.00  0.00    +0.000 A 
ATOM     14  C   UNL     1       4.660   2.819  19.802  0.00  0.00    +0.000 A 
ATOM     15  O   UNL     1       4.875   1.618  19.924  0.00  0.00    +0.000 OA
ATOM     16  N   UNL     1       5.620   3.684  19.395  0.00  0.00    +0.000 N 
ATOM     17  C   UNL     1       2.271   2.498  20.610  0.00  0.00    +0.000 C 
ATOM     18  O   UNL     1       1.087   3.215  21.003  0.00  0.00    +0.000 OA
ATOM     19  C   UNL     1       0.743   4.222  20.050  0.00  0.00    +0.000 C 
ATOM     20  C   UNL     1       1.822   5.316  20.047  0.00  0.00    +0.000 C 
ATOM     21  H   UNL     1       6.527   3.290  19.190  0.00  0.00    +0.000 HD
ENDBRANCH   9  10
ENDBRANCH   1   9
BRANCH   2  22
ATOM     22  C   UNL     1       7.616   8.633  18.325  0.00  0.00    +0.000 C 
BRANCH  22  23
ATOM     23  N   UNL     1       8.896   9.360  18.509  0.00  0.00    +0.000 NA
ATOM     24  C   UNL     1       8.882  10.479  17.553  0.00  0.00    +0.000 C 
ATOM     25  C   UNL     1      10.100  11.389  17.684  0.00  0.00    +0.000 C 
ATOM     26  C   UNL     1      10.252  11.930  19.105  0.00  0.00    +0.000 C 
ATOM     27  C   UNL     1      10.265  10.747  20.078  0.00  0.00    +0.000 C 
ATOM     28  C   UNL     1       9.052   9.828  19.897  0.00  0.00    +0.000 C 
BRANCH  26  29
ATOM     29  C   UNL     1       9.149  12.931  19.472  0.00  0.00    +0.000 C 
ATOM     30  O   UNL     1       8.262  13.257  18.683  0.00  0.00    +0.000 OA
BRANCH  29  31
ATOM     31  C   UNL     1       9.111  13.550  20.824  0.00  0.00    +0.000 A 
ATOM     32  C   UNL     1      10.080  14.522  21.127  0.00  0.00    +0.000 A 
ATOM     33  C   UNL     1      10.047  15.197  22.351  0.00  0.00    +0.000 A 
ATOM     34  C   UNL     1       9.042  14.898  23.260  0.00  0.00    +0.000 A 
ATOM     35  F   UNL     1       8.992  15.561  24.422  0.00  0.00    +0.000 F 
ATOM     36  C   UNL     1       8.080  13.933  22.977  0.00  0.00    +0.000 A 
ATOM     37  C   UNL     1       8.112  13.252  21.758  0.00  0.00    +0.000 A 
ENDBRANCH  29  31
ENDBRANCH  26  29
ENDBRANCH  22  23
ENDBRANCH   2  22
TORSDOF 8
ENDMDL
MODEL 8
REMARK VINA RESULT:      -8.0      0.865      1.778
REMARK  Name = 
REMARK  11 active torsions:
REMARK  status: ('A' for Active; 'I' for Inactive)
REMARK    1  A    between atoms: C_1  and  C_2
REMARK    2  A    between atoms: C_2  and  C_3
REMARK    3  A    between atoms: C_2  and  C_4
REMARK    4  A    between atoms: C_2  and  C_5
REMARK    5  A    between atoms: C_5  and  N_6
REMARK    6  A    between atoms: N_6  and  C_7
REMARK    7  A    between atoms: C_7  and  C_8
REMARK    8  A    between atoms: C_19  and  C_21
REMARK    9  A    between atoms: C_21  and  N_22
REMARK   10  A    between atoms: C_25  and  C_26
REMARK   11  A    between atoms: C_26  and  C_28
REMARK                            x       y       z     vdW  Elec       q    Type
REMARK                         _______ _______ _______ _____ _____    ______ ____
ROOT
ATOM      1  N   UNL     1       0.704  10.488  19.524  0.00  0.00    +0.000 N 
ATOM      2  C   UNL     1       0.862   9.263  20.163  0.00  0.00    +0.000 C 
ATOM      3  O   UNL     1       0.089   8.914  21.063  0.00  0.00    +0.000 OA
ENDROOT
BRANCH   1   4
ATOM      4  C   UNL     1      -0.556  11.188  19.806  0.00  0.00    +0.000 C 
BRANCH   4   6
ATOM      5  C   UNL     1      -3.028  11.745  18.946  0.00  0.00    +0.000 C 
ATOM      6  C   UNL     1      -1.553  11.421  18.610  0.00  0.00    +0.000 C 
ATOM      7  C   UNL     1      -1.560  10.180  17.703  0.00  0.00    +0.000 C 
ATOM      8  C   UNL     1      -1.040  12.671  17.858  0.00  0.00    +0.000 C 
ENDBRANCH   4   6
ENDBRANCH   1   4
BRANCH   1   9
ATOM      9  C   UNL     1       1.705  11.118  18.608  0.00  0.00    +0.000 C 
BRANCH   9  10
ATOM     10  C   UNL     1       2.260  12.512  19.013  0.00  0.00    +0.000 A 
ATOM     11  N   UNL     1       2.134  12.989  20.221  0.00  0.00    +0.000 NA
ATOM     12  C   UNL     1       2.525  14.304  20.430  0.00  0.00    +0.000 A 
ATOM     13  C   UNL     1       2.887  15.141  19.442  0.00  0.00    +0.000 A 
ATOM     14  C   UNL     1       3.090  14.554  18.115  0.00  0.00    +0.000 A 
ATOM     15  O   UNL     1       3.454  15.230  17.159  0.00  0.00    +0.000 OA
ATOM     16  N   UNL     1       2.835  13.228  18.003  0.00  0.00    +0.000 N 
ATOM     17  C   UNL     1       3.106  16.612  19.607  0.00  0.00    +0.000 C 
ATOM     18  O   UNL     1       2.740  17.082  20.917  0.00  0.00    +0.000 OA
ATOM     19  C   UNL     1       3.212  16.205  21.940  0.00  0.00    +0.000 C 
ATOM     20  C   UNL     1       2.479  14.858  21.841  0.00  0.00    +0.000 C 
ATOM     21  H   UNL     1       2.965  12.817  17.090  0.00  0.00    +0.000 HD
ENDBRANCH   9  10
ENDBRANCH   1   9
BRANCH   2  22
ATOM     22  C   UNL     1       2.048   8.364  19.853  0.00  0.00    +0.000 C 
BRANCH  22  23
ATOM     23  N   UNL     1       1.709   6.964  19.497  0.00  0.00    +0.000 NA
ATOM     24  C   UNL     1       2.311   6.710  18.178  0.00  0.00    +0.000 C 
ATOM     25  C   UNL     1       2.133   5.269  17.709  0.00  0.00    +0.000 C 
ATOM     26  C   UNL     1       2.687   4.271  18.725  0.00  0.00    +0.000 C 
ATOM     27  C   UNL     1       2.045   4.556  20.087  0.00  0.00    +0.000 C 
ATOM     28  C   UNL     1       2.203   6.018  20.513  0.00  0.00    +0.000 C 
BRANCH  26  29
ATOM     29  C   UNL     1       4.218   4.319  18.819  0.00  0.00    +0.000 C 
ATOM     30  O   UNL     1       4.821   4.165  19.880  0.00  0.00    +0.000 OA
BRANCH  29  31
ATOM     31  C   UNL     1       5.040   4.555  17.602  0.00  0.00    +0.000 A 
ATOM     32  C   UNL     1       5.960   5.618  17.628  0.00  0.00    +0.000 A 
ATOM     33  C   UNL     1       6.816   5.840  16.547  0.00  0.00    +0.000 A 
ATOM     34  C   UNL     1       6.751   4.994  15.449  0.00  0.00    +0.000 A 
ATOM     35  F   UNL     1       7.588   5.186  14.422  0.00  0.00    +0.000 F 
ATOM     36  C   UNL     1       5.840   3.941  15.405  0.00  0.00    +0.000 A 
ATOM     37  C   UNL     1       4.978   3.719  16.481  0.00  0.00    +0.000 A 
ENDBRANCH  29  31
ENDBRANCH  26  29
ENDBRANCH  22  23
ENDBRANCH   2  22
TORSDOF 8
ENDMDL
MODEL 9
REMARK VINA RESULT:      -8.0      3.872      9.502
REMARK  Name = 
REMARK  11 active torsions:
REMARK  status: ('A' for Active; 'I' for Inactive)
REMARK    1  A    between atoms: C_1  and  C_2
REMARK    2  A    between atoms: C_2  and  C_3
REMARK    3  A    between atoms: C_2  and  C_4
REMARK    4  A    between atoms: C_2  and  C_5
REMARK    5  A    between atoms: C_5  and  N_6
REMARK    6  A    between atoms: N_6  and  C_7
REMARK    7  A    between atoms: C_7  and  C_8
REMARK    8  A    between atoms: C_19  and  C_21
REMARK    9  A    between atoms: C_21  and  N_22
REMARK   10  A    between atoms: C_25  and  C_26
REMARK   11  A    between atoms: C_26  and  C_28
REMARK                            x       y       z     vdW  Elec       q    Type
REMARK                         _______ _______ _______ _____ _____    ______ ____
ROOT
ATOM      1  N   UNL     1       2.123   6.245  19.756  0.00  0.00    +0.000 N 
ATOM      2  C   UNL     1       1.756   7.467  20.309  0.00  0.00    +0.000 C 
ATOM      3  O   UNL     1       1.625   7.595  21.532  0.00  0.00    +0.000 OA
ENDROOT
BRANCH   1   4
ATOM      4  C   UNL     1       2.583   5.232  20.714  0.00  0.00    +0.000 C 
BRANCH   4   6
ATOM      5  C   UNL     1       2.878   2.823  19.587  0.00  0.00    +0.000 C 
ATOM      6  C   UNL     1       2.074   3.754  20.525  0.00  0.00    +0.000 C 
ATOM      7  C   UNL     1       0.627   3.775  20.008  0.00  0.00    +0.000 C 
ATOM      8  C   UNL     1       2.170   3.084  21.915  0.00  0.00    +0.000 C 
ENDBRANCH   4   6
ENDBRANCH   1   4
BRANCH   1   9
ATOM      9  C   UNL     1       2.072   5.909  18.299  0.00  0.00    +0.000 C 
BRANCH   9  10
ATOM     10  C   UNL     1       3.420   5.894  17.526  0.00  0.00    +0.000 A 
ATOM     11  N   UNL     1       3.810   4.868  16.821  0.00  0.00    +0.000 NA
ATOM     12  C   UNL     1       5.097   4.901  16.304  0.00  0.00    +0.000 A 
ATOM     13  C   UNL     1       5.997   5.855  16.604  0.00  0.00    +0.000 A 
ATOM     14  C   UNL     1       5.505   7.028  17.332  0.00  0.00    +0.000 A 
ATOM     15  O   UNL     1       6.241   7.965  17.620  0.00  0.00    +0.000 OA
ATOM     16  N   UNL     1       4.196   7.007  17.683  0.00  0.00    +0.000 N 
ATOM     17  C   UNL     1       7.447   5.806  16.236  0.00  0.00    +0.000 C 
ATOM     18  O   UNL     1       7.827   4.548  15.652  0.00  0.00    +0.000 OA
ATOM     19  C   UNL     1       6.868   4.104  14.693  0.00  0.00    +0.000 C 
ATOM     20  C   UNL     1       5.547   3.767  15.404  0.00  0.00    +0.000 C 
ATOM     21  H   UNL     1       3.851   7.807  18.193  0.00  0.00    +0.000 HD
ENDBRANCH   9  10
ENDBRANCH   1   9
BRANCH   2  22
ATOM     22  C   UNL     1       1.399   8.652  19.426  0.00  0.00    +0.000 C 
BRANCH  22  23
ATOM     23  N   UNL     1       0.962   9.874  20.146  0.00  0.00    +0.000 NA
ATOM     24  C   UNL     1       1.279  11.012  19.269  0.00  0.00    +0.000 C 
ATOM     25  C   UNL     1       0.799  12.348  19.829  0.00  0.00    +0.000 C 
ATOM     26  C   UNL     1      -0.701  12.331  20.126  0.00  0.00    +0.000 C 
ATOM     27  C   UNL     1      -1.002  11.139  21.041  0.00  0.00    +0.000 C 
ATOM     28  C   UNL     1      -0.474   9.818  20.473  0.00  0.00    +0.000 C 
BRANCH  26  29
ATOM     29  C   UNL     1      -1.549  12.273  18.850  0.00  0.00    +0.000 C 
ATOM     30  O   UNL     1      -1.083  12.494  17.733  0.00  0.00    +0.000 OA
BRANCH  29  31
ATOM     31  C   UNL     1      -2.997  11.937  18.922  0.00  0.00    +0.000 A 
ATOM     32  C   UNL     1      -3.783  12.620  19.865  0.00  0.00    +0.000 A 
ATOM     33  C   UNL     1      -5.163  12.406  19.926  0.00  0.00    +0.000 A 
ATOM     34  C   UNL     1      -5.747  11.514  19.038  0.00  0.00    +0.000 A 
ATOM     35  F   UNL     1      -7.072  11.325  19.075  0.00  0.00    +0.000 F 
ATOM     36  C   UNL     1      -4.981  10.824  18.102  0.00  0.00    +0.000 A 
ATOM     37  C   UNL     1      -3.601  11.030  18.042  0.00  0.00    +0.000 A 
ENDBRANCH  29  31
ENDBRANCH  26  29
ENDBRANCH  22  23
ENDBRANCH   2  22
TORSDOF 8
ENDMDL
