MODEL 1
REMARK VINA RESULT:      -7.5      0.000      0.000
REMARK  Name = 
REMARK  10 active torsions:
REMARK  status: ('A' for Active; 'I' for Inactive)
REMARK    1  A    between atoms: N_3  and  N_4
REMARK    2  A    between atoms: C_5  and  C_6
REMARK    3  A    between atoms: C_9  and  C_10
REMARK    4  A    between atoms: C_13  and  C_14
REMARK    5  A    between atoms: C_14  and  O_16
REMARK    6  A    between atoms: N_20  and  N_21
REMARK    7  A    between atoms: C_22  and  C_23
REMARK    8  A    between atoms: C_26  and  C_27
REMARK    9  A    between atoms: C_30  and  C_31
REMARK   10  A    between atoms: C_31  and  O_33
REMARK                            x       y       z     vdW  Elec       q    Type
REMARK                         _______ _______ _______ _____ _____    ______ ____
ROOT
ATOM      1  O   UNL     1       1.338   8.776  19.866  0.00  0.00    +0.000 OA
ATOM      2  C   UNL     1       1.053   8.185  20.884  0.00  0.00    +0.000 C 
ATOM      3  N   UNL     1       0.214   8.686  21.890  0.00  0.00    +0.000 N 
ATOM      4  N   UNL     1       1.503   6.892  21.167  0.00  0.00    +0.000 N 
ATOM      5  H   UNL     1       0.065   8.168  22.740  0.00  0.00    +0.000 HD
ATOM      6  H   UNL     1       1.310   6.508  22.076  0.00  0.00    +0.000 HD
ENDROOT
BRANCH   3   7
ATOM      7  N   UNL     1      -0.312   9.955  21.753  0.00  0.00    +0.000 NA
ATOM      8  C   UNL     1      -0.749  10.579  22.809  0.00  0.00    +0.000 C 
BRANCH   8   9
ATOM      9  C   UNL     1      -1.295  11.917  22.683  0.00  0.00    +0.000 A 
ATOM     10  C   UNL     1      -2.210  12.594  23.464  0.00  0.00    +0.000 A 
ATOM     11  C   UNL     1      -2.416  13.857  22.864  0.00  0.00    +0.000 A 
ATOM     12  C   UNL     1      -1.629  13.898  21.735  0.00  0.00    +0.000 A 
ATOM     13  O   UNL     1      -0.920  12.722  21.632  0.00  0.00    +0.000 OA
BRANCH  12  14
ATOM     14  C   UNL     1      -1.412  14.924  20.711  0.00  0.00    +0.000 A 
ATOM     15  C   UNL     1      -2.268  16.032  20.603  0.00  0.00    +0.000 A 
ATOM     16  C   UNL     1      -2.006  17.054  19.674  0.00  0.00    +0.000 A 
ATOM     17  C   UNL     1      -0.904  16.981  18.809  0.00  0.00    +0.000 A 
ATOM     18  C   UNL     1      -0.061  15.867  18.895  0.00  0.00    +0.000 A 
ATOM     19  C   UNL     1      -0.322  14.854  19.836  0.00  0.00    +0.000 A 
BRANCH  17  20
ATOM     20  C   UNL     1      -0.673  18.134  17.883  0.00  0.00    +0.000 C 
ATOM     21  O   UNL     1      -1.579  18.631  17.231  0.00  0.00    +0.000 OA
BRANCH  20  22
ATOM     22  O   UNL     1       0.602  18.560  17.767  0.00  0.00    +0.000 OA
ATOM     23  H   UNL     1       1.043  18.438  16.910  0.00  0.00    +0.000 HD
ENDBRANCH  20  22
ENDBRANCH  17  20
ENDBRANCH  12  14
ENDBRANCH   8   9
ENDBRANCH   3   7
BRANCH   4  24
ATOM     24  N   UNL     1       2.358   6.240  20.329  0.00  0.00    +0.000 NA
ATOM     25  C   UNL     1       2.048   5.018  20.006  0.00  0.00    +0.000 C 
BRANCH  25  26
ATOM     26  C   UNL     1       2.929   4.254  19.163  0.00  0.00    +0.000 A 
ATOM     27  C   UNL     1       3.267   2.921  19.231  0.00  0.00    +0.000 A 
ATOM     28  C   UNL     1       4.190   2.679  18.194  0.00  0.00    +0.000 A 
ATOM     29  C   UNL     1       4.372   3.873  17.531  0.00  0.00    +0.000 A 
ATOM     30  O   UNL     1       3.582   4.839  18.106  0.00  0.00    +0.000 OA
BRANCH  29  31
ATOM     31  C   UNL     1       5.179   4.238  16.367  0.00  0.00    +0.000 A 
ATOM     32  C   UNL     1       6.445   4.824  16.517  0.00  0.00    +0.000 A 
ATOM     33  C   UNL     1       7.253   5.075  15.395  0.00  0.00    +0.000 A 
ATOM     34  C   UNL     1       6.801   4.779  14.101  0.00  0.00    +0.000 A 
ATOM     35  C   UNL     1       5.528   4.219  13.946  0.00  0.00    +0.000 A 
ATOM     36  C   UNL     1       4.730   3.961  15.073  0.00  0.00    +0.000 A 
BRANCH  34  37
ATOM     37  C   UNL     1       7.739   5.030  12.964  0.00  0.00    +0.000 C 
ATOM     38  O   UNL     1       7.576   4.519  11.868  0.00  0.00    +0.000 OA
BRANCH  37  39
ATOM     39  O   UNL     1       8.808   5.810  13.233  0.00  0.00    +0.000 OA
ATOM     40  H   UNL     1       8.643   6.735  13.481  0.00  0.00    +0.000 HD
ENDBRANCH  37  39
ENDBRANCH  34  37
ENDBRANCH  29  31
ENDBRANCH  25  26
ENDBRANCH   4  24
TORSDOF 10
ENDMDL
MODEL 2
REMARK VINA RESULT:      -6.9      2.357      2.897
REMARK  Name = 
REMARK  10 active torsions:
REMARK  status: ('A' for Active; 'I' for Inactive)
REMARK    1  A    between atoms: N_3  and  N_4
REMARK    2  A    between atoms: C_5  and  C_6
REMARK    3  A    between atoms: C_9  and  C_10
REMARK    4  A    between atoms: C_13  and  C_14
REMARK    5  A    between atoms: C_14  and  O_16
REMARK    6  A    between atoms: N_20  and  N_21
REMARK    7  A    between atoms: C_22  and  C_23
REMARK    8  A    between atoms: C_26  and  C_27
REMARK    9  A    between atoms: C_30  and  C_31
REMARK   10  A    between atoms: C_31  and  O_33
REMARK                            x       y       z     vdW  Elec       q    Type
REMARK                         _______ _______ _______ _____ _____    ______ ____
ROOT
ATOM      1  O   UNL     1       1.318   9.318  20.037  0.00  0.00    +0.000 OA
ATOM      2  C   UNL     1       0.829   8.674  20.939  0.00  0.00    +0.000 C 
ATOM      3  N   UNL     1      -0.180   9.139  21.795  0.00  0.00    +0.000 N 
ATOM      4  N   UNL     1       1.190   7.353  21.216  0.00  0.00    +0.000 N 
ATOM      5  H   UNL     1      -0.501   8.575  22.565  0.00  0.00    +0.000 HD
ATOM      6  H   UNL     1       0.817   6.920  22.043  0.00  0.00    +0.000 HD
ENDROOT
BRANCH   3   7
ATOM      7  N   UNL     1      -0.645  10.431  21.644  0.00  0.00    +0.000 NA
ATOM      8  C   UNL     1      -0.908  11.139  22.704  0.00  0.00    +0.000 C 
BRANCH   8   9
ATOM      9  C   UNL     1      -1.387  12.500  22.563  0.00  0.00    +0.000 A 
ATOM     10  C   UNL     1      -0.927  13.680  23.113  0.00  0.00    +0.000 A 
ATOM     11  C   UNL     1      -1.789  14.709  22.673  0.00  0.00    +0.000 A 
ATOM     12  C   UNL     1      -2.749  14.118  21.881  0.00  0.00    +0.000 A 
ATOM     13  O   UNL     1      -2.493  12.768  21.790  0.00  0.00    +0.000 OA
BRANCH  12  14
ATOM     14  C   UNL     1      -3.900  14.652  21.148  0.00  0.00    +0.000 A 
ATOM     15  C   UNL     1      -4.000  16.022  20.855  0.00  0.00    +0.000 A 
ATOM     16  C   UNL     1      -5.064  16.515  20.079  0.00  0.00    +0.000 A 
ATOM     17  C   UNL     1      -6.070  15.661  19.605  0.00  0.00    +0.000 A 
ATOM     18  C   UNL     1      -5.989  14.298  19.914  0.00  0.00    +0.000 A 
ATOM     19  C   UNL     1      -4.914  13.809  20.680  0.00  0.00    +0.000 A 
BRANCH  17  20
ATOM     20  C   UNL     1      -7.140  16.260  18.748  0.00  0.00    +0.000 C 
ATOM     21  O   UNL     1      -7.680  17.318  19.034  0.00  0.00    +0.000 OA
BRANCH  20  22
ATOM     22  O   UNL     1      -7.516  15.540  17.670  0.00  0.00    +0.000 OA
ATOM     23  H   UNL     1      -7.712  16.022  16.850  0.00  0.00    +0.000 HD
ENDBRANCH  20  22
ENDBRANCH  17  20
ENDBRANCH  12  14
ENDBRANCH   8   9
ENDBRANCH   3   7
BRANCH   4  24
ATOM     24  N   UNL     1       2.179   6.727  20.517  0.00  0.00    +0.000 NA
ATOM     25  C   UNL     1       2.056   5.443  20.346  0.00  0.00    +0.000 C 
BRANCH  25  26
ATOM     26  C   UNL     1       3.087   4.709  19.659  0.00  0.00    +0.000 A 
ATOM     27  C   UNL     1       3.697   3.525  20.005  0.00  0.00    +0.000 A 
ATOM     28  C   UNL     1       4.660   3.255  19.012  0.00  0.00    +0.000 A 
ATOM     29  C   UNL     1       4.592   4.282  18.096  0.00  0.00    +0.000 A 
ATOM     30  O   UNL     1       3.610   5.166  18.475  0.00  0.00    +0.000 OA
BRANCH  29  31
ATOM     31  C   UNL     1       5.313   4.537  16.850  0.00  0.00    +0.000 A 
ATOM     32  C   UNL     1       6.122   5.674  16.700  0.00  0.00    +0.000 A 
ATOM     33  C   UNL     1       6.891   5.855  15.538  0.00  0.00    +0.000 A 
ATOM     34  C   UNL     1       6.843   4.924  14.489  0.00  0.00    +0.000 A 
ATOM     35  C   UNL     1       6.017   3.803  14.625  0.00  0.00    +0.000 A 
ATOM     36  C   UNL     1       5.259   3.623  15.794  0.00  0.00    +0.000 A 
BRANCH  34  37
ATOM     37  C   UNL     1       7.727   5.163  13.308  0.00  0.00    +0.000 C 
ATOM     38  O   UNL     1       8.704   5.892  13.371  0.00  0.00    +0.000 OA
BRANCH  37  39
ATOM     39  O   UNL     1       7.353   4.572  12.153  0.00  0.00    +0.000 OA
ATOM     40  H   UNL     1       6.706   5.036  11.596  0.00  0.00    +0.000 HD
ENDBRANCH  37  39
ENDBRANCH  34  37
ENDBRANCH  29  31
ENDBRANCH  25  26
ENDBRANCH   4  24
TORSDOF 10
ENDMDL
MODEL 3
REMARK VINA RESULT:      -6.8      0.465      1.025
REMARK  Name = 
REMARK  10 active torsions:
REMARK  status: ('A' for Active; 'I' for Inactive)
REMARK    1  A    between atoms: N_3  and  N_4
REMARK    2  A    between atoms: C_5  and  C_6
REMARK    3  A    between atoms: C_9  and  C_10
REMARK    4  A    between atoms: C_13  and  C_14
REMARK    5  A    between atoms: C_14  and  O_16
REMARK    6  A    between atoms: N_20  and  N_21
REMARK    7  A    between atoms: C_22  and  C_23
REMARK    8  A    between atoms: C_26  and  C_27
REMARK    9  A    between atoms: C_30  and  C_31
REMARK   10  A    between atoms: C_31  and  O_33
REMARK                            x       y       z     vdW  Elec       q    Type
REMARK                         _______ _______ _______ _____ _____    ______ ____
ROOT
ATOM      1  O   UNL     1       1.237   8.732  19.865  0.00  0.00    +0.000 OA
ATOM      2  C   UNL     1       1.063   8.151  20.914  0.00  0.00    +0.000 C 
ATOM      3  N   UNL     1       0.320   8.655  21.992  0.00  0.00    +0.000 N 
ATOM      4  N   UNL     1       1.558   6.869  21.168  0.00  0.00    +0.000 N 
ATOM      5  H   UNL     1       0.265   8.147  22.859  0.00  0.00    +0.000 HD
ATOM      6  H   UNL     1       1.463   6.495  22.096  0.00  0.00    +0.000 HD
ENDROOT
BRANCH   3   7
ATOM      7  N   UNL     1      -0.236   9.915  21.891  0.00  0.00    +0.000 NA
ATOM      8  C   UNL     1      -0.595  10.540  22.975  0.00  0.00    +0.000 C 
BRANCH   8   9
ATOM      9  C   UNL     1      -1.171  11.867  22.887  0.00  0.00    +0.000 A 
ATOM     10  C   UNL     1      -2.128  12.488  23.665  0.00  0.00    +0.000 A 
ATOM     11  C   UNL     1      -2.348  13.769  23.111  0.00  0.00    +0.000 A 
ATOM     12  C   UNL     1      -1.527  13.878  22.012  0.00  0.00    +0.000 A 
ATOM     13  O   UNL     1      -0.785  12.725  21.884  0.00  0.00    +0.000 OA
BRANCH  12  14
ATOM     14  C   UNL     1      -1.304  14.951  21.039  0.00  0.00    +0.000 A 
ATOM     15  C   UNL     1      -0.014  15.245  20.568  0.00  0.00    +0.000 A 
ATOM     16  C   UNL     1       0.183  16.219  19.572  0.00  0.00    +0.000 A 
ATOM     17  C   UNL     1      -0.896  16.945  19.047  0.00  0.00    +0.000 A 
ATOM     18  C   UNL     1      -2.181  16.674  19.531  0.00  0.00    +0.000 A 
ATOM     19  C   UNL     1      -2.372  15.690  20.518  0.00  0.00    +0.000 A 
BRANCH  17  20
ATOM     20  C   UNL     1      -0.603  17.930  17.959  0.00  0.00    +0.000 C 
ATOM     21  O   UNL     1       0.532  18.127  17.554  0.00  0.00    +0.000 OA
BRANCH  20  22
ATOM     22  O   UNL     1      -1.657  18.628  17.486  0.00  0.00    +0.000 OA
ATOM     23  H   UNL     1      -1.487  19.516  17.131  0.00  0.00    +0.000 HD
ENDBRANCH  20  22
ENDBRANCH  17  20
ENDBRANCH  12  14
ENDBRANCH   8   9
ENDBRANCH   3   7
BRANCH   4  24
ATOM     24  N   UNL     1       2.336   6.217  20.257  0.00  0.00    +0.000 NA
ATOM     25  C   UNL     1       2.475   4.933  20.415  0.00  0.00    +0.000 C 
BRANCH  25  26
ATOM     26  C   UNL     1       3.320   4.187  19.519  0.00  0.00    +0.000 A 
ATOM     27  C   UNL     1       3.696   2.864  19.569  0.00  0.00    +0.000 A 
ATOM     28  C   UNL     1       4.558   2.642  18.476  0.00  0.00    +0.000 A 
ATOM     29  C   UNL     1       4.665   3.837  17.799  0.00  0.00    +0.000 A 
ATOM     30  O   UNL     1       3.887   4.785  18.421  0.00  0.00    +0.000 OA
BRANCH  29  31
ATOM     31  C   UNL     1       5.385   4.217  16.585  0.00  0.00    +0.000 A 
ATOM     32  C   UNL     1       6.093   5.427  16.510  0.00  0.00    +0.000 A 
ATOM     33  C   UNL     1       6.865   5.733  15.376  0.00  0.00    +0.000 A 
ATOM     34  C   UNL     1       6.919   4.857  14.282  0.00  0.00    +0.000 A 
ATOM     35  C   UNL     1       6.192   3.662  14.343  0.00  0.00    +0.000 A 
ATOM     36  C   UNL     1       5.431   3.357  15.484  0.00  0.00    +0.000 A 
BRANCH  34  37
ATOM     37  C   UNL     1       7.801   5.232  13.135  0.00  0.00    +0.000 C 
ATOM     38  O   UNL     1       7.523   4.938  11.984  0.00  0.00    +0.000 OA
BRANCH  37  39
ATOM     39  O   UNL     1       8.951   5.867  13.450  0.00  0.00    +0.000 OA
ATOM     40  H   UNL     1       9.495   6.207  12.720  0.00  0.00    +0.000 HD
ENDBRANCH  37  39
ENDBRANCH  34  37
ENDBRANCH  29  31
ENDBRANCH  25  26
ENDBRANCH   4  24
TORSDOF 10
ENDMDL
MODEL 4
REMARK VINA RESULT:      -6.7      4.573      5.642
REMARK  Name = 
REMARK  10 active torsions:
REMARK  status: ('A' for Active; 'I' for Inactive)
REMARK    1  A    between atoms: N_3  and  N_4
REMARK    2  A    between atoms: C_5  and  C_6
REMARK    3  A    between atoms: C_9  and  C_10
REMARK    4  A    between atoms: C_13  and  C_14
REMARK    5  A    between atoms: C_14  and  O_16
REMARK    6  A    between atoms: N_20  and  N_21
REMARK    7  A    between atoms: C_22  and  C_23
REMARK    8  A    between atoms: C_26  and  C_27
REMARK    9  A    between atoms: C_30  and  C_31
REMARK   10  A    between atoms: C_31  and  O_33
REMARK                            x       y       z     vdW  Elec       q    Type
REMARK                         _______ _______ _______ _____ _____    ______ ____
ROOT
ATOM      1  O   UNL     1       1.456  11.190  20.041  0.00  0.00    +0.000 OA
ATOM      2  C   UNL     1       0.647  11.163  20.943  0.00  0.00    +0.000 C 
ATOM      3  N   UNL     1       0.236  12.284  21.679  0.00  0.00    +0.000 N 
ATOM      4  N   UNL     1      -0.015   9.999  21.340  0.00  0.00    +0.000 N 
ATOM      5  H   UNL     1      -0.395  12.185  22.456  0.00  0.00    +0.000 HD
ATOM      6  H   UNL     1      -0.593  10.035  22.161  0.00  0.00    +0.000 HD
ENDROOT
BRANCH   3   7
ATOM      7  N   UNL     1       0.801  13.513  21.401  0.00  0.00    +0.000 NA
ATOM      8  C   UNL     1       1.979  13.560  20.846  0.00  0.00    +0.000 C 
BRANCH   8   9
ATOM      9  C   UNL     1       2.582  14.842  20.539  0.00  0.00    +0.000 A 
ATOM     10  C   UNL     1       2.037  16.110  20.503  0.00  0.00    +0.000 A 
ATOM     11  C   UNL     1       3.065  16.994  20.106  0.00  0.00    +0.000 A 
ATOM     12  C   UNL     1       4.194  16.233  19.903  0.00  0.00    +0.000 A 
ATOM     13  O   UNL     1       3.911  14.916  20.191  0.00  0.00    +0.000 OA
BRANCH  12  14
ATOM     14  C   UNL     1       5.559  16.569  19.489  0.00  0.00    +0.000 A 
ATOM     15  C   UNL     1       6.238  17.661  20.053  0.00  0.00    +0.000 A 
ATOM     16  C   UNL     1       7.577  17.927  19.713  0.00  0.00    +0.000 A 
ATOM     17  C   UNL     1       8.258  17.133  18.779  0.00  0.00    +0.000 A 
ATOM     18  C   UNL     1       7.577  16.059  18.195  0.00  0.00    +0.000 A 
ATOM     19  C   UNL     1       6.243  15.790  18.550  0.00  0.00    +0.000 A 
BRANCH  17  20
ATOM     20  C   UNL     1       9.694  17.459  18.510  0.00  0.00    +0.000 C 
ATOM     21  O   UNL     1      10.451  17.821  19.397  0.00  0.00    +0.000 OA
BRANCH  20  22
ATOM     22  O   UNL     1      10.092  17.383  17.222  0.00  0.00    +0.000 OA
ATOM     23  H   UNL     1       9.857  16.584  16.723  0.00  0.00    +0.000 HD
ENDBRANCH  20  22
ENDBRANCH  17  20
ENDBRANCH  12  14
ENDBRANCH   8   9
ENDBRANCH   3   7
BRANCH   4  24
ATOM     24  N   UNL     1       0.268   8.793  20.770  0.00  0.00    +0.000 NA
ATOM     25  C   UNL     1       1.439   8.285  21.022  0.00  0.00    +0.000 C 
BRANCH  25  26
ATOM     26  C   UNL     1       1.825   7.037  20.416  0.00  0.00    +0.000 A 
ATOM     27  C   UNL     1       1.487   5.751  20.770  0.00  0.00    +0.000 A 
ATOM     28  C   UNL     1       2.155   4.891  19.876  0.00  0.00    +0.000 A 
ATOM     29  C   UNL     1       2.866   5.688  19.007  0.00  0.00    +0.000 A 
ATOM     30  O   UNL     1       2.649   7.009  19.318  0.00  0.00    +0.000 OA
BRANCH  29  31
ATOM     31  C   UNL     1       3.717   5.376  17.859  0.00  0.00    +0.000 A 
ATOM     32  C   UNL     1       4.345   6.394  17.123  0.00  0.00    +0.000 A 
ATOM     33  C   UNL     1       5.241   6.078  16.088  0.00  0.00    +0.000 A 
ATOM     34  C   UNL     1       5.503   4.743  15.744  0.00  0.00    +0.000 A 
ATOM     35  C   UNL     1       4.859   3.727  16.459  0.00  0.00    +0.000 A 
ATOM     36  C   UNL     1       3.972   4.050  17.499  0.00  0.00    +0.000 A 
BRANCH  34  37
ATOM     37  C   UNL     1       6.506   4.490  14.665  0.00  0.00    +0.000 C 
ATOM     38  O   UNL     1       6.336   3.629  13.817  0.00  0.00    +0.000 OA
BRANCH  37  39
ATOM     39  O   UNL     1       7.635   5.229  14.713  0.00  0.00    +0.000 OA
ATOM     40  H   UNL     1       8.473   4.765  14.875  0.00  0.00    +0.000 HD
ENDBRANCH  37  39
ENDBRANCH  34  37
ENDBRANCH  29  31
ENDBRANCH  25  26
ENDBRANCH   4  24
TORSDOF 10
ENDMDL
MODEL 5
REMARK VINA RESULT:      -6.7      2.566      3.117
REMARK  Name = 
REMARK  10 active torsions:
REMARK  status: ('A' for Active; 'I' for Inactive)
REMARK    1  A    between atoms: N_3  and  N_4
REMARK    2  A    between atoms: C_5  and  C_6
REMARK    3  A    between atoms: C_9  and  C_10
REMARK    4  A    between atoms: C_13  and  C_14
REMARK    5  A    between atoms: C_14  and  O_16
REMARK    6  A    between atoms: N_20  and  N_21
REMARK    7  A    between atoms: C_22  and  C_23
REMARK    8  A    between atoms: C_26  and  C_27
REMARK    9  A    between atoms: C_30  and  C_31
REMARK   10  A    between atoms: C_31  and  O_33
REMARK                            x       y       z     vdW  Elec       q    Type
REMARK                         _______ _______ _______ _____ _____    ______ ____
ROOT
ATOM      1  O   UNL     1       1.067   8.364  19.778  0.00  0.00    +0.000 OA
ATOM      2  C   UNL     1       1.043   7.879  20.887  0.00  0.00    +0.000 C 
ATOM      3  N   UNL     1       0.305   8.389  21.966  0.00  0.00    +0.000 N 
ATOM      4  N   UNL     1       1.727   6.707  21.223  0.00  0.00    +0.000 N 
ATOM      5  H   UNL     1       0.376   7.972  22.879  0.00  0.00    +0.000 HD
ATOM      6  H   UNL     1       1.744   6.424  22.187  0.00  0.00    +0.000 HD
ENDROOT
BRANCH   3   7
ATOM      7  N   UNL     1      -0.427   9.546  21.789  0.00  0.00    +0.000 NA
ATOM      8  C   UNL     1      -0.276  10.529  22.629  0.00  0.00    +0.000 C 
BRANCH   8   9
ATOM      9  C   UNL     1      -1.031  11.754  22.451  0.00  0.00    +0.000 A 
ATOM     10  C   UNL     1      -0.954  12.964  23.112  0.00  0.00    +0.000 A 
ATOM     11  C   UNL     1      -1.950  13.802  22.562  0.00  0.00    +0.000 A 
ATOM     12  C   UNL     1      -2.603  13.070  21.596  0.00  0.00    +0.000 A 
ATOM     13  O   UNL     1      -2.028  11.822  21.506  0.00  0.00    +0.000 OA
BRANCH  12  14
ATOM     14  C   UNL     1      -3.712  13.383  20.691  0.00  0.00    +0.000 A 
ATOM     15  C   UNL     1      -4.035  12.534  19.620  0.00  0.00    +0.000 A 
ATOM     16  C   UNL     1      -5.151  12.796  18.806  0.00  0.00    +0.000 A 
ATOM     17  C   UNL     1      -5.953  13.927  19.019  0.00  0.00    +0.000 A 
ATOM     18  C   UNL     1      -5.621  14.791  20.069  0.00  0.00    +0.000 A 
ATOM     19  C   UNL     1      -4.511  14.516  20.888  0.00  0.00    +0.000 A 
BRANCH  17  20
ATOM     20  C   UNL     1      -7.147  14.105  18.136  0.00  0.00    +0.000 C 
ATOM     21  O   UNL     1      -7.913  13.185  17.891  0.00  0.00    +0.000 OA
BRANCH  20  22
ATOM     22  O   UNL     1      -7.303  15.325  17.580  0.00  0.00    +0.000 OA
ATOM     23  H   UNL     1      -7.024  16.097  18.099  0.00  0.00    +0.000 HD
ENDBRANCH  20  22
ENDBRANCH  17  20
ENDBRANCH  12  14
ENDBRANCH   8   9
ENDBRANCH   3   7
BRANCH   4  24
ATOM     24  N   UNL     1       2.530   6.073  20.321  0.00  0.00    +0.000 NA
ATOM     25  C   UNL     1       2.141   4.902  19.909  0.00  0.00    +0.000 C 
BRANCH  25  26
ATOM     26  C   UNL     1       2.962   4.154  18.993  0.00  0.00    +0.000 A 
ATOM     27  C   UNL     1       3.211   2.802  18.946  0.00  0.00    +0.000 A 
ATOM     28  C   UNL     1       4.108   2.587  17.880  0.00  0.00    +0.000 A 
ATOM     29  C   UNL     1       4.363   3.818  17.316  0.00  0.00    +0.000 A 
ATOM     30  O   UNL     1       3.643   4.782  17.980  0.00  0.00    +0.000 OA
BRANCH  29  31
ATOM     31  C   UNL     1       5.182   4.225  16.175  0.00  0.00    +0.000 A 
ATOM     32  C   UNL     1       6.214   5.164  16.322  0.00  0.00    +0.000 A 
ATOM     33  C   UNL     1       7.060   5.470  15.242  0.00  0.00    +0.000 A 
ATOM     34  C   UNL     1       6.872   4.872  13.987  0.00  0.00    +0.000 A 
ATOM     35  C   UNL     1       5.827   3.955  13.830  0.00  0.00    +0.000 A 
ATOM     36  C   UNL     1       4.992   3.646  14.917  0.00  0.00    +0.000 A 
BRANCH  34  37
ATOM     37  C   UNL     1       7.844   5.214  12.903  0.00  0.00    +0.000 C 
ATOM     38  O   UNL     1       7.707   4.804  11.762  0.00  0.00    +0.000 OA
BRANCH  37  39
ATOM     39  O   UNL     1       8.911   5.955  13.270  0.00  0.00    +0.000 OA
ATOM     40  H   UNL     1       9.069   6.083  14.220  0.00  0.00    +0.000 HD
ENDBRANCH  37  39
ENDBRANCH  34  37
ENDBRANCH  29  31
ENDBRANCH  25  26
ENDBRANCH   4  24
TORSDOF 10
ENDMDL
MODEL 6
REMARK VINA RESULT:      -6.5      1.065     12.069
REMARK  Name = 
REMARK  10 active torsions:
REMARK  status: ('A' for Active; 'I' for Inactive)
REMARK    1  A    between atoms: N_3  and  N_4
REMARK    2  A    between atoms: C_5  and  C_6
REMARK    3  A    between atoms: C_9  and  C_10
REMARK    4  A    between atoms: C_13  and  C_14
REMARK    5  A    between atoms: C_14  and  O_16
REMARK    6  A    between atoms: N_20  and  N_21
REMARK    7  A    between atoms: C_22  and  C_23
REMARK    8  A    between atoms: C_26  and  C_27
REMARK    9  A    between atoms: C_30  and  C_31
REMARK   10  A    between atoms: C_31  and  O_33
REMARK                            x       y       z     vdW  Elec       q    Type
REMARK                         _______ _______ _______ _____ _____    ______ ____
ROOT
ATOM      1  O   UNL     1       1.785   8.336  20.229  0.00  0.00    +0.000 OA
ATOM      2  C   UNL     1       1.031   7.904  21.073  0.00  0.00    +0.000 C 
ATOM      3  N   UNL     1       0.831   6.541  21.341  0.00  0.00    +0.000 N 
ATOM      4  N   UNL     1       0.286   8.724  21.924  0.00  0.00    +0.000 N 
ATOM      5  H   UNL     1       0.145   6.246  22.015  0.00  0.00    +0.000 HD
ATOM      6  H   UNL     1      -0.394   8.294  22.526  0.00  0.00    +0.000 HD
ENDROOT
BRANCH   3   7
ATOM      7  N   UNL     1       1.502   5.604  20.581  0.00  0.00    +0.000 NA
ATOM      8  C   UNL     1       2.716   5.858  20.185  0.00  0.00    +0.000 C 
BRANCH   8   9
ATOM      9  C   UNL     1       3.438   4.880  19.395  0.00  0.00    +0.000 A 
ATOM     10  C   UNL     1       3.645   3.530  19.600  0.00  0.00    +0.000 A 
ATOM     11  C   UNL     1       4.454   3.067  18.538  0.00  0.00    +0.000 A 
ATOM     12  C   UNL     1       4.719   4.151  17.733  0.00  0.00    +0.000 A 
ATOM     13  O   UNL     1       4.079   5.260  18.238  0.00  0.00    +0.000 OA
BRANCH  12  14
ATOM     14  C   UNL     1       5.492   4.306  16.497  0.00  0.00    +0.000 A 
ATOM     15  C   UNL     1       4.913   4.047  15.244  0.00  0.00    +0.000 A 
ATOM     16  C   UNL     1       5.633   4.279  14.058  0.00  0.00    +0.000 A 
ATOM     17  C   UNL     1       6.957   4.741  14.094  0.00  0.00    +0.000 A 
ATOM     18  C   UNL     1       7.547   4.977  15.341  0.00  0.00    +0.000 A 
ATOM     19  C   UNL     1       6.817   4.756  16.523  0.00  0.00    +0.000 A 
BRANCH  17  20
ATOM     20  C   UNL     1       7.634   5.005  12.786  0.00  0.00    +0.000 C 
ATOM     21  O   UNL     1       8.298   6.012  12.593  0.00  0.00    +0.000 OA
BRANCH  20  22
ATOM     22  O   UNL     1       7.425   4.095  11.811  0.00  0.00    +0.000 OA
ATOM     23  H   UNL     1       6.802   3.373  11.993  0.00  0.00    +0.000 HD
ENDBRANCH  20  22
ENDBRANCH  17  20
ENDBRANCH  12  14
ENDBRANCH   8   9
ENDBRANCH   3   7
BRANCH   4  24
ATOM     24  N   UNL     1       0.314  10.082  21.802  0.00  0.00    +0.000 NA
ATOM     25  C   UNL     1      -0.621  10.746  22.417  0.00  0.00    +0.000 C 
BRANCH  25  26
ATOM     26  C   UNL     1      -0.682  12.179  22.294  0.00  0.00    +0.000 A 
ATOM     27  C   UNL     1      -1.310  13.100  23.100  0.00  0.00    +0.000 A 
ATOM     28  C   UNL     1      -1.092  14.367  22.522  0.00  0.00    +0.000 A 
ATOM     29  C   UNL     1      -0.332  14.167  21.391  0.00  0.00    +0.000 A 
ATOM     30  O   UNL     1      -0.056  12.827  21.258  0.00  0.00    +0.000 OA
BRANCH  29  31
ATOM     31  C   UNL     1       0.226  15.093  20.406  0.00  0.00    +0.000 A 
ATOM     32  C   UNL     1       1.270  14.701  19.553  0.00  0.00    +0.000 A 
ATOM     33  C   UNL     1       1.728  15.563  18.543  0.00  0.00    +0.000 A 
ATOM     34  C   UNL     1       1.180  16.845  18.385  0.00  0.00    +0.000 A 
ATOM     35  C   UNL     1       0.157  17.248  19.252  0.00  0.00    +0.000 A 
ATOM     36  C   UNL     1      -0.303  16.377  20.253  0.00  0.00    +0.000 A 
BRANCH  34  37
ATOM     37  C   UNL     1       1.688  17.683  17.256  0.00  0.00    +0.000 C 
ATOM     38  O   UNL     1       2.817  17.552  16.813  0.00  0.00    +0.000 OA
BRANCH  37  39
ATOM     39  O   UNL     1       0.846  18.631  16.791  0.00  0.00    +0.000 OA
ATOM     40  H   UNL     1       0.609  18.603  15.849  0.00  0.00    +0.000 HD
ENDBRANCH  37  39
ENDBRANCH  34  37
ENDBRANCH  29  31
ENDBRANCH  25  26
ENDBRANCH   4  24
TORSDOF 10
ENDMDL
MODEL 7
REMARK VINA RESULT:      -6.3      2.397      3.528
REMARK  Name = 
REMARK  10 active torsions:
REMARK  status: ('A' for Active; 'I' for Inactive)
REMARK    1  A    between atoms: N_3  and  N_4
REMARK    2  A    between atoms: C_5  and  C_6
REMARK    3  A    between atoms: C_9  and  C_10
REMARK    4  A    between atoms: C_13  and  C_14
REMARK    5  A    between atoms: C_14  and  O_16
REMARK    6  A    between atoms: N_20  and  N_21
REMARK    7  A    between atoms: C_22  and  C_23
REMARK    8  A    between atoms: C_26  and  C_27
REMARK    9  A    between atoms: C_30  and  C_31
REMARK   10  A    between atoms: C_31  and  O_33
REMARK                            x       y       z     vdW  Elec       q    Type
REMARK                         _______ _______ _______ _____ _____    ______ ____
ROOT
ATOM      1  O   UNL     1       1.268   8.481  19.933  0.00  0.00    +0.000 OA
ATOM      2  C   UNL     1       1.036   7.960  21.002  0.00  0.00    +0.000 C 
ATOM      3  N   UNL     1       0.219   8.512  21.999  0.00  0.00    +0.000 N 
ATOM      4  N   UNL     1       1.531   6.703  21.361  0.00  0.00    +0.000 N 
ATOM      5  H   UNL     1       0.115   8.055  22.890  0.00  0.00    +0.000 HD
ATOM      6  H   UNL     1       1.382   6.383  22.302  0.00  0.00    +0.000 HD
ENDROOT
BRANCH   3   7
ATOM      7  N   UNL     1      -0.347   9.754  21.789  0.00  0.00    +0.000 NA
ATOM      8  C   UNL     1       0.315  10.821  22.134  0.00  0.00    +0.000 C 
BRANCH   8   9
ATOM      9  C   UNL     1      -0.262  12.133  21.911  0.00  0.00    +0.000 A 
ATOM     10  C   UNL     1       0.290  13.281  21.379  0.00  0.00    +0.000 A 
ATOM     11  C   UNL     1      -0.706  14.283  21.429  0.00  0.00    +0.000 A 
ATOM     12  C   UNL     1      -1.821  13.712  21.999  0.00  0.00    +0.000 A 
ATOM     13  O   UNL     1      -1.564  12.388  22.274  0.00  0.00    +0.000 OA
BRANCH  12  14
ATOM     14  C   UNL     1      -3.154  14.233  22.315  0.00  0.00    +0.000 A 
ATOM     15  C   UNL     1      -3.995  13.569  23.223  0.00  0.00    +0.000 A 
ATOM     16  C   UNL     1      -5.238  14.119  23.585  0.00  0.00    +0.000 A 
ATOM     17  C   UNL     1      -5.687  15.324  23.027  0.00  0.00    +0.000 A 
ATOM     18  C   UNL     1      -4.864  15.978  22.102  0.00  0.00    +0.000 A 
ATOM     19  C   UNL     1      -3.616  15.429  21.754  0.00  0.00    +0.000 A 
BRANCH  17  20
ATOM     20  C   UNL     1      -7.000  15.861  23.502  0.00  0.00    +0.000 C 
ATOM     21  O   UNL     1      -7.915  15.125  23.840  0.00  0.00    +0.000 OA
BRANCH  20  22
ATOM     22  O   UNL     1      -7.138  17.204  23.485  0.00  0.00    +0.000 OA
ATOM     23  H   UNL     1      -6.613  17.703  22.839  0.00  0.00    +0.000 HD
ENDBRANCH  20  22
ENDBRANCH  17  20
ENDBRANCH  12  14
ENDBRANCH   8   9
ENDBRANCH   3   7
BRANCH   4  24
ATOM     24  N   UNL     1       2.375   6.013  20.542  0.00  0.00    +0.000 NA
ATOM     25  C   UNL     1       1.845   5.083  19.802  0.00  0.00    +0.000 C 
BRANCH  25  26
ATOM     26  C   UNL     1       2.683   4.282  18.948  0.00  0.00    +0.000 A 
ATOM     27  C   UNL     1       2.917   2.927  18.974  0.00  0.00    +0.000 A 
ATOM     28  C   UNL     1       3.840   2.650  17.945  0.00  0.00    +0.000 A 
ATOM     29  C   UNL     1       4.125   3.849  17.328  0.00  0.00    +0.000 A 
ATOM     30  O   UNL     1       3.398   4.852  17.924  0.00  0.00    +0.000 OA
BRANCH  29  31
ATOM     31  C   UNL     1       4.979   4.191  16.192  0.00  0.00    +0.000 A 
ATOM     32  C   UNL     1       6.099   5.023  16.350  0.00  0.00    +0.000 A 
ATOM     33  C   UNL     1       6.970   5.260  15.274  0.00  0.00    +0.000 A 
ATOM     34  C   UNL     1       6.724   4.702  14.010  0.00  0.00    +0.000 A 
ATOM     35  C   UNL     1       5.594   3.893  13.842  0.00  0.00    +0.000 A 
ATOM     36  C   UNL     1       4.733   3.652  14.926  0.00  0.00    +0.000 A 
BRANCH  34  37
ATOM     37  C   UNL     1       7.724   4.962  12.930  0.00  0.00    +0.000 C 
ATOM     38  O   UNL     1       8.655   5.736  13.086  0.00  0.00    +0.000 OA
BRANCH  37  39
ATOM     39  O   UNL     1       7.508   4.336  11.753  0.00  0.00    +0.000 OA
ATOM     40  H   UNL     1       7.828   3.424  11.661  0.00  0.00    +0.000 HD
ENDBRANCH  37  39
ENDBRANCH  34  37
ENDBRANCH  29  31
ENDBRANCH  25  26
ENDBRANCH   4  24
TORSDOF 10
ENDMDL
MODEL 8
REMARK VINA RESULT:      -6.1      5.265      6.138
REMARK  Name = 
REMARK  10 active torsions:
REMARK  status: ('A' for Active; 'I' for Inactive)
REMARK    1  A    between atoms: N_3  and  N_4
REMARK    2  A    between atoms: C_5  and  C_6
REMARK    3  A    between atoms: C_9  and  C_10
REMARK    4  A    between atoms: C_13  and  C_14
REMARK    5  A    between atoms: C_14  and  O_16
REMARK    6  A    between atoms: N_20  and  N_21
REMARK    7  A    between atoms: C_22  and  C_23
REMARK    8  A    between atoms: C_26  and  C_27
REMARK    9  A    between atoms: C_30  and  C_31
REMARK   10  A    between atoms: C_31  and  O_33
REMARK                            x       y       z     vdW  Elec       q    Type
REMARK                         _______ _______ _______ _____ _____    ______ ____
ROOT
ATOM      1  O   UNL     1       2.012  11.518  21.260  0.00  0.00    +0.000 OA
ATOM      2  C   UNL     1       0.874  11.719  20.898  0.00  0.00    +0.000 C 
ATOM      3  N   UNL     1       0.118  12.852  21.233  0.00  0.00    +0.000 N 
ATOM      4  N   UNL     1       0.176  10.849  20.056  0.00  0.00    +0.000 N 
ATOM      5  H   UNL     1      -0.844  12.930  20.949  0.00  0.00    +0.000 HD
ATOM      6  H   UNL     1      -0.798  11.030  19.884  0.00  0.00    +0.000 HD
ENDROOT
BRANCH   3   7
ATOM      7  N   UNL     1       0.674  13.808  22.060  0.00  0.00    +0.000 NA
ATOM      8  C   UNL     1       0.700  15.050  21.670  0.00  0.00    +0.000 C 
BRANCH   8   9
ATOM      9  C   UNL     1       1.272  16.066  22.531  0.00  0.00    +0.000 A 
ATOM     10  C   UNL     1       0.775  17.289  22.936  0.00  0.00    +0.000 A 
ATOM     11  C   UNL     1       1.763  17.894  23.744  0.00  0.00    +0.000 A 
ATOM     12  C   UNL     1       2.830  17.024  23.793  0.00  0.00    +0.000 A 
ATOM     13  O   UNL     1       2.525  15.891  23.072  0.00  0.00    +0.000 OA
BRANCH  12  14
ATOM     14  C   UNL     1       4.133  17.085  24.460  0.00  0.00    +0.000 A 
ATOM     15  C   UNL     1       4.993  15.975  24.472  0.00  0.00    +0.000 A 
ATOM     16  C   UNL     1       6.276  16.065  25.041  0.00  0.00    +0.000 A 
ATOM     17  C   UNL     1       6.720  17.253  25.640  0.00  0.00    +0.000 A 
ATOM     18  C   UNL     1       5.857  18.356  25.653  0.00  0.00    +0.000 A 
ATOM     19  C   UNL     1       4.580  18.262  25.070  0.00  0.00    +0.000 A 
BRANCH  17  20
ATOM     20  C   UNL     1       8.115  17.277  26.179  0.00  0.00    +0.000 C 
ATOM     21  O   UNL     1       8.343  17.311  27.379  0.00  0.00    +0.000 OA
BRANCH  20  22
ATOM     22  O   UNL     1       9.108  17.315  25.266  0.00  0.00    +0.000 OA
ATOM     23  H   UNL     1      10.014  17.447  25.589  0.00  0.00    +0.000 HD
ENDBRANCH  20  22
ENDBRANCH  17  20
ENDBRANCH  12  14
ENDBRANCH   8   9
ENDBRANCH   3   7
BRANCH   4  24
ATOM     24  N   UNL     1       0.724   9.671  19.643  0.00  0.00    +0.000 NA
ATOM     25  C   UNL     1       1.017   8.803  20.568  0.00  0.00    +0.000 C 
BRANCH  25  26
ATOM     26  C   UNL     1       1.642   7.557  20.210  0.00  0.00    +0.000 A 
ATOM     27  C   UNL     1       1.598   6.340  20.852  0.00  0.00    +0.000 A 
ATOM     28  C   UNL     1       2.405   5.456  20.109  0.00  0.00    +0.000 A 
ATOM     29  C   UNL     1       2.902   6.167  19.039  0.00  0.00    +0.000 A 
ATOM     30  O   UNL     1       2.417   7.453  19.082  0.00  0.00    +0.000 OA
BRANCH  29  31
ATOM     31  C   UNL     1       3.763   5.787  17.920  0.00  0.00    +0.000 A 
ATOM     32  C   UNL     1       4.439   6.756  17.162  0.00  0.00    +0.000 A 
ATOM     33  C   UNL     1       5.343   6.374  16.157  0.00  0.00    +0.000 A 
ATOM     34  C   UNL     1       5.566   5.020  15.864  0.00  0.00    +0.000 A 
ATOM     35  C   UNL     1       4.874   4.052  16.600  0.00  0.00    +0.000 A 
ATOM     36  C   UNL     1       3.979   4.441  17.611  0.00  0.00    +0.000 A 
BRANCH  34  37
ATOM     37  C   UNL     1       6.579   4.695  14.814  0.00  0.00    +0.000 C 
ATOM     38  O   UNL     1       7.567   5.389  14.635  0.00  0.00    +0.000 OA
BRANCH  37  39
ATOM     39  O   UNL     1       6.312   3.622  14.039  0.00  0.00    +0.000 OA
ATOM     40  H   UNL     1       6.774   2.792  14.240  0.00  0.00    +0.000 HD
ENDBRANCH  37  39
ENDBRANCH  34  37
ENDBRANCH  29  31
ENDBRANCH  25  26
ENDBRANCH   4  24
TORSDOF 10
ENDMDL
MODEL 9
REMARK VINA RESULT:      -6.1      8.365      9.995
REMARK  Name = 
REMARK  10 active torsions:
REMARK  status: ('A' for Active; 'I' for Inactive)
REMARK    1  A    between atoms: N_3  and  N_4
REMARK    2  A    between atoms: C_5  and  C_6
REMARK    3  A    between atoms: C_9  and  C_10
REMARK    4  A    between atoms: C_13  and  C_14
REMARK    5  A    between atoms: C_14  and  O_16
REMARK    6  A    between atoms: N_20  and  N_21
REMARK    7  A    between atoms: C_22  and  C_23
REMARK    8  A    between atoms: C_26  and  C_27
REMARK    9  A    between atoms: C_30  and  C_31
REMARK   10  A    between atoms: C_31  and  O_33
REMARK                            x       y       z     vdW  Elec       q    Type
REMARK                         _______ _______ _______ _____ _____    ______ ____
ROOT
ATOM      1  O   UNL     1       9.145  10.750  20.095  0.00  0.00    +0.000 OA
ATOM      2  C   UNL     1       9.062  11.148  18.954  0.00  0.00    +0.000 C 
ATOM      3  N   UNL     1       9.206  12.487  18.563  0.00  0.00    +0.000 N 
ATOM      4  N   UNL     1       8.848  10.300  17.864  0.00  0.00    +0.000 N 
ATOM      5  H   UNL     1       9.065  12.761  17.605  0.00  0.00    +0.000 HD
ATOM      6  H   UNL     1       8.686  10.713  16.962  0.00  0.00    +0.000 HD
ENDROOT
BRANCH   3   7
ATOM      7  N   UNL     1       9.425  13.448  19.531  0.00  0.00    +0.000 NA
ATOM      8  C   UNL     1      10.612  13.969  19.651  0.00  0.00    +0.000 C 
BRANCH   8   9
ATOM      9  C   UNL     1      10.856  14.986  20.656  0.00  0.00    +0.000 A 
ATOM     10  C   UNL     1      11.738  16.047  20.668  0.00  0.00    +0.000 A 
ATOM     11  C   UNL     1      11.588  16.699  21.913  0.00  0.00    +0.000 A 
ATOM     12  C   UNL     1      10.630  16.005  22.617  0.00  0.00    +0.000 A 
ATOM     13  O   UNL     1      10.159  14.969  21.842  0.00  0.00    +0.000 OA
BRANCH  12  14
ATOM     14  C   UNL     1      10.047  16.188  23.949  0.00  0.00    +0.000 A 
ATOM     15  C   UNL     1       9.113  15.273  24.462  0.00  0.00    +0.000 A 
ATOM     16  C   UNL     1       8.620  15.408  25.772  0.00  0.00    +0.000 A 
ATOM     17  C   UNL     1       9.020  16.475  26.590  0.00  0.00    +0.000 A 
ATOM     18  C   UNL     1       9.932  17.404  26.075  0.00  0.00    +0.000 A 
ATOM     19  C   UNL     1      10.431  17.256  24.768  0.00  0.00    +0.000 A 
BRANCH  17  20
ATOM     20  C   UNL     1       8.483  16.517  27.986  0.00  0.00    +0.000 C 
ATOM     21  O   UNL     1       7.799  15.614  28.442  0.00  0.00    +0.000 OA
BRANCH  20  22
ATOM     22  O   UNL     1       8.751  17.634  28.695  0.00  0.00    +0.000 OA
ATOM     23  H   UNL     1       9.601  18.076  28.539  0.00  0.00    +0.000 HD
ENDBRANCH  20  22
ENDBRANCH  17  20
ENDBRANCH  12  14
ENDBRANCH   8   9
ENDBRANCH   3   7
BRANCH   4  24
ATOM     24  N   UNL     1       8.648   8.962  18.036  0.00  0.00    +0.000 NA
ATOM     25  C   UNL     1       7.487   8.491  17.684  0.00  0.00    +0.000 C 
BRANCH  25  26
ATOM     26  C   UNL     1       7.189   7.097  17.881  0.00  0.00    +0.000 A 
ATOM     27  C   UNL     1       8.044   6.020  17.945  0.00  0.00    +0.000 A 
ATOM     28  C   UNL     1       7.245   4.872  18.117  0.00  0.00    +0.000 A 
ATOM     29  C   UNL     1       5.935   5.297  18.159  0.00  0.00    +0.000 A 
ATOM     30  O   UNL     1       5.895   6.666  18.038  0.00  0.00    +0.000 OA
BRANCH  29  31
ATOM     31  C   UNL     1       4.675   4.579  18.344  0.00  0.00    +0.000 A 
ATOM     32  C   UNL     1       4.424   3.844  19.513  0.00  0.00    +0.000 A 
ATOM     33  C   UNL     1       3.171   3.244  19.725  0.00  0.00    +0.000 A 
ATOM     34  C   UNL     1       2.155   3.337  18.761  0.00  0.00    +0.000 A 
ATOM     35  C   UNL     1       2.411   4.047  17.583  0.00  0.00    +0.000 A 
ATOM     36  C   UNL     1       3.663   4.653  17.382  0.00  0.00    +0.000 A 
BRANCH  34  37
ATOM     37  C   UNL     1       0.835   2.714  19.082  0.00  0.00    +0.000 C 
ATOM     38  O   UNL     1       0.241   2.960  20.120  0.00  0.00    +0.000 OA
BRANCH  37  39
ATOM     39  O   UNL     1       0.362   1.822  18.186  0.00  0.00    +0.000 OA
ATOM     40  H   UNL     1      -0.372   2.100  17.613  0.00  0.00    +0.000 HD
ENDBRANCH  37  39
ENDBRANCH  34  37
ENDBRANCH  29  31
ENDBRANCH  25  26
ENDBRANCH   4  24
TORSDOF 10
ENDMDL
