MODEL 1
REMARK VINA RESULT:      -6.4      0.000      0.000
REMARK  Name = 
REMARK  4 active torsions:
REMARK  status: ('A' for Active; 'I' for Inactive)
REMARK    1  A    between atoms: C_1  and  C_2
REMARK    2  A    between atoms: N_5  and  C_6
REMARK    3  A    between atoms: C_6  and  C_7
REMARK    4  A    between atoms: C_10  and  C_11
REMARK                            x       y       z     vdW  Elec       q    Type
REMARK                         _______ _______ _______ _____ _____    ______ ____
ROOT
ATOM      1  C   UNL     1       5.906   3.312  12.406  0.00  0.00    +0.000 C 
ATOM      2  C   UNL     1       6.366   4.002  13.622  0.00  0.00    +0.000 A 
ATOM      3  C   UNL     1       6.025   3.944  14.951  0.00  0.00    +0.000 A 
ATOM      4  C   UNL     1       6.864   4.893  15.577  0.00  0.00    +0.000 A 
ATOM      5  N   UNL     1       6.877   5.203  16.889  0.00  0.00    +0.000 N 
ATOM      6  N   UNL     1       7.671   5.472  14.684  0.00  0.00    +0.000 NA
ATOM      7  O   UNL     1       7.353   4.919  13.458  0.00  0.00    +0.000 OA
ATOM      8  H   UNL     1       7.606   5.823  17.223  0.00  0.00    +0.000 HD
ENDROOT
BRANCH   5   9
ATOM      9  C   UNL     1       6.061   4.569  17.908  0.00  0.00    +0.000 C 
BRANCH   9  10
ATOM     10  C   UNL     1       4.776   5.246  18.310  0.00  0.00    +0.000 A 
ATOM     11  C   UNL     1       4.199   6.354  17.720  0.00  0.00    +0.000 A 
ATOM     12  S   UNL     1       2.746   6.771  18.519  0.00  0.00    +0.000 S 
ATOM     13  C   UNL     1       2.971   5.450  19.594  0.00  0.00    +0.000 A 
ATOM     14  C   UNL     1       1.975   5.179  20.667  0.00  0.00    +0.000 C 
ATOM     15  N   UNL     1       4.058   4.735  19.389  0.00  0.00    +0.000 NA
ENDBRANCH   9  10
ENDBRANCH   5   9
TORSDOF 2
ENDMDL
MODEL 2
REMARK VINA RESULT:      -6.4      3.287      3.973
REMARK  Name = 
REMARK  4 active torsions:
REMARK  status: ('A' for Active; 'I' for Inactive)
REMARK    1  A    between atoms: C_1  and  C_2
REMARK    2  A    between atoms: N_5  and  C_6
REMARK    3  A    between atoms: C_6  and  C_7
REMARK    4  A    between atoms: C_10  and  C_11
REMARK                            x       y       z     vdW  Elec       q    Type
REMARK                         _______ _______ _______ _____ _____    ______ ____
ROOT
ATOM      1  C   UNL     1       7.894   8.473  17.650  0.00  0.00    +0.000 C 
ATOM      2  C   UNL     1       7.516   7.096  18.008  0.00  0.00    +0.000 A 
ATOM      3  C   UNL     1       6.528   6.232  17.604  0.00  0.00    +0.000 A 
ATOM      4  C   UNL     1       6.741   5.063  18.369  0.00  0.00    +0.000 A 
ATOM      5  N   UNL     1       6.001   3.938  18.328  0.00  0.00    +0.000 N 
ATOM      6  N   UNL     1       7.802   5.208  19.168  0.00  0.00    +0.000 NA
ATOM      7  O   UNL     1       8.281   6.486  18.948  0.00  0.00    +0.000 OA
ATOM      8  H   UNL     1       6.330   3.133  18.850  0.00  0.00    +0.000 HD
ENDROOT
BRANCH   5   9
ATOM      9  C   UNL     1       4.874   3.708  17.443  0.00  0.00    +0.000 C 
BRANCH   9  10
ATOM     10  C   UNL     1       3.539   3.384  18.063  0.00  0.00    +0.000 A 
ATOM     11  C   UNL     1       2.714   2.320  17.755  0.00  0.00    +0.000 A 
ATOM     12  S   UNL     1       1.298   2.362  18.713  0.00  0.00    +0.000 S 
ATOM     13  C   UNL     1       1.873   3.788  19.481  0.00  0.00    +0.000 A 
ATOM     14  C   UNL     1       1.062   4.445  20.542  0.00  0.00    +0.000 C 
ATOM     15  N   UNL     1       3.042   4.223  19.059  0.00  0.00    +0.000 NA
ENDBRANCH   9  10
ENDBRANCH   5   9
TORSDOF 2
ENDMDL
MODEL 3
REMARK VINA RESULT:      -6.4      1.803      2.032
REMARK  Name = 
REMARK  4 active torsions:
REMARK  status: ('A' for Active; 'I' for Inactive)
REMARK    1  A    between atoms: C_1  and  C_2
REMARK    2  A    between atoms: N_5  and  C_6
REMARK    3  A    between atoms: C_6  and  C_7
REMARK    4  A    between atoms: C_10  and  C_11
REMARK                            x       y       z     vdW  Elec       q    Type
REMARK                         _______ _______ _______ _____ _____    ______ ____
ROOT
ATOM      1  C   UNL     1       6.423   3.783  13.130  0.00  0.00    +0.000 C 
ATOM      2  C   UNL     1       6.398   4.591  14.360  0.00  0.00    +0.000 A 
ATOM      3  C   UNL     1       5.429   4.928  15.272  0.00  0.00    +0.000 A 
ATOM      4  C   UNL     1       6.093   5.748  16.212  0.00  0.00    +0.000 A 
ATOM      5  N   UNL     1       5.537   6.336  17.291  0.00  0.00    +0.000 N 
ATOM      6  N   UNL     1       7.384   5.880  15.896  0.00  0.00    +0.000 NA
ATOM      7  O   UNL     1       7.573   5.162  14.731  0.00  0.00    +0.000 OA
ATOM      8  H   UNL     1       6.151   6.808  17.944  0.00  0.00    +0.000 HD
ENDROOT
BRANCH   5   9
ATOM      9  C   UNL     1       4.155   6.183  17.709  0.00  0.00    +0.000 C 
BRANCH   9  10
ATOM     10  C   UNL     1       3.787   4.958  18.506  0.00  0.00    +0.000 A 
ATOM     11  C   UNL     1       4.648   4.000  19.004  0.00  0.00    +0.000 A 
ATOM     12  S   UNL     1       3.778   2.788  19.840  0.00  0.00    +0.000 S 
ATOM     13  C   UNL     1       2.313   3.616  19.492  0.00  0.00    +0.000 A 
ATOM     14  C   UNL     1       1.013   3.071  19.971  0.00  0.00    +0.000 C 
ATOM     15  N   UNL     1       2.444   4.725  18.794  0.00  0.00    +0.000 NA
ENDBRANCH   9  10
ENDBRANCH   5   9
TORSDOF 2
ENDMDL
MODEL 4
REMARK VINA RESULT:      -6.4      1.141      1.213
REMARK  Name = 
REMARK  4 active torsions:
REMARK  status: ('A' for Active; 'I' for Inactive)
REMARK    1  A    between atoms: C_1  and  C_2
REMARK    2  A    between atoms: N_5  and  C_6
REMARK    3  A    between atoms: C_6  and  C_7
REMARK    4  A    between atoms: C_10  and  C_11
REMARK                            x       y       z     vdW  Elec       q    Type
REMARK                         _______ _______ _______ _____ _____    ______ ____
ROOT
ATOM      1  C   UNL     1       6.306   3.800  13.093  0.00  0.00    +0.000 C 
ATOM      2  C   UNL     1       6.525   4.331  14.448  0.00  0.00    +0.000 A 
ATOM      3  C   UNL     1       6.051   4.012  15.697  0.00  0.00    +0.000 A 
ATOM      4  C   UNL     1       6.670   4.942  16.562  0.00  0.00    +0.000 A 
ATOM      5  N   UNL     1       6.494   5.029  17.896  0.00  0.00    +0.000 N 
ATOM      6  N   UNL     1       7.479   5.757  15.880  0.00  0.00    +0.000 NA
ATOM      7  O   UNL     1       7.381   5.380  14.554  0.00  0.00    +0.000 OA
ATOM      8  H   UNL     1       7.084   5.672  18.412  0.00  0.00    +0.000 HD
ENDROOT
BRANCH   5   9
ATOM      9  C   UNL     1       5.670   4.138  18.693  0.00  0.00    +0.000 C 
BRANCH   9  10
ATOM     10  C   UNL     1       4.329   4.641  19.161  0.00  0.00    +0.000 A 
ATOM     11  C   UNL     1       3.871   5.944  19.128  0.00  0.00    +0.000 A 
ATOM     12  S   UNL     1       2.290   6.040  19.771  0.00  0.00    +0.000 S 
ATOM     13  C   UNL     1       2.310   4.344  20.047  0.00  0.00    +0.000 A 
ATOM     14  C   UNL     1       1.128   3.669  20.649  0.00  0.00    +0.000 C 
ATOM     15  N   UNL     1       3.420   3.729  19.693  0.00  0.00    +0.000 NA
ENDBRANCH   9  10
ENDBRANCH   5   9
TORSDOF 2
ENDMDL
MODEL 5
REMARK VINA RESULT:      -6.3      1.076      1.106
REMARK  Name = 
REMARK  4 active torsions:
REMARK  status: ('A' for Active; 'I' for Inactive)
REMARK    1  A    between atoms: C_1  and  C_2
REMARK    2  A    between atoms: N_5  and  C_6
REMARK    3  A    between atoms: C_6  and  C_7
REMARK    4  A    between atoms: C_10  and  C_11
REMARK                            x       y       z     vdW  Elec       q    Type
REMARK                         _______ _______ _______ _____ _____    ______ ____
ROOT
ATOM      1  C   UNL     1       5.718   3.278  12.255  0.00  0.00    +0.000 C 
ATOM      2  C   UNL     1       6.325   3.963  13.408  0.00  0.00    +0.000 A 
ATOM      3  C   UNL     1       6.111   3.942  14.764  0.00  0.00    +0.000 A 
ATOM      4  C   UNL     1       7.050   4.858  15.288  0.00  0.00    +0.000 A 
ATOM      5  N   UNL     1       7.205   5.186  16.586  0.00  0.00    +0.000 N 
ATOM      6  N   UNL     1       7.795   5.383  14.311  0.00  0.00    +0.000 NA
ATOM      7  O   UNL     1       7.334   4.829  13.132  0.00  0.00    +0.000 OA
ATOM      8  H   UNL     1       7.991   5.775  16.837  0.00  0.00    +0.000 HD
ENDROOT
BRANCH   5   9
ATOM      9  C   UNL     1       6.461   4.609  17.691  0.00  0.00    +0.000 C 
BRANCH   9  10
ATOM     10  C   UNL     1       5.035   5.050  17.893  0.00  0.00    +0.000 A 
ATOM     11  C   UNL     1       4.591   6.325  18.184  0.00  0.00    +0.000 A 
ATOM     12  S   UNL     1       2.888   6.349  18.330  0.00  0.00    +0.000 S 
ATOM     13  C   UNL     1       2.846   4.665  17.991  0.00  0.00    +0.000 A 
ATOM     14  C   UNL     1       1.545   3.942  17.948  0.00  0.00    +0.000 C 
ATOM     15  N   UNL     1       4.019   4.102  17.785  0.00  0.00    +0.000 NA
ENDBRANCH   9  10
ENDBRANCH   5   9
TORSDOF 2
ENDMDL
MODEL 6
REMARK VINA RESULT:      -6.2      1.631      1.767
REMARK  Name = 
REMARK  4 active torsions:
REMARK  status: ('A' for Active; 'I' for Inactive)
REMARK    1  A    between atoms: C_1  and  C_2
REMARK    2  A    between atoms: N_5  and  C_6
REMARK    3  A    between atoms: C_6  and  C_7
REMARK    4  A    between atoms: C_10  and  C_11
REMARK                            x       y       z     vdW  Elec       q    Type
REMARK                         _______ _______ _______ _____ _____    ______ ____
ROOT
ATOM      1  C   UNL     1       5.727   2.865  11.982  0.00  0.00    +0.000 C 
ATOM      2  C   UNL     1       6.328   3.750  12.993  0.00  0.00    +0.000 A 
ATOM      3  C   UNL     1       6.215   3.872  14.356  0.00  0.00    +0.000 A 
ATOM      4  C   UNL     1       7.073   4.945  14.690  0.00  0.00    +0.000 A 
ATOM      5  N   UNL     1       7.279   5.446  15.924  0.00  0.00    +0.000 N 
ATOM      6  N   UNL     1       7.677   5.425  13.599  0.00  0.00    +0.000 NA
ATOM      7  O   UNL     1       7.203   4.681  12.535  0.00  0.00    +0.000 OA
ATOM      8  H   UNL     1       8.004   6.145  16.038  0.00  0.00    +0.000 HD
ENDROOT
BRANCH   5   9
ATOM      9  C   UNL     1       6.691   4.930  17.147  0.00  0.00    +0.000 C 
BRANCH   9  10
ATOM     10  C   UNL     1       5.257   5.281  17.447  0.00  0.00    +0.000 A 
ATOM     11  C   UNL     1       4.217   4.403  17.684  0.00  0.00    +0.000 A 
ATOM     12  S   UNL     1       2.764   5.258  17.974  0.00  0.00    +0.000 S 
ATOM     13  C   UNL     1       3.609   6.740  17.773  0.00  0.00    +0.000 A 
ATOM     14  C   UNL     1       2.889   8.036  17.905  0.00  0.00    +0.000 C 
ATOM     15  N   UNL     1       4.893   6.625  17.501  0.00  0.00    +0.000 NA
ENDBRANCH   9  10
ENDBRANCH   5   9
TORSDOF 2
ENDMDL
MODEL 7
REMARK VINA RESULT:      -6.2      1.127      1.209
REMARK  Name = 
REMARK  4 active torsions:
REMARK  status: ('A' for Active; 'I' for Inactive)
REMARK    1  A    between atoms: C_1  and  C_2
REMARK    2  A    between atoms: N_5  and  C_6
REMARK    3  A    between atoms: C_6  and  C_7
REMARK    4  A    between atoms: C_10  and  C_11
REMARK                            x       y       z     vdW  Elec       q    Type
REMARK                         _______ _______ _______ _____ _____    ______ ____
ROOT
ATOM      1  C   UNL     1       6.289   3.631  12.710  0.00  0.00    +0.000 C 
ATOM      2  C   UNL     1       6.485   4.227  14.042  0.00  0.00    +0.000 A 
ATOM      3  C   UNL     1       6.069   3.909  15.311  0.00  0.00    +0.000 A 
ATOM      4  C   UNL     1       6.616   4.922  16.131  0.00  0.00    +0.000 A 
ATOM      5  N   UNL     1       6.460   5.038  17.464  0.00  0.00    +0.000 N 
ATOM      6  N   UNL     1       7.331   5.784  15.403  0.00  0.00    +0.000 NA
ATOM      7  O   UNL     1       7.242   5.353  14.093  0.00  0.00    +0.000 OA
ATOM      8  H   UNL     1       6.998   5.750  17.945  0.00  0.00    +0.000 HD
ENDROOT
BRANCH   5   9
ATOM      9  C   UNL     1       5.740   4.103  18.309  0.00  0.00    +0.000 C 
BRANCH   9  10
ATOM     10  C   UNL     1       4.261   4.317  18.503  0.00  0.00    +0.000 A 
ATOM     11  C   UNL     1       3.237   3.788  17.741  0.00  0.00    +0.000 A 
ATOM     12  S   UNL     1       1.719   4.311  18.332  0.00  0.00    +0.000 S 
ATOM     13  C   UNL     1       2.518   5.200  19.566  0.00  0.00    +0.000 A 
ATOM     14  C   UNL     1       1.728   5.982  20.556  0.00  0.00    +0.000 C 
ATOM     15  N   UNL     1       3.833   5.129  19.552  0.00  0.00    +0.000 NA
ENDBRANCH   9  10
ENDBRANCH   5   9
TORSDOF 2
ENDMDL
MODEL 8
REMARK VINA RESULT:      -6.2      2.922      3.648
REMARK  Name = 
REMARK  4 active torsions:
REMARK  status: ('A' for Active; 'I' for Inactive)
REMARK    1  A    between atoms: C_1  and  C_2
REMARK    2  A    between atoms: N_5  and  C_6
REMARK    3  A    between atoms: C_6  and  C_7
REMARK    4  A    between atoms: C_10  and  C_11
REMARK                            x       y       z     vdW  Elec       q    Type
REMARK                         _______ _______ _______ _____ _____    ______ ____
ROOT
ATOM      1  C   UNL     1       8.142   8.563  17.837  0.00  0.00    +0.000 C 
ATOM      2  C   UNL     1       7.585   7.225  17.584  0.00  0.00    +0.000 A 
ATOM      3  C   UNL     1       6.904   6.304  18.342  0.00  0.00    +0.000 A 
ATOM      4  C   UNL     1       6.678   5.217  17.467  0.00  0.00    +0.000 A 
ATOM      5  N   UNL     1       6.054   4.063  17.774  0.00  0.00    +0.000 N 
ATOM      6  N   UNL     1       7.175   5.476  16.254  0.00  0.00    +0.000 NA
ATOM      7  O   UNL     1       7.751   6.730  16.330  0.00  0.00    +0.000 OA
ATOM      8  H   UNL     1       5.862   3.412  17.021  0.00  0.00    +0.000 HD
ENDROOT
BRANCH   5   9
ATOM      9  C   UNL     1       5.451   3.752  19.057  0.00  0.00    +0.000 C 
BRANCH   9  10
ATOM     10  C   UNL     1       4.013   3.301  19.074  0.00  0.00    +0.000 A 
ATOM     11  C   UNL     1       3.272   2.842  18.002  0.00  0.00    +0.000 A 
ATOM     12  S   UNL     1       1.683   2.449  18.495  0.00  0.00    +0.000 S 
ATOM     13  C   UNL     1       2.080   2.908  20.103  0.00  0.00    +0.000 A 
ATOM     14  C   UNL     1       1.060   2.812  21.183  0.00  0.00    +0.000 C 
ATOM     15  N   UNL     1       3.314   3.335  20.279  0.00  0.00    +0.000 NA
ENDBRANCH   9  10
ENDBRANCH   5   9
TORSDOF 2
ENDMDL
MODEL 9
REMARK VINA RESULT:      -6.1      1.855      2.005
REMARK  Name = 
REMARK  4 active torsions:
REMARK  status: ('A' for Active; 'I' for Inactive)
REMARK    1  A    between atoms: C_1  and  C_2
REMARK    2  A    between atoms: N_5  and  C_6
REMARK    3  A    between atoms: C_6  and  C_7
REMARK    4  A    between atoms: C_10  and  C_11
REMARK                            x       y       z     vdW  Elec       q    Type
REMARK                         _______ _______ _______ _____ _____    ______ ____
ROOT
ATOM      1  C   UNL     1       7.273   4.322  12.087  0.00  0.00    +0.000 C 
ATOM      2  C   UNL     1       6.960   4.535  13.510  0.00  0.00    +0.000 A 
ATOM      3  C   UNL     1       6.009   4.047  14.371  0.00  0.00    +0.000 A 
ATOM      4  C   UNL     1       6.282   4.685  15.603  0.00  0.00    +0.000 A 
ATOM      5  N   UNL     1       5.592   4.530  16.750  0.00  0.00    +0.000 N 
ATOM      6  N   UNL     1       7.341   5.491  15.493  0.00  0.00    +0.000 NA
ATOM      7  O   UNL     1       7.761   5.403  14.180  0.00  0.00    +0.000 OA
ATOM      8  H   UNL     1       5.962   4.962  17.589  0.00  0.00    +0.000 HD
ENDROOT
BRANCH   5   9
ATOM      9  C   UNL     1       4.469   3.629  16.938  0.00  0.00    +0.000 C 
BRANCH   9  10
ATOM     10  C   UNL     1       3.847   3.548  18.309  0.00  0.00    +0.000 A 
ATOM     11  C   UNL     1       4.041   2.558  19.253  0.00  0.00    +0.000 A 
ATOM     12  S   UNL     1       3.124   2.883  20.659  0.00  0.00    +0.000 S 
ATOM     13  C   UNL     1       2.532   4.321  19.928  0.00  0.00    +0.000 A 
ATOM     14  C   UNL     1       1.585   5.201  20.665  0.00  0.00    +0.000 C 
ATOM     15  N   UNL     1       2.976   4.558  18.710  0.00  0.00    +0.000 NA
ENDBRANCH   9  10
ENDBRANCH   5   9
TORSDOF 2
ENDMDL
