MODEL 1
REMARK VINA RESULT:      -7.1      0.000      0.000
REMARK  Name = 
REMARK  15 active torsions:
REMARK  status: ('A' for Active; 'I' for Inactive)
REMARK    1  A    between atoms: C_1  and  C_2
REMARK    2  A    between atoms: C_2  and  C_3
REMARK    3  A    between atoms: C_3  and  C_4
REMARK    4  A    between atoms: C_6  and  C_7
REMARK    5  A    between atoms: N_9  and  C_10
REMARK    6  A    between atoms: C_10  and  C_11
REMARK    7  A    between atoms: C_10  and  C_14
REMARK    8  A    between atoms: C_11  and  C_12
REMARK    9  A    between atoms: C_11  and  O_13
REMARK   10  A    between atoms: C_16  and  S_17
REMARK   11  A    between atoms: S_17  and  C_18
REMARK   12  A    between atoms: C_19  and  O_20
REMARK   13  A    between atoms: C_21  and  O_22
REMARK   14  A    between atoms: C_23  and  O_24
REMARK   15  A    between atoms: N_25  and  C_26
REMARK                            x       y       z     vdW  Elec       q    Type
REMARK                         _______ _______ _______ _____ _____    ______ ____
ROOT
ATOM      1  C   UNL     1       5.612   4.819  17.690  0.00  0.00    +0.000 C 
ENDROOT
BRANCH   1   2
ATOM      2  C   UNL     1       4.320   4.408  18.468  0.00  0.00    +0.000 C 
ATOM      3  O   UNL     1       3.162   5.001  17.850  0.00  0.00    +0.000 OA
ATOM      4  C   UNL     1       1.925   4.733  18.528  0.00  0.00    +0.000 C 
ATOM      5  C   UNL     1       1.675   3.210  18.507  0.00  0.00    +0.000 C 
ATOM      6  C   UNL     1       2.827   2.479  19.206  0.00  0.00    +0.000 C 
ATOM      7  C   UNL     1       4.187   2.882  18.617  0.00  0.00    +0.000 C 
BRANCH   4   8
ATOM      8  S   UNL     1       1.830   5.428  20.231  0.00  0.00    +0.000 S 
ATOM      9  C   UNL     1       2.240   7.157  19.886  0.00  0.00    +0.000 C 
ENDBRANCH   4   8
BRANCH   5  10
ATOM     10  O   UNL     1       0.411   2.834  19.061  0.00  0.00    +0.000 OA
ATOM     11  H   UNL     1       0.584   2.220  19.800  0.00  0.00    +0.000 HD
ENDBRANCH   5  10
BRANCH   6  12
ATOM     12  O   UNL     1       2.693   1.050  19.108  0.00  0.00    +0.000 OA
ATOM     13  H   UNL     1       3.176   0.753  18.314  0.00  0.00    +0.000 HD
ENDBRANCH   6  12
BRANCH   7  14
ATOM     14  O   UNL     1       5.224   2.387  19.474  0.00  0.00    +0.000 OA
ATOM     15  H   UNL     1       5.325   3.033  20.201  0.00  0.00    +0.000 HD
ENDBRANCH   7  14
ENDBRANCH   1   2
BRANCH   1  18
ATOM     16  C   UNL     1       6.550   4.515  15.405  0.00  0.00    +0.000 C 
ATOM     17  O   UNL     1       7.704   4.464  15.831  0.00  0.00    +0.000 OA
ATOM     18  N   UNL     1       5.459   4.673  16.235  0.00  0.00    +0.000 N 
ATOM     19  H   UNL     1       4.555   4.764  15.789  0.00  0.00    +0.000 HD
BRANCH  16  22
ATOM     20  C   UNL     1       5.926   2.851  12.137  0.00  0.00    +0.000 C 
ATOM     21  C   UNL     1       5.430   3.280  13.523  0.00  0.00    +0.000 C 
ATOM     22  C   UNL     1       6.266   4.499  13.898  0.00  0.00    +0.000 C 
ATOM     23  N   UNL     1       7.490   4.354  13.067  0.00  0.00    +0.000 NA
ATOM     24  C   UNL     1       8.186   5.635  12.915  0.00  0.00    +0.000 C 
ATOM     25  C   UNL     1       6.973   3.899  11.765  0.00  0.00    +0.000 C 
BRANCH  20  26
ATOM     26  C   UNL     1       4.771   2.734  11.135  0.00  0.00    +0.000 C 
BRANCH  26  28
ATOM     27  C   UNL     1       3.073   4.020   9.800  0.00  0.00    +0.000 C 
ATOM     28  C   UNL     1       3.865   3.965  11.100  0.00  0.00    +0.000 C 
ENDBRANCH  26  28
ENDBRANCH  20  26
ENDBRANCH  16  22
ENDBRANCH   1  18
BRANCH   1  29
ATOM     29  C   UNL     1       6.057   6.260  18.077  0.00  0.00    +0.000 C 
ATOM     30  C   UNL     1       5.608   7.331  17.090  0.00  0.00    +0.000 C 
BRANCH  29  31
ATOM     31  O   UNL     1       7.485   6.345  18.163  0.00  0.00    +0.000 OA
ATOM     32  H   UNL     1       7.855   5.647  17.592  0.00  0.00    +0.000 HD
ENDBRANCH  29  31
ENDBRANCH   1  29
TORSDOF 11
ENDMDL
MODEL 2
REMARK VINA RESULT:      -6.9      3.370      8.478
REMARK  Name = 
REMARK  15 active torsions:
REMARK  status: ('A' for Active; 'I' for Inactive)
REMARK    1  A    between atoms: C_1  and  C_2
REMARK    2  A    between atoms: C_2  and  C_3
REMARK    3  A    between atoms: C_3  and  C_4
REMARK    4  A    between atoms: C_6  and  C_7
REMARK    5  A    between atoms: N_9  and  C_10
REMARK    6  A    between atoms: C_10  and  C_11
REMARK    7  A    between atoms: C_10  and  C_14
REMARK    8  A    between atoms: C_11  and  C_12
REMARK    9  A    between atoms: C_11  and  O_13
REMARK   10  A    between atoms: C_16  and  S_17
REMARK   11  A    between atoms: S_17  and  C_18
REMARK   12  A    between atoms: C_19  and  O_20
REMARK   13  A    between atoms: C_21  and  O_22
REMARK   14  A    between atoms: C_23  and  O_24
REMARK   15  A    between atoms: N_25  and  C_26
REMARK                            x       y       z     vdW  Elec       q    Type
REMARK                         _______ _______ _______ _____ _____    ______ ____
ROOT
ATOM      1  C   UNL     1       3.033   5.206  18.835  0.00  0.00    +0.000 C 
ENDROOT
BRANCH   1   2
ATOM      2  C   UNL     1       4.354   5.007  18.023  0.00  0.00    +0.000 C 
ATOM      3  O   UNL     1       4.233   5.622  16.726  0.00  0.00    +0.000 OA
ATOM      4  C   UNL     1       5.377   5.441  15.876  0.00  0.00    +0.000 C 
ATOM      5  C   UNL     1       6.595   6.113  16.545  0.00  0.00    +0.000 C 
ATOM      6  C   UNL     1       6.856   5.481  17.917  0.00  0.00    +0.000 C 
ATOM      7  C   UNL     1       5.594   5.498  18.792  0.00  0.00    +0.000 C 
BRANCH   4   8
ATOM      8  S   UNL     1       5.713   3.689  15.422  0.00  0.00    +0.000 S 
ATOM      9  C   UNL     1       6.072   3.886  13.659  0.00  0.00    +0.000 C 
ENDBRANCH   4   8
BRANCH   5  10
ATOM     10  O   UNL     1       7.773   6.090  15.733  0.00  0.00    +0.000 OA
ATOM     11  H   UNL     1       8.127   5.181  15.752  0.00  0.00    +0.000 HD
ENDBRANCH   5  10
BRANCH   6  12
ATOM     12  O   UNL     1       7.911   6.153  18.626  0.00  0.00    +0.000 OA
ATOM     13  H   UNL     1       8.367   5.497  19.186  0.00  0.00    +0.000 HD
ENDBRANCH   6  12
BRANCH   7  14
ATOM     14  O   UNL     1       5.815   4.664  19.937  0.00  0.00    +0.000 OA
ATOM     15  H   UNL     1       5.646   3.743  19.655  0.00  0.00    +0.000 HD
ENDBRANCH   7  14
ENDBRANCH   1   2
BRANCH   1  18
ATOM     16  C   UNL     1       2.003   7.052  20.149  0.00  0.00    +0.000 C 
ATOM     17  O   UNL     1       1.616   6.280  21.025  0.00  0.00    +0.000 OA
ATOM     18  N   UNL     1       2.715   6.626  19.046  0.00  0.00    +0.000 N 
ATOM     19  H   UNL     1       2.939   7.325  18.349  0.00  0.00    +0.000 HD
BRANCH  16  22
ATOM     20  C   UNL     1      -0.311   9.904  20.740  0.00  0.00    +0.000 C 
ATOM     21  C   UNL     1       0.607   8.805  21.289  0.00  0.00    +0.000 C 
ATOM     22  C   UNL     1       1.629   8.539  20.188  0.00  0.00    +0.000 C 
ATOM     23  N   UNL     1       0.948   9.011  18.955  0.00  0.00    +0.000 NA
ATOM     24  C   UNL     1       1.911   9.288  17.886  0.00  0.00    +0.000 C 
ATOM     25  C   UNL     1       0.286  10.257  19.379  0.00  0.00    +0.000 C 
BRANCH  20  26
ATOM     26  C   UNL     1      -0.413  11.091  21.708  0.00  0.00    +0.000 C 
BRANCH  26  28
ATOM     27  C   UNL     1      -2.223  11.742  23.326  0.00  0.00    +0.000 C 
ATOM     28  C   UNL     1      -1.111  10.747  23.024  0.00  0.00    +0.000 C 
ENDBRANCH  26  28
ENDBRANCH  20  26
ENDBRANCH  16  22
ENDBRANCH   1  18
BRANCH   1  29
ATOM     29  C   UNL     1       1.850   4.448  18.164  0.00  0.00    +0.000 C 
ATOM     30  C   UNL     1       1.132   3.477  19.094  0.00  0.00    +0.000 C 
BRANCH  29  31
ATOM     31  O   UNL     1       2.307   3.687  17.038  0.00  0.00    +0.000 OA
ATOM     32  H   UNL     1       2.490   2.783  17.352  0.00  0.00    +0.000 HD
ENDBRANCH  29  31
ENDBRANCH   1  29
TORSDOF 11
ENDMDL
MODEL 3
REMARK VINA RESULT:      -6.6      3.121      8.236
REMARK  Name = 
REMARK  15 active torsions:
REMARK  status: ('A' for Active; 'I' for Inactive)
REMARK    1  A    between atoms: C_1  and  C_2
REMARK    2  A    between atoms: C_2  and  C_3
REMARK    3  A    between atoms: C_3  and  C_4
REMARK    4  A    between atoms: C_6  and  C_7
REMARK    5  A    between atoms: N_9  and  C_10
REMARK    6  A    between atoms: C_10  and  C_11
REMARK    7  A    between atoms: C_10  and  C_14
REMARK    8  A    between atoms: C_11  and  C_12
REMARK    9  A    between atoms: C_11  and  O_13
REMARK   10  A    between atoms: C_16  and  S_17
REMARK   11  A    between atoms: S_17  and  C_18
REMARK   12  A    between atoms: C_19  and  O_20
REMARK   13  A    between atoms: C_21  and  O_22
REMARK   14  A    between atoms: C_23  and  O_24
REMARK   15  A    between atoms: N_25  and  C_26
REMARK                            x       y       z     vdW  Elec       q    Type
REMARK                         _______ _______ _______ _____ _____    ______ ____
ROOT
ATOM      1  C   UNL     1       3.586   4.517  19.331  0.00  0.00    +0.000 C 
ENDROOT
BRANCH   1   2
ATOM      2  C   UNL     1       4.833   4.675  18.401  0.00  0.00    +0.000 C 
ATOM      3  O   UNL     1       4.439   5.244  17.138  0.00  0.00    +0.000 OA
ATOM      4  C   UNL     1       5.506   5.374  16.186  0.00  0.00    +0.000 C 
ATOM      5  C   UNL     1       6.564   6.338  16.766  0.00  0.00    +0.000 C 
ATOM      6  C   UNL     1       7.105   5.789  18.091  0.00  0.00    +0.000 C 
ATOM      7  C   UNL     1       5.968   5.470  19.073  0.00  0.00    +0.000 C 
BRANCH   4   8
ATOM      8  S   UNL     1       6.244   3.773  15.655  0.00  0.00    +0.000 S 
ATOM      9  C   UNL     1       6.141   3.963  13.858  0.00  0.00    +0.000 C 
ENDBRANCH   4   8
BRANCH   5  10
ATOM     10  O   UNL     1       7.627   6.629  15.854  0.00  0.00    +0.000 OA
ATOM     11  H   UNL     1       7.247   6.649  14.955  0.00  0.00    +0.000 HD
ENDBRANCH   5  10
BRANCH   6  12
ATOM     12  O   UNL     1       8.009   6.711  18.725  0.00  0.00    +0.000 OA
ATOM     13  H   UNL     1       8.363   7.308  18.040  0.00  0.00    +0.000 HD
ENDBRANCH   6  12
BRANCH   7  14
ATOM     14  O   UNL     1       6.503   4.718  20.169  0.00  0.00    +0.000 OA
ATOM     15  H   UNL     1       7.457   4.600  19.994  0.00  0.00    +0.000 HD
ENDBRANCH   7  14
ENDBRANCH   1   2
BRANCH   1  18
ATOM     16  C   UNL     1       2.352   6.674  19.199  0.00  0.00    +0.000 C 
ATOM     17  O   UNL     1       1.939   6.427  18.067  0.00  0.00    +0.000 OA
ATOM     18  N   UNL     1       3.151   5.799  19.906  0.00  0.00    +0.000 N 
ATOM     19  H   UNL     1       3.491   6.115  20.805  0.00  0.00    +0.000 HD
BRANCH  16  22
ATOM     20  C   UNL     1       0.320   9.063  21.200  0.00  0.00    +0.000 C 
ATOM     21  C   UNL     1       1.249   7.845  21.132  0.00  0.00    +0.000 C 
ATOM     22  C   UNL     1       2.072   8.029  19.861  0.00  0.00    +0.000 C 
ATOM     23  N   UNL     1       1.235   8.932  19.029  0.00  0.00    +0.000 NA
ATOM     24  C   UNL     1       2.036   9.606  18.003  0.00  0.00    +0.000 C 
ATOM     25  C   UNL     1       0.717   9.915  19.996  0.00  0.00    +0.000 C 
BRANCH  20  26
ATOM     26  C   UNL     1       0.434   9.788  22.548  0.00  0.00    +0.000 C 
BRANCH  26  28
ATOM     27  C   UNL     1      -1.064  11.792  22.780  0.00  0.00    +0.000 C 
ATOM     28  C   UNL     1      -0.903  10.307  23.077  0.00  0.00    +0.000 C 
ENDBRANCH  26  28
ENDBRANCH  20  26
ENDBRANCH  16  22
ENDBRANCH   1  18
BRANCH   1  29
ATOM     29  C   UNL     1       2.424   3.801  18.582  0.00  0.00    +0.000 C 
ATOM     30  C   UNL     1       1.460   3.061  19.502  0.00  0.00    +0.000 C 
BRANCH  29  31
ATOM     31  O   UNL     1       2.936   2.839  17.651  0.00  0.00    +0.000 OA
ATOM     32  H   UNL     1       3.904   2.818  17.755  0.00  0.00    +0.000 HD
ENDBRANCH  29  31
ENDBRANCH   1  29
TORSDOF 11
ENDMDL
MODEL 4
REMARK VINA RESULT:      -6.5      3.841      8.245
REMARK  Name = 
REMARK  15 active torsions:
REMARK  status: ('A' for Active; 'I' for Inactive)
REMARK    1  A    between atoms: C_1  and  C_2
REMARK    2  A    between atoms: C_2  and  C_3
REMARK    3  A    between atoms: C_3  and  C_4
REMARK    4  A    between atoms: C_6  and  C_7
REMARK    5  A    between atoms: N_9  and  C_10
REMARK    6  A    between atoms: C_10  and  C_11
REMARK    7  A    between atoms: C_10  and  C_14
REMARK    8  A    between atoms: C_11  and  C_12
REMARK    9  A    between atoms: C_11  and  O_13
REMARK   10  A    between atoms: C_16  and  S_17
REMARK   11  A    between atoms: S_17  and  C_18
REMARK   12  A    between atoms: C_19  and  O_20
REMARK   13  A    between atoms: C_21  and  O_22
REMARK   14  A    between atoms: C_23  and  O_24
REMARK   15  A    between atoms: N_25  and  C_26
REMARK                            x       y       z     vdW  Elec       q    Type
REMARK                         _______ _______ _______ _____ _____    ______ ____
ROOT
ATOM      1  C   UNL     1       3.417   4.901  19.971  0.00  0.00    +0.000 C 
ENDROOT
BRANCH   1   2
ATOM      2  C   UNL     1       4.434   5.141  18.809  0.00  0.00    +0.000 C 
ATOM      3  O   UNL     1       5.749   5.380  19.345  0.00  0.00    +0.000 OA
ATOM      4  C   UNL     1       6.749   5.673  18.356  0.00  0.00    +0.000 C 
ATOM      5  C   UNL     1       6.894   4.448  17.429  0.00  0.00    +0.000 C 
ATOM      6  C   UNL     1       5.554   4.143  16.748  0.00  0.00    +0.000 C 
ATOM      7  C   UNL     1       4.422   3.999  17.776  0.00  0.00    +0.000 C 
BRANCH   4   8
ATOM      8  S   UNL     1       6.447   7.226  17.413  0.00  0.00    +0.000 S 
ATOM      9  C   UNL     1       7.973   8.123  17.793  0.00  0.00    +0.000 C 
ENDBRANCH   4   8
BRANCH   5  10
ATOM     10  O   UNL     1       7.944   4.585  16.467  0.00  0.00    +0.000 OA
ATOM     11  H   UNL     1       7.532   4.615  15.583  0.00  0.00    +0.000 HD
ENDBRANCH   5  10
BRANCH   6  12
ATOM     12  O   UNL     1       5.613   2.939  15.963  0.00  0.00    +0.000 OA
ATOM     13  H   UNL     1       6.041   2.247  16.500  0.00  0.00    +0.000 HD
ENDBRANCH   6  12
BRANCH   7  14
ATOM     14  O   UNL     1       3.168   3.988  17.081  0.00  0.00    +0.000 OA
ATOM     15  H   UNL     1       3.369   4.097  16.130  0.00  0.00    +0.000 HD
ENDBRANCH   7  14
ENDBRANCH   1   2
BRANCH   1  18
ATOM     16  C   UNL     1       2.333   7.092  19.506  0.00  0.00    +0.000 C 
ATOM     17  O   UNL     1       2.442   6.945  18.289  0.00  0.00    +0.000 OA
ATOM     18  N   UNL     1       2.766   6.144  20.410  0.00  0.00    +0.000 N 
ATOM     19  H   UNL     1       2.688   6.380  21.391  0.00  0.00    +0.000 HD
BRANCH  16  22
ATOM     20  C   UNL     1      -0.221   9.164  21.244  0.00  0.00    +0.000 C 
ATOM     21  C   UNL     1       0.892   8.110  21.297  0.00  0.00    +0.000 C 
ATOM     22  C   UNL     1       1.785   8.398  20.095  0.00  0.00    +0.000 C 
ATOM     23  N   UNL     1       0.893   9.138  19.164  0.00  0.00    +0.000 NA
ATOM     24  C   UNL     1       1.665   9.911  18.187  0.00  0.00    +0.000 C 
ATOM     25  C   UNL     1       0.143  10.045  20.051  0.00  0.00    +0.000 C 
BRANCH  20  26
ATOM     26  C   UNL     1      -0.343   9.925  22.571  0.00  0.00    +0.000 C 
BRANCH  26  28
ATOM     27  C   UNL     1      -2.008  11.712  23.165  0.00  0.00    +0.000 C 
ATOM     28  C   UNL     1      -0.730  11.394  22.400  0.00  0.00    +0.000 C 
ENDBRANCH  26  28
ENDBRANCH  20  26
ENDBRANCH  16  22
ENDBRANCH   1  18
BRANCH   1  29
ATOM     29  C   UNL     1       2.373   3.815  19.579  0.00  0.00    +0.000 C 
ATOM     30  C   UNL     1       1.018   3.988  20.256  0.00  0.00    +0.000 C 
BRANCH  29  31
ATOM     31  O   UNL     1       2.847   2.507  19.923  0.00  0.00    +0.000 OA
ATOM     32  H   UNL     1       2.235   2.139  20.586  0.00  0.00    +0.000 HD
ENDBRANCH  29  31
ENDBRANCH   1  29
TORSDOF 11
ENDMDL
MODEL 5
REMARK VINA RESULT:      -6.3      1.418      1.613
REMARK  Name = 
REMARK  15 active torsions:
REMARK  status: ('A' for Active; 'I' for Inactive)
REMARK    1  A    between atoms: C_1  and  C_2
REMARK    2  A    between atoms: C_2  and  C_3
REMARK    3  A    between atoms: C_3  and  C_4
REMARK    4  A    between atoms: C_6  and  C_7
REMARK    5  A    between atoms: N_9  and  C_10
REMARK    6  A    between atoms: C_10  and  C_11
REMARK    7  A    between atoms: C_10  and  C_14
REMARK    8  A    between atoms: C_11  and  C_12
REMARK    9  A    between atoms: C_11  and  O_13
REMARK   10  A    between atoms: C_16  and  S_17
REMARK   11  A    between atoms: S_17  and  C_18
REMARK   12  A    between atoms: C_19  and  O_20
REMARK   13  A    between atoms: C_21  and  O_22
REMARK   14  A    between atoms: C_23  and  O_24
REMARK   15  A    between atoms: N_25  and  C_26
REMARK                            x       y       z     vdW  Elec       q    Type
REMARK                         _______ _______ _______ _____ _____    ______ ____
ROOT
ATOM      1  C   UNL     1       6.425   5.883  17.120  0.00  0.00    +0.000 C 
ENDROOT
BRANCH   1   2
ATOM      2  C   UNL     1       5.153   5.763  18.021  0.00  0.00    +0.000 C 
ATOM      3  O   UNL     1       3.965   5.872  17.214  0.00  0.00    +0.000 OA
ATOM      4  C   UNL     1       2.737   5.836  17.958  0.00  0.00    +0.000 C 
ATOM      5  C   UNL     1       2.635   4.468  18.667  0.00  0.00    +0.000 C 
ATOM      6  C   UNL     1       3.828   4.275  19.611  0.00  0.00    +0.000 C 
ATOM      7  C   UNL     1       5.162   4.485  18.879  0.00  0.00    +0.000 C 
BRANCH   4   8
ATOM      8  S   UNL     1       2.519   7.241  19.128  0.00  0.00    +0.000 S 
ATOM      9  C   UNL     1       2.267   8.591  17.949  0.00  0.00    +0.000 C 
ENDBRANCH   4   8
BRANCH   5  10
ATOM     10  O   UNL     1       1.395   4.276  19.354  0.00  0.00    +0.000 OA
ATOM     11  H   UNL     1       1.308   4.994  20.009  0.00  0.00    +0.000 HD
ENDBRANCH   5  10
BRANCH   6  12
ATOM     12  O   UNL     1       3.836   2.966  20.206  0.00  0.00    +0.000 OA
ATOM     13  H   UNL     1       3.132   2.438  19.786  0.00  0.00    +0.000 HD
ENDBRANCH   6  12
BRANCH   7  14
ATOM     14  O   UNL     1       6.213   4.562  19.851  0.00  0.00    +0.000 OA
ATOM     15  H   UNL     1       6.525   3.649  20.006  0.00  0.00    +0.000 HD
ENDBRANCH   7  14
ENDBRANCH   1   2
BRANCH   1  18
ATOM     16  C   UNL     1       6.077   4.459  15.109  0.00  0.00    +0.000 C 
ATOM     17  O   UNL     1       6.269   3.424  15.746  0.00  0.00    +0.000 OA
ATOM     18  N   UNL     1       6.118   5.708  15.692  0.00  0.00    +0.000 N 
ATOM     19  H   UNL     1       6.007   6.504  15.077  0.00  0.00    +0.000 HD
BRANCH  16  22
ATOM     20  C   UNL     1       5.388   2.765  11.869  0.00  0.00    +0.000 C 
ATOM     21  C   UNL     1       4.888   3.317  13.210  0.00  0.00    +0.000 C 
ATOM     22  C   UNL     1       5.871   4.421  13.589  0.00  0.00    +0.000 C 
ATOM     23  N   UNL     1       7.101   4.070  12.833  0.00  0.00    +0.000 NA
ATOM     24  C   UNL     1       7.980   5.232  12.678  0.00  0.00    +0.000 C 
ATOM     25  C   UNL     1       6.591   3.639  11.520  0.00  0.00    +0.000 C 
BRANCH  20  26
ATOM     26  C   UNL     1       4.280   2.771  10.807  0.00  0.00    +0.000 C 
BRANCH  26  28
ATOM     27  C   UNL     1       2.833   4.178   9.310  0.00  0.00    +0.000 C 
ATOM     28  C   UNL     1       3.637   4.142  10.603  0.00  0.00    +0.000 C 
ENDBRANCH  26  28
ENDBRANCH  20  26
ENDBRANCH  16  22
ENDBRANCH   1  18
BRANCH   1  29
ATOM     29  C   UNL     1       7.168   7.224  17.386  0.00  0.00    +0.000 C 
ATOM     30  C   UNL     1       8.186   7.152  18.518  0.00  0.00    +0.000 C 
BRANCH  29  31
ATOM     31  O   UNL     1       6.239   8.262  17.726  0.00  0.00    +0.000 OA
ATOM     32  H   UNL     1       5.440   7.833  18.083  0.00  0.00    +0.000 HD
ENDBRANCH  29  31
ENDBRANCH   1  29
TORSDOF 11
ENDMDL
MODEL 6
REMARK VINA RESULT:      -6.3      4.854      8.107
REMARK  Name = 
REMARK  15 active torsions:
REMARK  status: ('A' for Active; 'I' for Inactive)
REMARK    1  A    between atoms: C_1  and  C_2
REMARK    2  A    between atoms: C_2  and  C_3
REMARK    3  A    between atoms: C_3  and  C_4
REMARK    4  A    between atoms: C_6  and  C_7
REMARK    5  A    between atoms: N_9  and  C_10
REMARK    6  A    between atoms: C_10  and  C_11
REMARK    7  A    between atoms: C_10  and  C_14
REMARK    8  A    between atoms: C_11  and  C_12
REMARK    9  A    between atoms: C_11  and  O_13
REMARK   10  A    between atoms: C_16  and  S_17
REMARK   11  A    between atoms: S_17  and  C_18
REMARK   12  A    between atoms: C_19  and  O_20
REMARK   13  A    between atoms: C_21  and  O_22
REMARK   14  A    between atoms: C_23  and  O_24
REMARK   15  A    between atoms: N_25  and  C_26
REMARK                            x       y       z     vdW  Elec       q    Type
REMARK                         _______ _______ _______ _____ _____    ______ ____
ROOT
ATOM      1  C   UNL     1       0.819   8.924  20.653  0.00  0.00    +0.000 C 
ENDROOT
BRANCH   1   2
ATOM      2  C   UNL     1       0.769  10.420  20.200  0.00  0.00    +0.000 C 
ATOM      3  O   UNL     1       1.313  11.265  21.231  0.00  0.00    +0.000 OA
ATOM      4  C   UNL     1       1.257  12.670  20.937  0.00  0.00    +0.000 C 
ATOM      5  C   UNL     1       2.111  12.942  19.680  0.00  0.00    +0.000 C 
ATOM      6  C   UNL     1       1.571  12.134  18.493  0.00  0.00    +0.000 C 
ATOM      7  C   UNL     1       1.451  10.642  18.838  0.00  0.00    +0.000 C 
BRANCH   4   8
ATOM      8  S   UNL     1      -0.451  13.340  20.774  0.00  0.00    +0.000 S 
ATOM      9  C   UNL     1      -0.984  13.260  22.502  0.00  0.00    +0.000 C 
ENDBRANCH   4   8
BRANCH   5  10
ATOM     10  O   UNL     1       2.216  14.331  19.355  0.00  0.00    +0.000 OA
ATOM     11  H   UNL     1       1.633  14.821  19.964  0.00  0.00    +0.000 HD
ENDBRANCH   5  10
BRANCH   6  12
ATOM     12  O   UNL     1       2.405  12.268  17.330  0.00  0.00    +0.000 OA
ATOM     13  H   UNL     1       3.335  12.283  17.623  0.00  0.00    +0.000 HD
ENDBRANCH   6  12
BRANCH   7  14
ATOM     14  O   UNL     1       0.698   9.991  17.807  0.00  0.00    +0.000 OA
ATOM     15  H   UNL     1       1.342   9.538  17.228  0.00  0.00    +0.000 HD
ENDBRANCH   7  14
ENDBRANCH   1   2
BRANCH   1  18
ATOM     16  C   UNL     1       1.965   6.796  20.060  0.00  0.00    +0.000 C 
ATOM     17  O   UNL     1       1.141   6.122  20.678  0.00  0.00    +0.000 OA
ATOM     18  N   UNL     1       1.886   8.171  19.977  0.00  0.00    +0.000 N 
ATOM     19  H   UNL     1       2.641   8.643  19.497  0.00  0.00    +0.000 HD
BRANCH  16  22
ATOM     20  C   UNL     1       4.029   5.670  17.177  0.00  0.00    +0.000 C 
ATOM     21  C   UNL     1       3.510   6.799  18.077  0.00  0.00    +0.000 C 
ATOM     22  C   UNL     1       3.193   6.141  19.416  0.00  0.00    +0.000 C 
ATOM     23  N   UNL     1       2.986   4.712  19.065  0.00  0.00    +0.000 NA
ATOM     24  C   UNL     1       3.148   3.847  20.236  0.00  0.00    +0.000 C 
ATOM     25  C   UNL     1       4.049   4.439  18.081  0.00  0.00    +0.000 C 
BRANCH  20  26
ATOM     26  C   UNL     1       5.391   6.019  16.562  0.00  0.00    +0.000 C 
BRANCH  26  28
ATOM     27  C   UNL     1       7.492   6.756  17.728  0.00  0.00    +0.000 C 
ATOM     28  C   UNL     1       6.102   7.174  17.267  0.00  0.00    +0.000 C 
ENDBRANCH  26  28
ENDBRANCH  20  26
ENDBRANCH  16  22
ENDBRANCH   1  18
BRANCH   1  29
ATOM     29  C   UNL     1       0.935   8.817  22.201  0.00  0.00    +0.000 C 
ATOM     30  C   UNL     1      -0.158   9.564  22.956  0.00  0.00    +0.000 C 
BRANCH  29  31
ATOM     31  O   UNL     1       2.189   9.344  22.655  0.00  0.00    +0.000 OA
ATOM     32  H   UNL     1       2.888   8.953  22.100  0.00  0.00    +0.000 HD
ENDBRANCH  29  31
ENDBRANCH   1  29
TORSDOF 11
ENDMDL
MODEL 7
REMARK VINA RESULT:      -6.2      1.738      2.644
REMARK  Name = 
REMARK  15 active torsions:
REMARK  status: ('A' for Active; 'I' for Inactive)
REMARK    1  A    between atoms: C_1  and  C_2
REMARK    2  A    between atoms: C_2  and  C_3
REMARK    3  A    between atoms: C_3  and  C_4
REMARK    4  A    between atoms: C_6  and  C_7
REMARK    5  A    between atoms: N_9  and  C_10
REMARK    6  A    between atoms: C_10  and  C_11
REMARK    7  A    between atoms: C_10  and  C_14
REMARK    8  A    between atoms: C_11  and  C_12
REMARK    9  A    between atoms: C_11  and  O_13
REMARK   10  A    between atoms: C_16  and  S_17
REMARK   11  A    between atoms: S_17  and  C_18
REMARK   12  A    between atoms: C_19  and  O_20
REMARK   13  A    between atoms: C_21  and  O_22
REMARK   14  A    between atoms: C_23  and  O_24
REMARK   15  A    between atoms: N_25  and  C_26
REMARK                            x       y       z     vdW  Elec       q    Type
REMARK                         _______ _______ _______ _____ _____    ______ ____
ROOT
ATOM      1  C   UNL     1       6.414   4.724  17.969  0.00  0.00    +0.000 C 
ENDROOT
BRANCH   1   2
ATOM      2  C   UNL     1       4.958   4.494  18.489  0.00  0.00    +0.000 C 
ATOM      3  O   UNL     1       4.964   3.541  19.568  0.00  0.00    +0.000 OA
ATOM      4  C   UNL     1       3.661   3.213  20.078  0.00  0.00    +0.000 C 
ATOM      5  C   UNL     1       3.025   4.495  20.657  0.00  0.00    +0.000 C 
ATOM      6  C   UNL     1       2.909   5.564  19.563  0.00  0.00    +0.000 C 
ATOM      7  C   UNL     1       4.259   5.811  18.874  0.00  0.00    +0.000 C 
BRANCH   4   8
ATOM      8  S   UNL     1       2.560   2.382  18.858  0.00  0.00    +0.000 S 
ATOM      9  C   UNL     1       3.697   1.131  18.212  0.00  0.00    +0.000 C 
ENDBRANCH   4   8
BRANCH   5  10
ATOM     10  O   UNL     1       1.765   4.266  21.293  0.00  0.00    +0.000 OA
ATOM     11  H   UNL     1       1.622   3.301  21.324  0.00  0.00    +0.000 HD
ENDBRANCH   5  10
BRANCH   6  12
ATOM     12  O   UNL     1       2.428   6.815  20.084  0.00  0.00    +0.000 OA
ATOM     13  H   UNL     1       2.907   7.536  19.635  0.00  0.00    +0.000 HD
ENDBRANCH   6  12
BRANCH   7  14
ATOM     14  O   UNL     1       4.038   6.603  17.699  0.00  0.00    +0.000 OA
ATOM     15  H   UNL     1       4.900   6.686  17.246  0.00  0.00    +0.000 HD
ENDBRANCH   7  14
ENDBRANCH   1   2
BRANCH   1  18
ATOM     16  C   UNL     1       5.474   4.414  15.686  0.00  0.00    +0.000 C 
ATOM     17  O   UNL     1       4.483   3.827  16.119  0.00  0.00    +0.000 OA
ATOM     18  N   UNL     1       6.467   4.902  16.511  0.00  0.00    +0.000 N 
ATOM     19  H   UNL     1       7.272   5.317  16.060  0.00  0.00    +0.000 HD
BRANCH  16  22
ATOM     20  C   UNL     1       5.850   3.106  12.224  0.00  0.00    +0.000 C 
ATOM     21  C   UNL     1       4.954   3.470  13.414  0.00  0.00    +0.000 C 
ATOM     22  C   UNL     1       5.708   4.555  14.177  0.00  0.00    +0.000 C 
ATOM     23  N   UNL     1       7.124   4.345  13.776  0.00  0.00    +0.000 NA
ATOM     24  C   UNL     1       7.927   5.549  14.006  0.00  0.00    +0.000 C 
ATOM     25  C   UNL     1       7.038   4.060  12.333  0.00  0.00    +0.000 C 
BRANCH  20  26
ATOM     26  C   UNL     1       5.089   3.201  10.894  0.00  0.00    +0.000 C 
BRANCH  26  28
ATOM     27  C   UNL     1       2.983   4.085   9.845  0.00  0.00    +0.000 C 
ATOM     28  C   UNL     1       3.583   3.399  11.065  0.00  0.00    +0.000 C 
ENDBRANCH  26  28
ENDBRANCH  20  26
ENDBRANCH  16  22
ENDBRANCH   1  18
BRANCH   1  29
ATOM     29  C   UNL     1       7.088   5.912  18.716  0.00  0.00    +0.000 C 
ATOM     30  C   UNL     1       7.678   6.969  17.790  0.00  0.00    +0.000 C 
BRANCH  29  31
ATOM     31  O   UNL     1       8.155   5.447  19.553  0.00  0.00    +0.000 OA
ATOM     32  H   UNL     1       8.993   5.707  19.128  0.00  0.00    +0.000 HD
ENDBRANCH  29  31
ENDBRANCH   1  29
TORSDOF 11
ENDMDL
MODEL 8
REMARK VINA RESULT:      -6.1      1.123      1.346
REMARK  Name = 
REMARK  15 active torsions:
REMARK  status: ('A' for Active; 'I' for Inactive)
REMARK    1  A    between atoms: C_1  and  C_2
REMARK    2  A    between atoms: C_2  and  C_3
REMARK    3  A    between atoms: C_3  and  C_4
REMARK    4  A    between atoms: C_6  and  C_7
REMARK    5  A    between atoms: N_9  and  C_10
REMARK    6  A    between atoms: C_10  and  C_11
REMARK    7  A    between atoms: C_10  and  C_14
REMARK    8  A    between atoms: C_11  and  C_12
REMARK    9  A    between atoms: C_11  and  O_13
REMARK   10  A    between atoms: C_16  and  S_17
REMARK   11  A    between atoms: S_17  and  C_18
REMARK   12  A    between atoms: C_19  and  O_20
REMARK   13  A    between atoms: C_21  and  O_22
REMARK   14  A    between atoms: C_23  and  O_24
REMARK   15  A    between atoms: N_25  and  C_26
REMARK                            x       y       z     vdW  Elec       q    Type
REMARK                         _______ _______ _______ _____ _____    ______ ____
ROOT
ATOM      1  C   UNL     1       5.440   4.660  17.665  0.00  0.00    +0.000 C 
ENDROOT
BRANCH   1   2
ATOM      2  C   UNL     1       4.279   3.956  18.440  0.00  0.00    +0.000 C 
ATOM      3  O   UNL     1       3.393   4.943  19.003  0.00  0.00    +0.000 OA
ATOM      4  C   UNL     1       2.322   4.398  19.789  0.00  0.00    +0.000 C 
ATOM      5  C   UNL     1       1.440   3.520  18.875  0.00  0.00    +0.000 C 
ATOM      6  C   UNL     1       2.278   2.387  18.270  0.00  0.00    +0.000 C 
ATOM      7  C   UNL     1       3.533   2.928  17.570  0.00  0.00    +0.000 C 
BRANCH   4   8
ATOM      8  S   UNL     1       2.873   3.496  21.297  0.00  0.00    +0.000 S 
ATOM      9  C   UNL     1       1.304   2.750  21.805  0.00  0.00    +0.000 C 
ENDBRANCH   4   8
BRANCH   5  10
ATOM     10  O   UNL     1       0.275   3.010  19.529  0.00  0.00    +0.000 OA
ATOM     11  H   UNL     1      -0.330   3.761  19.680  0.00  0.00    +0.000 HD
ENDBRANCH   5  10
BRANCH   6  12
ATOM     12  O   UNL     1       1.525   1.611  17.321  0.00  0.00    +0.000 OA
ATOM     13  H   UNL     1       1.240   2.205  16.602  0.00  0.00    +0.000 HD
ENDBRANCH   6  12
BRANCH   7  14
ATOM     14  O   UNL     1       4.402   1.828  17.269  0.00  0.00    +0.000 OA
ATOM     15  H   UNL     1       5.318   2.147  17.395  0.00  0.00    +0.000 HD
ENDBRANCH   7  14
ENDBRANCH   1   2
BRANCH   1  18
ATOM     16  C   UNL     1       6.416   4.523  15.380  0.00  0.00    +0.000 C 
ATOM     17  O   UNL     1       7.564   4.635  15.809  0.00  0.00    +0.000 OA
ATOM     18  N   UNL     1       5.312   4.509  16.208  0.00  0.00    +0.000 N 
ATOM     19  H   UNL     1       4.406   4.472  15.760  0.00  0.00    +0.000 HD
BRANCH  16  22
ATOM     20  C   UNL     1       5.862   2.807  12.126  0.00  0.00    +0.000 C 
ATOM     21  C   UNL     1       5.346   3.232  13.506  0.00  0.00    +0.000 C 
ATOM     22  C   UNL     1       6.139   4.483  13.872  0.00  0.00    +0.000 C 
ATOM     23  N   UNL     1       7.371   4.371  13.048  0.00  0.00    +0.000 NA
ATOM     24  C   UNL     1       8.024   5.672  12.887  0.00  0.00    +0.000 C 
ATOM     25  C   UNL     1       6.875   3.887  11.747  0.00  0.00    +0.000 C 
BRANCH  20  26
ATOM     26  C   UNL     1       4.716   2.642  11.120  0.00  0.00    +0.000 C 
BRANCH  26  28
ATOM     27  C   UNL     1       3.122   3.995   9.724  0.00  0.00    +0.000 C 
ATOM     28  C   UNL     1       3.742   3.820  11.104  0.00  0.00    +0.000 C 
ENDBRANCH  26  28
ENDBRANCH  20  26
ENDBRANCH  16  22
ENDBRANCH   1  18
BRANCH   1  29
ATOM     29  C   UNL     1       5.556   6.156  18.079  0.00  0.00    +0.000 C 
ATOM     30  C   UNL     1       4.847   7.116  17.130  0.00  0.00    +0.000 C 
BRANCH  29  31
ATOM     31  O   UNL     1       6.929   6.563  18.136  0.00  0.00    +0.000 OA
ATOM     32  H   UNL     1       7.206   6.527  19.069  0.00  0.00    +0.000 HD
ENDBRANCH  29  31
ENDBRANCH   1  29
TORSDOF 11
ENDMDL
MODEL 9
REMARK VINA RESULT:      -6.1      1.474      2.456
REMARK  Name = 
REMARK  15 active torsions:
REMARK  status: ('A' for Active; 'I' for Inactive)
REMARK    1  A    between atoms: C_1  and  C_2
REMARK    2  A    between atoms: C_2  and  C_3
REMARK    3  A    between atoms: C_3  and  C_4
REMARK    4  A    between atoms: C_6  and  C_7
REMARK    5  A    between atoms: N_9  and  C_10
REMARK    6  A    between atoms: C_10  and  C_11
REMARK    7  A    between atoms: C_10  and  C_14
REMARK    8  A    between atoms: C_11  and  C_12
REMARK    9  A    between atoms: C_11  and  O_13
REMARK   10  A    between atoms: C_16  and  S_17
REMARK   11  A    between atoms: S_17  and  C_18
REMARK   12  A    between atoms: C_19  and  O_20
REMARK   13  A    between atoms: C_21  and  O_22
REMARK   14  A    between atoms: C_23  and  O_24
REMARK   15  A    between atoms: N_25  and  C_26
REMARK                            x       y       z     vdW  Elec       q    Type
REMARK                         _______ _______ _______ _____ _____    ______ ____
ROOT
ATOM      1  C   UNL     1       5.749   4.810  17.777  0.00  0.00    +0.000 C 
ENDROOT
BRANCH   1   2
ATOM      2  C   UNL     1       4.479   4.372  18.575  0.00  0.00    +0.000 C 
ATOM      3  O   UNL     1       4.831   3.376  19.554  0.00  0.00    +0.000 OA
ATOM      4  C   UNL     1       3.718   2.860  20.302  0.00  0.00    +0.000 C 
ATOM      5  C   UNL     1       3.084   4.021  21.099  0.00  0.00    +0.000 C 
ATOM      6  C   UNL     1       2.609   5.119  20.138  0.00  0.00    +0.000 C 
ATOM      7  C   UNL     1       3.737   5.569  19.198  0.00  0.00    +0.000 C 
BRANCH   4   8
ATOM      8  S   UNL     1       2.477   1.956  19.287  0.00  0.00    +0.000 S 
ATOM      9  C   UNL     1       3.575   1.160  18.088  0.00  0.00    +0.000 C 
ENDBRANCH   4   8
BRANCH   5  10
ATOM     10  O   UNL     1       2.029   3.603  21.969  0.00  0.00    +0.000 OA
ATOM     11  H   UNL     1       1.988   2.628  21.935  0.00  0.00    +0.000 HD
ENDBRANCH   5  10
BRANCH   6  12
ATOM     12  O   UNL     1       2.116   6.271  20.843  0.00  0.00    +0.000 OA
ATOM     13  H   UNL     1       2.811   6.573  21.457  0.00  0.00    +0.000 HD
ENDBRANCH   6  12
BRANCH   7  14
ATOM     14  O   UNL     1       3.174   6.382  18.161  0.00  0.00    +0.000 OA
ATOM     15  H   UNL     1       3.581   6.093  17.320  0.00  0.00    +0.000 HD
ENDBRANCH   7  14
ENDBRANCH   1   2
BRANCH   1  18
ATOM     16  C   UNL     1       6.622   4.483  15.470  0.00  0.00    +0.000 C 
ATOM     17  O   UNL     1       7.776   4.339  15.872  0.00  0.00    +0.000 OA
ATOM     18  N   UNL     1       5.561   4.704  16.322  0.00  0.00    +0.000 N 
ATOM     19  H   UNL     1       4.658   4.869  15.895  0.00  0.00    +0.000 HD
BRANCH  16  22
ATOM     20  C   UNL     1       5.986   2.930  12.150  0.00  0.00    +0.000 C 
ATOM     21  C   UNL     1       5.503   3.290  13.560  0.00  0.00    +0.000 C 
ATOM     22  C   UNL     1       6.311   4.518  13.968  0.00  0.00    +0.000 C 
ATOM     23  N   UNL     1       7.523   4.440  13.111  0.00  0.00    +0.000 NA
ATOM     24  C   UNL     1       8.180   5.745  12.998  0.00  0.00    +0.000 C 
ATOM     25  C   UNL     1       6.995   4.021  11.801  0.00  0.00    +0.000 C 
BRANCH  20  26
ATOM     26  C   UNL     1       4.816   2.818  11.163  0.00  0.00    +0.000 C 
BRANCH  26  28
ATOM     27  C   UNL     1       3.057   4.100   9.906  0.00  0.00    +0.000 C 
ATOM     28  C   UNL     1       3.882   4.028  11.184  0.00  0.00    +0.000 C 
ENDBRANCH  26  28
ENDBRANCH  20  26
ENDBRANCH  16  22
ENDBRANCH   1  18
BRANCH   1  29
ATOM     29  C   UNL     1       6.199   6.241  18.193  0.00  0.00    +0.000 C 
ATOM     30  C   UNL     1       6.257   7.232  17.036  0.00  0.00    +0.000 C 
BRANCH  29  31
ATOM     31  O   UNL     1       7.505   6.213  18.783  0.00  0.00    +0.000 OA
ATOM     32  H   UNL     1       7.861   5.314  18.661  0.00  0.00    +0.000 HD
ENDBRANCH  29  31
ENDBRANCH   1  29
TORSDOF 11
ENDMDL
