MODEL 1
REMARK VINA RESULT:      -8.6      0.000      0.000
REMARK  Name = 
REMARK  11 active torsions:
REMARK  status: ('A' for Active; 'I' for Inactive)
REMARK    1  A    between atoms: C_1  and  O_2
REMARK    2  A    between atoms: O_2  and  C_3
REMARK    3  A    between atoms: C_8  and  C_9
REMARK    4  A    between atoms: C_9  and  C_11
REMARK    5  A    between atoms: C_11  and  O_12
REMARK    6  A    between atoms: O_12  and  C_13
REMARK    7  A    between atoms: C_13  and  C_15
REMARK    8  A    between atoms: N_18  and  S_19
REMARK    9  A    between atoms: S_19  and  C_22
REMARK   10  A    between atoms: C_25  and  C_26
REMARK   11  A    between atoms: C_27  and  C_28
REMARK                            x       y       z     vdW  Elec       q    Type
REMARK                         _______ _______ _______ _____ _____    ______ ____
ROOT
ATOM      1  C   UNL     1       7.293   5.781  16.949  0.00  0.00    +0.000 C 
ATOM      2  C   UNL     1       6.470   5.184  15.798  0.00  0.00    +0.000 C 
ATOM      3  C   UNL     1       5.028   4.916  16.229  0.00  0.00    +0.000 C 
ATOM      4  N   UNL     1       4.998   3.985  17.397  0.00  0.00    +0.000 NA
ATOM      5  C   UNL     1       5.798   4.478  18.554  0.00  0.00    +0.000 C 
ATOM      6  C   UNL     1       7.232   4.813  18.136  0.00  0.00    +0.000 C 
ENDROOT
BRANCH   4   7
ATOM      7  S   UNL     1       3.399   3.543  17.879  0.00  0.00    +0.000 S 
ATOM      8  O   UNL     1       2.593   3.378  16.685  0.00  0.00    +0.000 OA
ATOM      9  O   UNL     1       3.526   2.462  18.846  0.00  0.00    +0.000 OA
BRANCH   7  10
ATOM     10  C   UNL     1       2.814   4.989  18.716  0.00  0.00    +0.000 A 
ATOM     11  C   UNL     1       2.479   4.890  20.066  0.00  0.00    +0.000 A 
ATOM     12  C   UNL     1       2.014   6.020  20.738  0.00  0.00    +0.000 A 
ATOM     13  C   UNL     1       1.887   7.255  20.076  0.00  0.00    +0.000 A 
ATOM     14  C   UNL     1       1.366   8.436  20.848  0.00  0.00    +0.000 C 
ATOM     15  C   UNL     1       2.256   7.355  18.718  0.00  0.00    +0.000 A 
ATOM     16  C   UNL     1       2.198   8.645  17.944  0.00  0.00    +0.000 C 
ATOM     17  C   UNL     1       2.725   6.211  18.047  0.00  0.00    +0.000 A 
ENDBRANCH   7  10
ENDBRANCH   4   7
BRANCH   1  18
ATOM     18  C   UNL     1       6.774   7.190  17.236  0.00  0.00    +0.000 C 
ATOM     19  O   UNL     1       5.706   7.403  17.795  0.00  0.00    +0.000 OA
BRANCH  18  20
ATOM     20  O   UNL     1       7.698   8.144  16.952  0.00  0.00    +0.000 OA
BRANCH  20  21
ATOM     21  C   UNL     1       8.301   8.739  18.109  0.00  0.00    +0.000 C 
BRANCH  21  22
ATOM     22  C   UNL     1       8.439  10.250  18.053  0.00  0.00    +0.000 C 
ATOM     23  O   UNL     1       7.595  10.942  17.478  0.00  0.00    +0.000 OA
BRANCH  22  29
ATOM     24  C   UNL     1       9.907  11.140  20.011  0.00  0.00    +0.000 A 
ATOM     25  C   UNL     1      11.147  11.678  20.404  0.00  0.00    +0.000 A 
ATOM     26  C   UNL     1      12.083  12.098  19.460  0.00  0.00    +0.000 A 
ATOM     27  C   UNL     1      11.811  11.946  18.109  0.00  0.00    +0.000 A 
ATOM     28  C   UNL     1      10.619  11.341  17.707  0.00  0.00    +0.000 A 
ATOM     29  C   UNL     1       9.656  10.918  18.642  0.00  0.00    +0.000 A 
BRANCH  24  31
ATOM     30  C   UNL     1       8.633  11.852  21.885  0.00  0.00    +0.000 C 
ATOM     31  O   UNL     1       8.953  10.822  20.944  0.00  0.00    +0.000 OA
ENDBRANCH  24  31
ENDBRANCH  22  29
ENDBRANCH  21  22
ENDBRANCH  20  21
ENDBRANCH  18  20
ENDBRANCH   1  18
TORSDOF 8
ENDMDL
MODEL 2
REMARK VINA RESULT:      -8.5      1.040      1.770
REMARK  Name = 
REMARK  11 active torsions:
REMARK  status: ('A' for Active; 'I' for Inactive)
REMARK    1  A    between atoms: C_1  and  O_2
REMARK    2  A    between atoms: O_2  and  C_3
REMARK    3  A    between atoms: C_8  and  C_9
REMARK    4  A    between atoms: C_9  and  C_11
REMARK    5  A    between atoms: C_11  and  O_12
REMARK    6  A    between atoms: O_12  and  C_13
REMARK    7  A    between atoms: C_13  and  C_15
REMARK    8  A    between atoms: N_18  and  S_19
REMARK    9  A    between atoms: S_19  and  C_22
REMARK   10  A    between atoms: C_25  and  C_26
REMARK   11  A    between atoms: C_27  and  C_28
REMARK                            x       y       z     vdW  Elec       q    Type
REMARK                         _______ _______ _______ _____ _____    ______ ____
ROOT
ATOM      1  C   UNL     1       7.618   5.881  17.903  0.00  0.00    +0.000 C 
ATOM      2  C   UNL     1       7.218   4.755  16.939  0.00  0.00    +0.000 C 
ATOM      3  C   UNL     1       5.708   4.520  16.959  0.00  0.00    +0.000 C 
ATOM      4  N   UNL     1       5.252   4.177  18.339  0.00  0.00    +0.000 NA
ATOM      5  C   UNL     1       5.626   5.209  19.348  0.00  0.00    +0.000 C 
ATOM      6  C   UNL     1       7.126   5.510  19.306  0.00  0.00    +0.000 C 
ENDROOT
BRANCH   4   7
ATOM      7  S   UNL     1       3.571   3.788  18.429  0.00  0.00    +0.000 S 
ATOM      8  O   UNL     1       3.080   3.580  17.080  0.00  0.00    +0.000 OA
ATOM      9  O   UNL     1       3.424   2.754  19.442  0.00  0.00    +0.000 OA
BRANCH   7  10
ATOM     10  C   UNL     1       2.842   5.283  19.032  0.00  0.00    +0.000 A 
ATOM     11  C   UNL     1       2.308   5.294  20.321  0.00  0.00    +0.000 A 
ATOM     12  C   UNL     1       1.727   6.463  20.808  0.00  0.00    +0.000 A 
ATOM     13  C   UNL     1       1.680   7.631  20.024  0.00  0.00    +0.000 A 
ATOM     14  C   UNL     1       1.026   8.859  20.598  0.00  0.00    +0.000 C 
ATOM     15  C   UNL     1       2.247   7.622  18.733  0.00  0.00    +0.000 A 
ATOM     16  C   UNL     1       2.284   8.836  17.843  0.00  0.00    +0.000 C 
ATOM     17  C   UNL     1       2.832   6.438  18.248  0.00  0.00    +0.000 A 
ENDBRANCH   7  10
ENDBRANCH   4   7
BRANCH   1  18
ATOM     18  C   UNL     1       7.079   7.202  17.357  0.00  0.00    +0.000 C 
ATOM     19  O   UNL     1       5.882   7.450  17.281  0.00  0.00    +0.000 OA
BRANCH  18  20
ATOM     20  O   UNL     1       8.066   8.105  17.129  0.00  0.00    +0.000 OA
BRANCH  20  21
ATOM     21  C   UNL     1       8.525   8.783  18.307  0.00  0.00    +0.000 C 
BRANCH  21  22
ATOM     22  C   UNL     1       8.543  10.298  18.208  0.00  0.00    +0.000 C 
ATOM     23  O   UNL     1       7.861  10.885  17.364  0.00  0.00    +0.000 OA
BRANCH  22  29
ATOM     24  C   UNL     1      10.576  11.851  18.695  0.00  0.00    +0.000 A 
ATOM     25  C   UNL     1      11.257  12.639  19.643  0.00  0.00    +0.000 A 
ATOM     26  C   UNL     1      10.910  12.604  20.992  0.00  0.00    +0.000 A 
ATOM     27  C   UNL     1       9.849  11.813  21.408  0.00  0.00    +0.000 A 
ATOM     28  C   UNL     1       9.116  11.089  20.469  0.00  0.00    +0.000 A 
ATOM     29  C   UNL     1       9.453  11.101  19.102  0.00  0.00    +0.000 A 
BRANCH  24  31
ATOM     30  C   UNL     1      11.226  13.087  16.774  0.00  0.00    +0.000 C 
ATOM     31  O   UNL     1      10.986  11.815  17.387  0.00  0.00    +0.000 OA
ENDBRANCH  24  31
ENDBRANCH  22  29
ENDBRANCH  21  22
ENDBRANCH  20  21
ENDBRANCH  18  20
ENDBRANCH   1  18
TORSDOF 8
ENDMDL
MODEL 3
REMARK VINA RESULT:      -8.4      1.300      1.749
REMARK  Name = 
REMARK  11 active torsions:
REMARK  status: ('A' for Active; 'I' for Inactive)
REMARK    1  A    between atoms: C_1  and  O_2
REMARK    2  A    between atoms: O_2  and  C_3
REMARK    3  A    between atoms: C_8  and  C_9
REMARK    4  A    between atoms: C_9  and  C_11
REMARK    5  A    between atoms: C_11  and  O_12
REMARK    6  A    between atoms: O_12  and  C_13
REMARK    7  A    between atoms: C_13  and  C_15
REMARK    8  A    between atoms: N_18  and  S_19
REMARK    9  A    between atoms: S_19  and  C_22
REMARK   10  A    between atoms: C_25  and  C_26
REMARK   11  A    between atoms: C_27  and  C_28
REMARK                            x       y       z     vdW  Elec       q    Type
REMARK                         _______ _______ _______ _____ _____    ______ ____
ROOT
ATOM      1  C   UNL     1       7.774   5.948  17.948  0.00  0.00    +0.000 C 
ATOM      2  C   UNL     1       7.410   4.853  16.934  0.00  0.00    +0.000 C 
ATOM      3  C   UNL     1       5.900   4.618  16.892  0.00  0.00    +0.000 C 
ATOM      4  N   UNL     1       5.395   4.232  18.244  0.00  0.00    +0.000 NA
ATOM      5  C   UNL     1       5.731   5.231  19.298  0.00  0.00    +0.000 C 
ATOM      6  C   UNL     1       7.232   5.533  19.320  0.00  0.00    +0.000 C 
ENDROOT
BRANCH   4   7
ATOM      7  S   UNL     1       3.713   3.841  18.261  0.00  0.00    +0.000 S 
ATOM      8  O   UNL     1       3.267   3.694  16.888  0.00  0.00    +0.000 OA
ATOM      9  O   UNL     1       3.533   2.762  19.221  0.00  0.00    +0.000 OA
BRANCH   7  10
ATOM     10  C   UNL     1       2.963   5.308  18.905  0.00  0.00    +0.000 A 
ATOM     11  C   UNL     1       2.495   5.298  20.220  0.00  0.00    +0.000 A 
ATOM     12  C   UNL     1       1.899   6.445  20.740  0.00  0.00    +0.000 A 
ATOM     13  C   UNL     1       1.771   7.612  19.964  0.00  0.00    +0.000 A 
ATOM     14  C   UNL     1       1.105   8.815  20.574  0.00  0.00    +0.000 C 
ATOM     15  C   UNL     1       2.272   7.625  18.645  0.00  0.00    +0.000 A 
ATOM     16  C   UNL     1       2.220   8.841  17.759  0.00  0.00    +0.000 C 
ATOM     17  C   UNL     1       2.873   6.463  18.126  0.00  0.00    +0.000 A 
ENDBRANCH   7  10
ENDBRANCH   4   7
BRANCH   1  18
ATOM     18  C   UNL     1       7.254   7.286  17.424  0.00  0.00    +0.000 C 
ATOM     19  O   UNL     1       6.061   7.526  17.287  0.00  0.00    +0.000 OA
BRANCH  18  20
ATOM     20  O   UNL     1       8.243   8.206  17.295  0.00  0.00    +0.000 OA
BRANCH  20  21
ATOM     21  C   UNL     1       7.889   9.517  17.756  0.00  0.00    +0.000 C 
BRANCH  21  22
ATOM     22  C   UNL     1       8.949  10.208  18.596  0.00  0.00    +0.000 C 
ATOM     23  O   UNL     1       9.229   9.796  19.725  0.00  0.00    +0.000 OA
BRANCH  22  29
ATOM     24  C   UNL     1       9.012  12.707  17.865  0.00  0.00    +0.000 A 
ATOM     25  C   UNL     1       9.809  13.805  17.489  0.00  0.00    +0.000 A 
ATOM     26  C   UNL     1      11.168  13.651  17.222  0.00  0.00    +0.000 A 
ATOM     27  C   UNL     1      11.760  12.406  17.369  0.00  0.00    +0.000 A 
ATOM     28  C   UNL     1      10.999  11.326  17.817  0.00  0.00    +0.000 A 
ATOM     29  C   UNL     1       9.623  11.455  18.084  0.00  0.00    +0.000 A 
BRANCH  24  31
ATOM     30  C   UNL     1       7.112  14.117  17.660  0.00  0.00    +0.000 C 
ATOM     31  O   UNL     1       7.658  12.845  18.029  0.00  0.00    +0.000 OA
ENDBRANCH  24  31
ENDBRANCH  22  29
ENDBRANCH  21  22
ENDBRANCH  20  21
ENDBRANCH  18  20
ENDBRANCH   1  18
TORSDOF 8
ENDMDL
MODEL 4
REMARK VINA RESULT:      -8.2      1.243      1.845
REMARK  Name = 
REMARK  11 active torsions:
REMARK  status: ('A' for Active; 'I' for Inactive)
REMARK    1  A    between atoms: C_1  and  O_2
REMARK    2  A    between atoms: O_2  and  C_3
REMARK    3  A    between atoms: C_8  and  C_9
REMARK    4  A    between atoms: C_9  and  C_11
REMARK    5  A    between atoms: C_11  and  O_12
REMARK    6  A    between atoms: O_12  and  C_13
REMARK    7  A    between atoms: C_13  and  C_15
REMARK    8  A    between atoms: N_18  and  S_19
REMARK    9  A    between atoms: S_19  and  C_22
REMARK   10  A    between atoms: C_25  and  C_26
REMARK   11  A    between atoms: C_27  and  C_28
REMARK                            x       y       z     vdW  Elec       q    Type
REMARK                         _______ _______ _______ _____ _____    ______ ____
ROOT
ATOM      1  C   UNL     1       6.968   6.031  16.671  0.00  0.00    +0.000 C 
ATOM      2  C   UNL     1       5.686   6.758  16.243  0.00  0.00    +0.000 C 
ATOM      3  C   UNL     1       4.613   6.674  17.328  0.00  0.00    +0.000 C 
ATOM      4  N   UNL     1       4.296   5.247  17.638  0.00  0.00    +0.000 NA
ATOM      5  C   UNL     1       5.496   4.459  18.038  0.00  0.00    +0.000 C 
ATOM      6  C   UNL     1       6.611   4.576  16.996  0.00  0.00    +0.000 C 
ENDROOT
BRANCH   4   7
ATOM      7  S   UNL     1       3.011   5.064  18.779  0.00  0.00    +0.000 S 
ATOM      8  O   UNL     1       1.981   4.240  18.175  0.00  0.00    +0.000 OA
ATOM      9  O   UNL     1       3.617   4.687  20.048  0.00  0.00    +0.000 OA
BRANCH   7  10
ATOM     10  C   UNL     1       2.360   6.703  18.923  0.00  0.00    +0.000 A 
ATOM     11  C   UNL     1       2.125   7.433  17.758  0.00  0.00    +0.000 A 
ATOM     12  C   UNL     1       1.616   8.727  17.856  0.00  0.00    +0.000 A 
ATOM     13  C   UNL     1       1.328   9.300  19.109  0.00  0.00    +0.000 A 
ATOM     14  C   UNL     1       0.794  10.706  19.153  0.00  0.00    +0.000 C 
ATOM     15  C   UNL     1       1.540   8.545  20.282  0.00  0.00    +0.000 A 
ATOM     16  C   UNL     1       1.218   9.060  21.659  0.00  0.00    +0.000 C 
ATOM     17  C   UNL     1       2.054   7.240  20.175  0.00  0.00    +0.000 A 
ENDBRANCH   7  10
ENDBRANCH   4   7
BRANCH   1  18
ATOM     18  C   UNL     1       7.608   6.812  17.819  0.00  0.00    +0.000 C 
ATOM     19  O   UNL     1       7.895   6.297  18.893  0.00  0.00    +0.000 OA
BRANCH  18  20
ATOM     20  O   UNL     1       7.962   8.069  17.449  0.00  0.00    +0.000 OA
BRANCH  20  21
ATOM     21  C   UNL     1       8.566   8.840  18.497  0.00  0.00    +0.000 C 
BRANCH  21  22
ATOM     22  C   UNL     1       8.671  10.329  18.217  0.00  0.00    +0.000 C 
ATOM     23  O   UNL     1       7.834  10.901  17.513  0.00  0.00    +0.000 OA
BRANCH  22  29
ATOM     24  C   UNL     1      10.090  11.455  20.088  0.00  0.00    +0.000 A 
ATOM     25  C   UNL     1      11.296  12.097  20.427  0.00  0.00    +0.000 A 
ATOM     26  C   UNL     1      12.199  12.501  19.445  0.00  0.00    +0.000 A 
ATOM     27  C   UNL     1      11.929  12.230  18.112  0.00  0.00    +0.000 A 
ATOM     28  C   UNL     1      10.776  11.524  17.768  0.00  0.00    +0.000 A 
ATOM     29  C   UNL     1       9.846  11.114  18.742  0.00  0.00    +0.000 A 
BRANCH  24  31
ATOM     30  C   UNL     1       8.990  12.127  22.083  0.00  0.00    +0.000 C 
ATOM     31  O   UNL     1       9.162  11.149  21.051  0.00  0.00    +0.000 OA
ENDBRANCH  24  31
ENDBRANCH  22  29
ENDBRANCH  21  22
ENDBRANCH  20  21
ENDBRANCH  18  20
ENDBRANCH   1  18
TORSDOF 8
ENDMDL
MODEL 5
REMARK VINA RESULT:      -8.1      1.494      2.223
REMARK  Name = 
REMARK  11 active torsions:
REMARK  status: ('A' for Active; 'I' for Inactive)
REMARK    1  A    between atoms: C_1  and  O_2
REMARK    2  A    between atoms: O_2  and  C_3
REMARK    3  A    between atoms: C_8  and  C_9
REMARK    4  A    between atoms: C_9  and  C_11
REMARK    5  A    between atoms: C_11  and  O_12
REMARK    6  A    between atoms: O_12  and  C_13
REMARK    7  A    between atoms: C_13  and  C_15
REMARK    8  A    between atoms: N_18  and  S_19
REMARK    9  A    between atoms: S_19  and  C_22
REMARK   10  A    between atoms: C_25  and  C_26
REMARK   11  A    between atoms: C_27  and  C_28
REMARK                            x       y       z     vdW  Elec       q    Type
REMARK                         _______ _______ _______ _____ _____    ______ ____
ROOT
ATOM      1  C   UNL     1       7.762   6.184  17.557  0.00  0.00    +0.000 C 
ATOM      2  C   UNL     1       7.027   5.421  16.446  0.00  0.00    +0.000 C 
ATOM      3  C   UNL     1       5.531   5.316  16.743  0.00  0.00    +0.000 C 
ATOM      4  N   UNL     1       5.307   4.628  18.051  0.00  0.00    +0.000 NA
ATOM      5  C   UNL     1       6.011   5.292  19.185  0.00  0.00    +0.000 C 
ATOM      6  C   UNL     1       7.502   5.467  18.887  0.00  0.00    +0.000 C 
ENDROOT
BRANCH   4   7
ATOM      7  S   UNL     1       3.637   4.370  18.411  0.00  0.00    +0.000 S 
ATOM      8  O   UNL     1       3.007   3.777  17.247  0.00  0.00    +0.000 OA
ATOM      9  O   UNL     1       3.575   3.712  19.707  0.00  0.00    +0.000 OA
BRANCH   7  10
ATOM     10  C   UNL     1       3.000   6.013  18.576  0.00  0.00    +0.000 A 
ATOM     11  C   UNL     1       3.064   6.868  17.476  0.00  0.00    +0.000 A 
ATOM     12  C   UNL     1       2.569   8.166  17.592  0.00  0.00    +0.000 A 
ATOM     13  C   UNL     1       2.000   8.620  18.796  0.00  0.00    +0.000 A 
ATOM     14  C   UNL     1       1.496  10.036  18.866  0.00  0.00    +0.000 C 
ATOM     15  C   UNL     1       1.911   7.741  19.895  0.00  0.00    +0.000 A 
ATOM     16  C   UNL     1       1.277   8.125  21.206  0.00  0.00    +0.000 C 
ATOM     17  C   UNL     1       2.412   6.432  19.771  0.00  0.00    +0.000 A 
ENDBRANCH   7  10
ENDBRANCH   4   7
BRANCH   1  18
ATOM     18  C   UNL     1       7.320   7.647  17.515  0.00  0.00    +0.000 C 
ATOM     19  O   UNL     1       6.317   8.020  16.920  0.00  0.00    +0.000 OA
BRANCH  18  20
ATOM     20  O   UNL     1       8.064   8.432  18.335  0.00  0.00    +0.000 OA
BRANCH  20  21
ATOM     21  C   UNL     1       8.366   9.726  17.795  0.00  0.00    +0.000 C 
BRANCH  21  22
ATOM     22  C   UNL     1       9.201  10.617  18.697  0.00  0.00    +0.000 C 
ATOM     23  O   UNL     1       9.320  10.367  19.900  0.00  0.00    +0.000 OA
BRANCH  22  29
ATOM     24  C   UNL     1       9.268  13.152  18.104  0.00  0.00    +0.000 A 
ATOM     25  C   UNL     1      10.044  14.237  17.653  0.00  0.00    +0.000 A 
ATOM     26  C   UNL     1      11.325  14.043  17.140  0.00  0.00    +0.000 A 
ATOM     27  C   UNL     1      11.867  12.767  17.110  0.00  0.00    +0.000 A 
ATOM     28  C   UNL     1      11.140  11.694  17.627  0.00  0.00    +0.000 A 
ATOM     29  C   UNL     1       9.841  11.864  18.142  0.00  0.00    +0.000 A 
BRANCH  24  31
ATOM     30  C   UNL     1       7.163  14.162  17.669  0.00  0.00    +0.000 C 
ATOM     31  O   UNL     1       7.973  13.338  18.515  0.00  0.00    +0.000 OA
ENDBRANCH  24  31
ENDBRANCH  22  29
ENDBRANCH  21  22
ENDBRANCH  20  21
ENDBRANCH  18  20
ENDBRANCH   1  18
TORSDOF 8
ENDMDL
MODEL 6
REMARK VINA RESULT:      -8.0      4.669      7.755
REMARK  Name = 
REMARK  11 active torsions:
REMARK  status: ('A' for Active; 'I' for Inactive)
REMARK    1  A    between atoms: C_1  and  O_2
REMARK    2  A    between atoms: O_2  and  C_3
REMARK    3  A    between atoms: C_8  and  C_9
REMARK    4  A    between atoms: C_9  and  C_11
REMARK    5  A    between atoms: C_11  and  O_12
REMARK    6  A    between atoms: O_12  and  C_13
REMARK    7  A    between atoms: C_13  and  C_15
REMARK    8  A    between atoms: N_18  and  S_19
REMARK    9  A    between atoms: S_19  and  C_22
REMARK   10  A    between atoms: C_25  and  C_26
REMARK   11  A    between atoms: C_27  and  C_28
REMARK                            x       y       z     vdW  Elec       q    Type
REMARK                         _______ _______ _______ _____ _____    ______ ____
ROOT
ATOM      1  C   UNL     1       1.734   4.024  19.405  0.00  0.00    +0.000 C 
ATOM      2  C   UNL     1       2.890   3.016  19.461  0.00  0.00    +0.000 C 
ATOM      3  C   UNL     1       4.239   3.709  19.268  0.00  0.00    +0.000 C 
ATOM      4  N   UNL     1       4.271   4.431  17.961  0.00  0.00    +0.000 NA
ATOM      5  C   UNL     1       3.161   5.415  17.813  0.00  0.00    +0.000 C 
ATOM      6  C   UNL     1       1.800   4.760  18.062  0.00  0.00    +0.000 C 
ENDROOT
BRANCH   4   7
ATOM      7  S   UNL     1       5.803   5.152  17.615  0.00  0.00    +0.000 S 
ATOM      8  O   UNL     1       5.649   6.594  17.671  0.00  0.00    +0.000 OA
ATOM      9  O   UNL     1       6.791   4.477  18.443  0.00  0.00    +0.000 OA
BRANCH   7  10
ATOM     10  C   UNL     1       6.083   4.716  15.924  0.00  0.00    +0.000 A 
ATOM     11  C   UNL     1       5.251   3.765  15.332  0.00  0.00    +0.000 A 
ATOM     12  C   UNL     1       5.462   3.409  14.001  0.00  0.00    +0.000 A 
ATOM     13  C   UNL     1       6.493   4.000  13.247  0.00  0.00    +0.000 A 
ATOM     14  C   UNL     1       6.682   3.564  11.819  0.00  0.00    +0.000 C 
ATOM     15  C   UNL     1       7.311   4.982  13.842  0.00  0.00    +0.000 A 
ATOM     16  C   UNL     1       8.406   5.700  13.098  0.00  0.00    +0.000 C 
ATOM     17  C   UNL     1       7.092   5.337  15.186  0.00  0.00    +0.000 A 
ENDBRANCH   7  10
ENDBRANCH   4   7
BRANCH   1  18
ATOM     18  C   UNL     1       1.814   4.923  20.639  0.00  0.00    +0.000 C 
ATOM     19  O   UNL     1       2.533   4.671  21.598  0.00  0.00    +0.000 OA
BRANCH  18  20
ATOM     20  O   UNL     1       1.135   6.086  20.472  0.00  0.00    +0.000 OA
BRANCH  20  21
ATOM     21  C   UNL     1       1.895   7.260  20.788  0.00  0.00    +0.000 C 
BRANCH  21  22
ATOM     22  C   UNL     1       1.371   8.547  20.176  0.00  0.00    +0.000 C 
ATOM     23  O   UNL     1       1.594   8.823  18.994  0.00  0.00    +0.000 OA
BRANCH  22  29
ATOM     24  C   UNL     1       0.345  10.882  20.702  0.00  0.00    +0.000 A 
ATOM     25  C   UNL     1      -0.461  11.648  21.565  0.00  0.00    +0.000 A 
ATOM     26  C   UNL     1      -0.889  11.140  22.791  0.00  0.00    +0.000 A 
ATOM     27  C   UNL     1      -0.555   9.843  23.151  0.00  0.00    +0.000 A 
ATOM     28  C   UNL     1       0.175   9.047  22.269  0.00  0.00    +0.000 A 
ATOM     29  C   UNL     1       0.627   9.541  21.031  0.00  0.00    +0.000 A 
BRANCH  24  31
ATOM     30  C   UNL     1       1.769  12.504  19.710  0.00  0.00    +0.000 C 
ATOM     31  O   UNL     1       0.845  11.423  19.544  0.00  0.00    +0.000 OA
ENDBRANCH  24  31
ENDBRANCH  22  29
ENDBRANCH  21  22
ENDBRANCH  20  21
ENDBRANCH  18  20
ENDBRANCH   1  18
TORSDOF 8
ENDMDL
MODEL 7
REMARK VINA RESULT:      -7.7      4.682      7.621
REMARK  Name = 
REMARK  11 active torsions:
REMARK  status: ('A' for Active; 'I' for Inactive)
REMARK    1  A    between atoms: C_1  and  O_2
REMARK    2  A    between atoms: O_2  and  C_3
REMARK    3  A    between atoms: C_8  and  C_9
REMARK    4  A    between atoms: C_9  and  C_11
REMARK    5  A    between atoms: C_11  and  O_12
REMARK    6  A    between atoms: O_12  and  C_13
REMARK    7  A    between atoms: C_13  and  C_15
REMARK    8  A    between atoms: N_18  and  S_19
REMARK    9  A    between atoms: S_19  and  C_22
REMARK   10  A    between atoms: C_25  and  C_26
REMARK   11  A    between atoms: C_27  and  C_28
REMARK                            x       y       z     vdW  Elec       q    Type
REMARK                         _______ _______ _______ _____ _____    ______ ____
ROOT
ATOM      1  C   UNL     1       1.923   4.042  19.304  0.00  0.00    +0.000 C 
ATOM      2  C   UNL     1       3.106   3.089  19.522  0.00  0.00    +0.000 C 
ATOM      3  C   UNL     1       4.440   3.802  19.302  0.00  0.00    +0.000 C 
ATOM      4  N   UNL     1       4.506   4.369  17.922  0.00  0.00    +0.000 NA
ATOM      5  C   UNL     1       3.374   5.289  17.616  0.00  0.00    +0.000 C 
ATOM      6  C   UNL     1       2.024   4.619  17.888  0.00  0.00    +0.000 C 
ENDROOT
BRANCH   4   7
ATOM      7  S   UNL     1       6.028   5.100  17.554  0.00  0.00    +0.000 S 
ATOM      8  O   UNL     1       5.874   6.539  17.640  0.00  0.00    +0.000 OA
ATOM      9  O   UNL     1       7.037   4.410  18.345  0.00  0.00    +0.000 OA
BRANCH   7  10
ATOM     10  C   UNL     1       6.269   4.696  15.848  0.00  0.00    +0.000 A 
ATOM     11  C   UNL     1       5.444   3.733  15.266  0.00  0.00    +0.000 A 
ATOM     12  C   UNL     1       5.625   3.402  13.924  0.00  0.00    +0.000 A 
ATOM     13  C   UNL     1       6.617   4.031  13.149  0.00  0.00    +0.000 A 
ATOM     14  C   UNL     1       6.774   3.621  11.710  0.00  0.00    +0.000 C 
ATOM     15  C   UNL     1       7.428   5.025  13.735  0.00  0.00    +0.000 A 
ATOM     16  C   UNL     1       8.481   5.782  12.971  0.00  0.00    +0.000 C 
ATOM     17  C   UNL     1       7.240   5.354  15.090  0.00  0.00    +0.000 A 
ENDBRANCH   7  10
ENDBRANCH   4   7
BRANCH   1  18
ATOM     18  C   UNL     1       1.923   5.079  20.426  0.00  0.00    +0.000 C 
ATOM     19  O   UNL     1       2.209   4.803  21.585  0.00  0.00    +0.000 OA
BRANCH  18  20
ATOM     20  O   UNL     1       1.735   6.340  19.960  0.00  0.00    +0.000 OA
BRANCH  20  21
ATOM     21  C   UNL     1       1.784   7.354  20.973  0.00  0.00    +0.000 C 
BRANCH  21  22
ATOM     22  C   UNL     1       0.563   8.254  21.038  0.00  0.00    +0.000 C 
ATOM     23  O   UNL     1      -0.513   7.830  21.469  0.00  0.00    +0.000 OA
BRANCH  22  29
ATOM     24  C   UNL     1       0.802  10.042  19.160  0.00  0.00    +0.000 A 
ATOM     25  C   UNL     1       0.735  11.405  18.815  0.00  0.00    +0.000 A 
ATOM     26  C   UNL     1       0.620  12.391  19.793  0.00  0.00    +0.000 A 
ATOM     27  C   UNL     1       0.525  12.027  21.128  0.00  0.00    +0.000 A 
ATOM     28  C   UNL     1       0.510  10.676  21.477  0.00  0.00    +0.000 A 
ATOM     29  C   UNL     1       0.635   9.663  20.507  0.00  0.00    +0.000 A 
BRANCH  24  31
ATOM     30  C   UNL     1       2.368   8.939  17.756  0.00  0.00    +0.000 C 
ATOM     31  O   UNL     1       1.015   9.084  18.201  0.00  0.00    +0.000 OA
ENDBRANCH  24  31
ENDBRANCH  22  29
ENDBRANCH  21  22
ENDBRANCH  20  21
ENDBRANCH  18  20
ENDBRANCH   1  18
TORSDOF 8
ENDMDL
MODEL 8
REMARK VINA RESULT:      -7.6      5.965      9.481
REMARK  Name = 
REMARK  11 active torsions:
REMARK  status: ('A' for Active; 'I' for Inactive)
REMARK    1  A    between atoms: C_1  and  O_2
REMARK    2  A    between atoms: O_2  and  C_3
REMARK    3  A    between atoms: C_8  and  C_9
REMARK    4  A    between atoms: C_9  and  C_11
REMARK    5  A    between atoms: C_11  and  O_12
REMARK    6  A    between atoms: O_12  and  C_13
REMARK    7  A    between atoms: C_13  and  C_15
REMARK    8  A    between atoms: N_18  and  S_19
REMARK    9  A    between atoms: S_19  and  C_22
REMARK   10  A    between atoms: C_25  and  C_26
REMARK   11  A    between atoms: C_27  and  C_28
REMARK                            x       y       z     vdW  Elec       q    Type
REMARK                         _______ _______ _______ _____ _____    ______ ____
ROOT
ATOM      1  C   UNL     1      -0.140  10.902  18.233  0.00  0.00    +0.000 C 
ATOM      2  C   UNL     1      -0.385  12.401  18.452  0.00  0.00    +0.000 C 
ATOM      3  C   UNL     1      -0.231  12.779  19.925  0.00  0.00    +0.000 C 
ATOM      4  N   UNL     1      -1.181  11.992  20.767  0.00  0.00    +0.000 NA
ATOM      5  C   UNL     1      -1.028  10.519  20.594  0.00  0.00    +0.000 C 
ATOM      6  C   UNL     1      -1.117  10.120  19.119  0.00  0.00    +0.000 C 
ENDROOT
BRANCH   4   7
ATOM      7  S   UNL     1      -1.147  12.437  22.436  0.00  0.00    +0.000 S 
ATOM      8  O   UNL     1      -0.612  11.322  23.193  0.00  0.00    +0.000 OA
ATOM      9  O   UNL     1      -0.532  13.754  22.515  0.00  0.00    +0.000 OA
BRANCH   7  10
ATOM     10  C   UNL     1      -2.861  12.583  22.851  0.00  0.00    +0.000 A 
ATOM     11  C   UNL     1      -3.233  12.501  24.193  0.00  0.00    +0.000 A 
ATOM     12  C   UNL     1      -4.581  12.611  24.534  0.00  0.00    +0.000 A 
ATOM     13  C   UNL     1      -5.564  12.811  23.548  0.00  0.00    +0.000 A 
ATOM     14  C   UNL     1      -7.004  12.907  23.976  0.00  0.00    +0.000 C 
ATOM     15  C   UNL     1      -5.178  12.922  22.196  0.00  0.00    +0.000 A 
ATOM     16  C   UNL     1      -6.156  13.182  21.081  0.00  0.00    +0.000 C 
ATOM     17  C   UNL     1      -3.817  12.811  21.859  0.00  0.00    +0.000 A 
ENDBRANCH   7  10
ENDBRANCH   4   7
BRANCH   1  18
ATOM     18  C   UNL     1       1.338  10.610  18.487  0.00  0.00    +0.000 C 
ATOM     19  O   UNL     1       2.212  11.460  18.368  0.00  0.00    +0.000 OA
BRANCH  18  20
ATOM     20  O   UNL     1       1.535   9.372  19.009  0.00  0.00    +0.000 OA
BRANCH  20  21
ATOM     21  C   UNL     1       2.083   8.425  18.082  0.00  0.00    +0.000 C 
BRANCH  21  22
ATOM     22  C   UNL     1       2.627   7.155  18.711  0.00  0.00    +0.000 C 
ATOM     23  O   UNL     1       2.467   6.924  19.913  0.00  0.00    +0.000 OA
BRANCH  22  29
ATOM     24  C   UNL     1       3.228   4.799  17.777  0.00  0.00    +0.000 A 
ATOM     25  C   UNL     1       4.004   4.054  16.869  0.00  0.00    +0.000 A 
ATOM     26  C   UNL     1       5.046   4.645  16.157  0.00  0.00    +0.000 A 
ATOM     27  C   UNL     1       5.300   6.000  16.309  0.00  0.00    +0.000 A 
ATOM     28  C   UNL     1       4.488   6.766  17.146  0.00  0.00    +0.000 A 
ATOM     29  C   UNL     1       3.436   6.189  17.882  0.00  0.00    +0.000 A 
BRANCH  24  31
ATOM     30  C   UNL     1       2.726   3.109  19.368  0.00  0.00    +0.000 C 
ATOM     31  O   UNL     1       2.270   4.190  18.547  0.00  0.00    +0.000 OA
ENDBRANCH  24  31
ENDBRANCH  22  29
ENDBRANCH  21  22
ENDBRANCH  20  21
ENDBRANCH  18  20
ENDBRANCH   1  18
TORSDOF 8
ENDMDL
MODEL 9
REMARK VINA RESULT:      -7.5      5.845      9.728
REMARK  Name = 
REMARK  11 active torsions:
REMARK  status: ('A' for Active; 'I' for Inactive)
REMARK    1  A    between atoms: C_1  and  O_2
REMARK    2  A    between atoms: O_2  and  C_3
REMARK    3  A    between atoms: C_8  and  C_9
REMARK    4  A    between atoms: C_9  and  C_11
REMARK    5  A    between atoms: C_11  and  O_12
REMARK    6  A    between atoms: O_12  and  C_13
REMARK    7  A    between atoms: C_13  and  C_15
REMARK    8  A    between atoms: N_18  and  S_19
REMARK    9  A    between atoms: S_19  and  C_22
REMARK   10  A    between atoms: C_25  and  C_26
REMARK   11  A    between atoms: C_27  and  C_28
REMARK                            x       y       z     vdW  Elec       q    Type
REMARK                         _______ _______ _______ _____ _____    ______ ____
ROOT
ATOM      1  C   UNL     1       0.863  10.087  18.307  0.00  0.00    +0.000 C 
ATOM      2  C   UNL     1       1.455  11.467  18.626  0.00  0.00    +0.000 C 
ATOM      3  C   UNL     1       1.266  11.823  20.101  0.00  0.00    +0.000 C 
ATOM      4  N   UNL     1      -0.185  11.811  20.457  0.00  0.00    +0.000 NA
ATOM      5  C   UNL     1      -0.847  10.511  20.153  0.00  0.00    +0.000 C 
ATOM      6  C   UNL     1      -0.620  10.099  18.696  0.00  0.00    +0.000 C 
ENDROOT
BRANCH   4   7
ATOM      7  S   UNL     1      -0.495  12.311  22.082  0.00  0.00    +0.000 S 
ATOM      8  O   UNL     1      -0.278  11.174  22.956  0.00  0.00    +0.000 OA
ATOM      9  O   UNL     1       0.225  13.558  22.291  0.00  0.00    +0.000 OA
BRANCH   7  10
ATOM     10  C   UNL     1      -2.232  12.650  22.076  0.00  0.00    +0.000 A 
ATOM     11  C   UNL     1      -2.827  13.073  20.888  0.00  0.00    +0.000 A 
ATOM     12  C   UNL     1      -4.193  13.347  20.869  0.00  0.00    +0.000 A 
ATOM     13  C   UNL     1      -4.979  13.194  22.027  0.00  0.00    +0.000 A 
ATOM     14  C   UNL     1      -6.446  13.519  21.950  0.00  0.00    +0.000 C 
ATOM     15  C   UNL     1      -4.377  12.737  23.218  0.00  0.00    +0.000 A 
ATOM     16  C   UNL     1      -5.148  12.500  24.489  0.00  0.00    +0.000 C 
ATOM     17  C   UNL     1      -2.997  12.462  23.229  0.00  0.00    +0.000 A 
ENDBRANCH   7  10
ENDBRANCH   4   7
BRANCH   1  18
ATOM     18  C   UNL     1       1.707   9.023  19.008  0.00  0.00    +0.000 C 
ATOM     19  O   UNL     1       1.404   8.545  20.094  0.00  0.00    +0.000 OA
BRANCH  18  20
ATOM     20  O   UNL     1       2.714   8.566  18.220  0.00  0.00    +0.000 OA
BRANCH  20  21
ATOM     21  C   UNL     1       2.521   7.230  17.737  0.00  0.00    +0.000 C 
BRANCH  21  22
ATOM     22  C   UNL     1       3.166   6.144  18.580  0.00  0.00    +0.000 C 
ATOM     23  O   UNL     1       4.334   6.252  18.965  0.00  0.00    +0.000 OA
BRANCH  22  29
ATOM     24  C   UNL     1       2.373   3.707  18.121  0.00  0.00    +0.000 A 
ATOM     25  C   UNL     1       1.701   2.573  18.615  0.00  0.00    +0.000 A 
ATOM     26  C   UNL     1       0.974   2.628  19.803  0.00  0.00    +0.000 A 
ATOM     27  C   UNL     1       0.944   3.804  20.537  0.00  0.00    +0.000 A 
ATOM     28  C   UNL     1       1.671   4.911  20.098  0.00  0.00    +0.000 A 
ATOM     29  C   UNL     1       2.404   4.883  18.897  0.00  0.00    +0.000 A 
BRANCH  24  31
ATOM     30  C   UNL     1       4.409   3.401  16.936  0.00  0.00    +0.000 C 
ATOM     31  O   UNL     1       3.004   3.673  16.903  0.00  0.00    +0.000 OA
ENDBRANCH  24  31
ENDBRANCH  22  29
ENDBRANCH  21  22
ENDBRANCH  20  21
ENDBRANCH  18  20
ENDBRANCH   1  18
TORSDOF 8
ENDMDL
