MODEL 1
REMARK VINA RESULT:      -7.7      0.000      0.000
REMARK  Name = 
REMARK  5 active torsions:
REMARK  status: ('A' for Active; 'I' for Inactive)
REMARK    1  A    between atoms: C_1  and  C_2
REMARK    2  A    between atoms: C_6  and  C_7
REMARK    3  A    between atoms: C_10  and  C_11
REMARK    4  A    between atoms: C_19  and  C_21
REMARK    5  A    between atoms: C_24  and  C_25
REMARK                            x       y       z     vdW  Elec       q    Type
REMARK                         _______ _______ _______ _____ _____    ______ ____
ROOT
ATOM      1  C   UNL     1       0.838   5.694  20.544  0.00  0.00    +0.000 C 
ATOM      2  C   UNL     1       2.040   6.643  20.524  0.00  0.00    +0.000 C 
ATOM      3  C   UNL     1       1.612   8.049  20.788  0.00  0.00    +0.000 A 
ATOM      4  N   UNL     1       1.345   8.617  21.947  0.00  0.00    +0.000 NA
ATOM      5  N   UNL     1       1.020   9.933  21.704  0.00  0.00    +0.000 NA
ATOM      6  C   UNL     1       1.062  10.137  20.400  0.00  0.00    +0.000 A 
ATOM      7  N   UNL     1       1.459   8.982  19.799  0.00  0.00    +0.000 N 
ATOM      8  C   UNL     1       1.861   8.786  18.432  0.00  0.00    +0.000 C 
ATOM      9  C   UNL     1       2.136   7.320  18.112  0.00  0.00    +0.000 C 
ATOM     10  N   UNL     1       2.746   6.573  19.226  0.00  0.00    +0.000 N 
ATOM     11  C   UNL     1       3.838   5.698  19.150  0.00  0.00    +0.000 C 
ATOM     12  O   UNL     1       4.318   5.164  20.150  0.00  0.00    +0.000 OA
ENDROOT
BRANCH  11  13
ATOM     13  C   UNL     1       4.481   5.368  17.851  0.00  0.00    +0.000 A 
ATOM     14  C   UNL     1       4.428   4.047  17.387  0.00  0.00    +0.000 A 
ATOM     15  C   UNL     1       4.978   3.708  16.143  0.00  0.00    +0.000 A 
ATOM     16  C   UNL     1       5.604   4.682  15.347  0.00  0.00    +0.000 A 
ATOM     17  C   UNL     1       5.636   6.002  15.817  0.00  0.00    +0.000 A 
ATOM     18  C   UNL     1       5.040   6.349  17.030  0.00  0.00    +0.000 A 
BRANCH  16  19
ATOM     19  C   UNL     1       6.134   4.349  14.019  0.00  0.00    +0.000 A 
ATOM     20  C   UNL     1       5.627   3.464  13.082  0.00  0.00    +0.000 A 
ATOM     21  C   UNL     1       6.381   3.446  11.874  0.00  0.00    +0.000 A 
ATOM     22  C   UNL     1       7.454   4.306  11.924  0.00  0.00    +0.000 A 
ATOM     23  S   UNL     1       7.563   5.102  13.430  0.00  0.00    +0.000 S 
ENDBRANCH  16  19
ENDBRANCH  11  13
BRANCH   6  24
ATOM     24  C   UNL     1       0.717  11.416  19.743  0.00  0.00    +0.000 A 
ATOM     25  C   UNL     1      -0.347  11.577  18.894  0.00  0.00    +0.000 A 
ATOM     26  O   UNL     1      -0.321  12.852  18.427  0.00  0.00    +0.000 OA
ATOM     27  C   UNL     1       0.789  13.406  19.010  0.00  0.00    +0.000 A 
ATOM     28  N   UNL     1       1.421  12.595  19.845  0.00  0.00    +0.000 NA
BRANCH  27  29
ATOM     29  C   UNL     1       1.244  14.816  18.652  0.00  0.00    +0.000 C 
ATOM     30  C   UNL     1       2.300  15.508  19.485  0.00  0.00    +0.000 C 
ATOM     31  C   UNL     1       2.655  15.001  18.129  0.00  0.00    +0.000 C 
ENDBRANCH  27  29
ENDBRANCH   6  24
TORSDOF 4
ENDMDL
MODEL 2
REMARK VINA RESULT:      -7.6      4.387      6.915
REMARK  Name = 
REMARK  5 active torsions:
REMARK  status: ('A' for Active; 'I' for Inactive)
REMARK    1  A    between atoms: C_1  and  C_2
REMARK    2  A    between atoms: C_6  and  C_7
REMARK    3  A    between atoms: C_10  and  C_11
REMARK    4  A    between atoms: C_19  and  C_21
REMARK    5  A    between atoms: C_24  and  C_25
REMARK                            x       y       z     vdW  Elec       q    Type
REMARK                         _______ _______ _______ _____ _____    ______ ____
ROOT
ATOM      1  C   UNL     1       1.767  13.230  20.318  0.00  0.00    +0.000 C 
ATOM      2  C   UNL     1       0.559  12.478  19.750  0.00  0.00    +0.000 C 
ATOM      3  C   UNL     1      -0.716  13.023  20.306  0.00  0.00    +0.000 A 
ATOM      4  N   UNL     1      -1.374  14.102  19.933  0.00  0.00    +0.000 NA
ATOM      5  N   UNL     1      -2.508  14.191  20.708  0.00  0.00    +0.000 NA
ATOM      6  C   UNL     1      -2.506  13.184  21.563  0.00  0.00    +0.000 A 
ATOM      7  N   UNL     1      -1.410  12.416  21.317  0.00  0.00    +0.000 N 
ATOM      8  C   UNL     1      -1.109  11.109  21.835  0.00  0.00    +0.000 C 
ATOM      9  C   UNL     1       0.272  10.619  21.406  0.00  0.00    +0.000 C 
ATOM     10  N   UNL     1       0.652  11.031  20.045  0.00  0.00    +0.000 N 
ATOM     11  C   UNL     1       1.221  10.223  19.052  0.00  0.00    +0.000 C 
ATOM     12  O   UNL     1       1.450  10.644  17.918  0.00  0.00    +0.000 OA
ENDROOT
BRANCH  11  13
ATOM     13  C   UNL     1       1.579   8.804  19.315  0.00  0.00    +0.000 A 
ATOM     14  C   UNL     1       2.238   8.077  18.314  0.00  0.00    +0.000 A 
ATOM     15  C   UNL     1       2.637   6.753  18.545  0.00  0.00    +0.000 A 
ATOM     16  C   UNL     1       2.370   6.128  19.774  0.00  0.00    +0.000 A 
ATOM     17  C   UNL     1       1.724   6.872  20.770  0.00  0.00    +0.000 A 
ATOM     18  C   UNL     1       1.376   8.207  20.560  0.00  0.00    +0.000 A 
BRANCH  16  19
ATOM     19  C   UNL     1       2.832   4.761  20.044  0.00  0.00    +0.000 A 
ATOM     20  C   UNL     1       2.334   3.842  20.953  0.00  0.00    +0.000 A 
ATOM     21  C   UNL     1       3.002   2.586  20.894  0.00  0.00    +0.000 A 
ATOM     22  C   UNL     1       4.005   2.581  19.951  0.00  0.00    +0.000 A 
ATOM     23  S   UNL     1       4.154   4.091  19.170  0.00  0.00    +0.000 S 
ENDBRANCH  16  19
ENDBRANCH  11  13
BRANCH   6  24
ATOM     24  C   UNL     1      -3.535  12.971  22.605  0.00  0.00    +0.000 A 
ATOM     25  C   UNL     1      -3.320  12.261  23.757  0.00  0.00    +0.000 A 
ATOM     26  O   UNL     1      -4.491  12.210  24.442  0.00  0.00    +0.000 OA
ATOM     27  C   UNL     1      -5.381  12.886  23.647  0.00  0.00    +0.000 A 
ATOM     28  N   UNL     1      -4.842  13.401  22.552  0.00  0.00    +0.000 NA
BRANCH  27  29
ATOM     29  C   UNL     1      -6.859  12.962  24.008  0.00  0.00    +0.000 C 
ATOM     30  C   UNL     1      -7.870  13.424  22.983  0.00  0.00    +0.000 C 
ATOM     31  C   UNL     1      -7.808  11.980  23.349  0.00  0.00    +0.000 C 
ENDBRANCH  27  29
ENDBRANCH   6  24
TORSDOF 4
ENDMDL
MODEL 3
REMARK VINA RESULT:      -7.6      6.928      8.743
REMARK  Name = 
REMARK  5 active torsions:
REMARK  status: ('A' for Active; 'I' for Inactive)
REMARK    1  A    between atoms: C_1  and  C_2
REMARK    2  A    between atoms: C_6  and  C_7
REMARK    3  A    between atoms: C_10  and  C_11
REMARK    4  A    between atoms: C_19  and  C_21
REMARK    5  A    between atoms: C_24  and  C_25
REMARK                            x       y       z     vdW  Elec       q    Type
REMARK                         _______ _______ _______ _____ _____    ______ ____
ROOT
ATOM      1  C   UNL     1       2.760  17.193  21.703  0.00  0.00    +0.000 C 
ATOM      2  C   UNL     1       2.759  16.792  20.224  0.00  0.00    +0.000 C 
ATOM      3  C   UNL     1       1.429  16.243  19.823  0.00  0.00    +0.000 A 
ATOM      4  N   UNL     1       0.333  16.905  19.512  0.00  0.00    +0.000 NA
ATOM      5  N   UNL     1      -0.633  15.984  19.178  0.00  0.00    +0.000 NA
ATOM      6  C   UNL     1      -0.122  14.775  19.324  0.00  0.00    +0.000 A 
ATOM      7  N   UNL     1       1.180  14.904  19.698  0.00  0.00    +0.000 N 
ATOM      8  C   UNL     1       2.192  13.883  19.755  0.00  0.00    +0.000 C 
ATOM      9  C   UNL     1       3.508  14.402  20.328  0.00  0.00    +0.000 C 
ATOM     10  N   UNL     1       3.814  15.792  19.949  0.00  0.00    +0.000 N 
ATOM     11  C   UNL     1       5.042  16.284  19.487  0.00  0.00    +0.000 C 
ATOM     12  O   UNL     1       5.186  17.455  19.135  0.00  0.00    +0.000 OA
ENDROOT
BRANCH  11  13
ATOM     13  C   UNL     1       6.243  15.413  19.394  0.00  0.00    +0.000 A 
ATOM     14  C   UNL     1       6.557  14.825  18.162  0.00  0.00    +0.000 A 
ATOM     15  C   UNL     1       7.710  14.040  18.023  0.00  0.00    +0.000 A 
ATOM     16  C   UNL     1       8.562  13.817  19.117  0.00  0.00    +0.000 A 
ATOM     17  C   UNL     1       8.244  14.425  20.340  0.00  0.00    +0.000 A 
ATOM     18  C   UNL     1       7.126  15.250  20.463  0.00  0.00    +0.000 A 
BRANCH  16  19
ATOM     19  C   UNL     1       9.800  13.043  18.969  0.00  0.00    +0.000 A 
ATOM     20  C   UNL     1      10.450  12.259  19.908  0.00  0.00    +0.000 A 
ATOM     21  C   UNL     1      11.600  11.605  19.383  0.00  0.00    +0.000 A 
ATOM     22  C   UNL     1      11.810  11.917  18.059  0.00  0.00    +0.000 A 
ATOM     23  S   UNL     1      10.643  13.015  17.469  0.00  0.00    +0.000 S 
ENDBRANCH  16  19
ENDBRANCH  11  13
BRANCH   6  24
ATOM     24  C   UNL     1      -0.875  13.519  19.115  0.00  0.00    +0.000 A 
ATOM     25  C   UNL     1      -1.761  13.000  20.022  0.00  0.00    +0.000 A 
ATOM     26  O   UNL     1      -2.211  11.813  19.537  0.00  0.00    +0.000 OA
ATOM     27  C   UNL     1      -1.546  11.658  18.348  0.00  0.00    +0.000 A 
ATOM     28  N   UNL     1      -0.766  12.679  18.030  0.00  0.00    +0.000 NA
BRANCH  27  29
ATOM     29  C   UNL     1      -1.687  10.380  17.530  0.00  0.00    +0.000 C 
ATOM     30  C   UNL     1      -3.021   9.672  17.449  0.00  0.00    +0.000 C 
ATOM     31  C   UNL     1      -2.521  10.428  16.265  0.00  0.00    +0.000 C 
ENDBRANCH  27  29
ENDBRANCH   6  24
TORSDOF 4
ENDMDL
MODEL 4
REMARK VINA RESULT:      -7.5      0.467      1.098
REMARK  Name = 
REMARK  5 active torsions:
REMARK  status: ('A' for Active; 'I' for Inactive)
REMARK    1  A    between atoms: C_1  and  C_2
REMARK    2  A    between atoms: C_6  and  C_7
REMARK    3  A    between atoms: C_10  and  C_11
REMARK    4  A    between atoms: C_19  and  C_21
REMARK    5  A    between atoms: C_24  and  C_25
REMARK                            x       y       z     vdW  Elec       q    Type
REMARK                         _______ _______ _______ _____ _____    ______ ____
ROOT
ATOM      1  C   UNL     1       0.904   5.612  20.593  0.00  0.00    +0.000 C 
ATOM      2  C   UNL     1       2.077   6.592  20.489  0.00  0.00    +0.000 C 
ATOM      3  C   UNL     1       1.630   7.989  20.771  0.00  0.00    +0.000 A 
ATOM      4  N   UNL     1       1.422   8.560  21.940  0.00  0.00    +0.000 NA
ATOM      5  N   UNL     1       1.048   9.864  21.710  0.00  0.00    +0.000 NA
ATOM      6  C   UNL     1       1.001  10.058  20.405  0.00  0.00    +0.000 A 
ATOM      7  N   UNL     1       1.389   8.909  19.788  0.00  0.00    +0.000 N 
ATOM      8  C   UNL     1       1.708   8.713  18.399  0.00  0.00    +0.000 C 
ATOM      9  C   UNL     1       2.000   7.251  18.072  0.00  0.00    +0.000 C 
ATOM     10  N   UNL     1       2.700   6.530  19.149  0.00  0.00    +0.000 N 
ATOM     11  C   UNL     1       3.807   5.682  19.009  0.00  0.00    +0.000 C 
ATOM     12  O   UNL     1       4.365   5.170  19.980  0.00  0.00    +0.000 OA
ENDROOT
BRANCH  11  13
ATOM     13  C   UNL     1       4.375   5.358  17.674  0.00  0.00    +0.000 A 
ATOM     14  C   UNL     1       5.116   6.338  16.999  0.00  0.00    +0.000 A 
ATOM     15  C   UNL     1       5.710   6.052  15.762  0.00  0.00    +0.000 A 
ATOM     16  C   UNL     1       5.561   4.787  15.171  0.00  0.00    +0.000 A 
ATOM     17  C   UNL     1       4.830   3.812  15.864  0.00  0.00    +0.000 A 
ATOM     18  C   UNL     1       4.285   4.080  17.120  0.00  0.00    +0.000 A 
BRANCH  16  19
ATOM     19  C   UNL     1       6.224   4.460  13.902  0.00  0.00    +0.000 A 
ATOM     20  C   UNL     1       5.884   3.494  12.971  0.00  0.00    +0.000 A 
ATOM     21  C   UNL     1       6.728   3.507  11.825  0.00  0.00    +0.000 A 
ATOM     22  C   UNL     1       7.703   4.475  11.916  0.00  0.00    +0.000 A 
ATOM     23  S   UNL     1       7.614   5.334  13.388  0.00  0.00    +0.000 S 
ENDBRANCH  16  19
ENDBRANCH  11  13
BRANCH   6  24
ATOM     24  C   UNL     1       0.581  11.323  19.763  0.00  0.00    +0.000 A 
ATOM     25  C   UNL     1      -0.517  11.440  18.951  0.00  0.00    +0.000 A 
ATOM     26  O   UNL     1      -0.560  12.715  18.486  0.00  0.00    +0.000 OA
ATOM     27  C   UNL     1       0.545  13.314  19.033  0.00  0.00    +0.000 A 
ATOM     28  N   UNL     1       1.238  12.530  19.844  0.00  0.00    +0.000 NA
BRANCH  27  29
ATOM     29  C   UNL     1       0.929  14.742  18.662  0.00  0.00    +0.000 C 
ATOM     30  C   UNL     1      -0.122  15.829  18.637  0.00  0.00    +0.000 C 
ATOM     31  C   UNL     1       0.874  15.802  19.746  0.00  0.00    +0.000 C 
ENDBRANCH  27  29
ENDBRANCH   6  24
TORSDOF 4
ENDMDL
MODEL 5
REMARK VINA RESULT:      -7.4      1.579      2.483
REMARK  Name = 
REMARK  5 active torsions:
REMARK  status: ('A' for Active; 'I' for Inactive)
REMARK    1  A    between atoms: C_1  and  C_2
REMARK    2  A    between atoms: C_6  and  C_7
REMARK    3  A    between atoms: C_10  and  C_11
REMARK    4  A    between atoms: C_19  and  C_21
REMARK    5  A    between atoms: C_24  and  C_25
REMARK                            x       y       z     vdW  Elec       q    Type
REMARK                         _______ _______ _______ _____ _____    ______ ____
ROOT
ATOM      1  C   UNL     1       1.734   5.127  20.756  0.00  0.00    +0.000 C 
ATOM      2  C   UNL     1       2.618   6.334  20.423  0.00  0.00    +0.000 C 
ATOM      3  C   UNL     1       1.850   7.608  20.556  0.00  0.00    +0.000 A 
ATOM      4  N   UNL     1       1.566   8.280  21.654  0.00  0.00    +0.000 NA
ATOM      5  N   UNL     1       0.867   9.407  21.287  0.00  0.00    +0.000 NA
ATOM      6  C   UNL     1       0.706   9.387  19.976  0.00  0.00    +0.000 A 
ATOM      7  N   UNL     1       1.338   8.286  19.484  0.00  0.00    +0.000 N 
ATOM      8  C   UNL     1       1.624   7.967  18.112  0.00  0.00    +0.000 C 
ATOM      9  C   UNL     1       2.255   6.587  17.956  0.00  0.00    +0.000 C 
ATOM     10  N   UNL     1       3.167   6.224  19.055  0.00  0.00    +0.000 N 
ATOM     11  C   UNL     1       4.443   5.656  18.933  0.00  0.00    +0.000 C 
ATOM     12  O   UNL     1       5.159   5.443  19.910  0.00  0.00    +0.000 OA
ENDROOT
BRANCH  11  13
ATOM     13  C   UNL     1       5.004   5.282  17.607  0.00  0.00    +0.000 A 
ATOM     14  C   UNL     1       4.687   4.029  17.069  0.00  0.00    +0.000 A 
ATOM     15  C   UNL     1       5.155   3.662  15.799  0.00  0.00    +0.000 A 
ATOM     16  C   UNL     1       5.962   4.537  15.053  0.00  0.00    +0.000 A 
ATOM     17  C   UNL     1       6.258   5.794  15.598  0.00  0.00    +0.000 A 
ATOM     18  C   UNL     1       5.746   6.179  16.837  0.00  0.00    +0.000 A 
BRANCH  16  19
ATOM     19  C   UNL     1       6.411   4.185  13.701  0.00  0.00    +0.000 A 
ATOM     20  C   UNL     1       5.954   3.174  12.871  0.00  0.00    +0.000 A 
ATOM     21  C   UNL     1       6.589   3.172  11.597  0.00  0.00    +0.000 A 
ATOM     22  C   UNL     1       7.529   4.172  11.491  0.00  0.00    +0.000 A 
ATOM     23  S   UNL     1       7.660   5.082  12.929  0.00  0.00    +0.000 S 
ENDBRANCH  16  19
ENDBRANCH  11  13
BRANCH   6  24
ATOM     24  C   UNL     1      -0.050  10.403  19.212  0.00  0.00    +0.000 A 
ATOM     25  C   UNL     1       0.056  11.753  19.423  0.00  0.00    +0.000 A 
ATOM     26  O   UNL     1      -0.825  12.377  18.598  0.00  0.00    +0.000 OA
ATOM     27  C   UNL     1      -1.447  11.354  17.929  0.00  0.00    +0.000 A 
ATOM     28  N   UNL     1      -0.984  10.151  18.232  0.00  0.00    +0.000 NA
BRANCH  27  29
ATOM     29  C   UNL     1      -2.603  11.628  16.974  0.00  0.00    +0.000 C 
ATOM     30  C   UNL     1      -3.404  10.480  16.401  0.00  0.00    +0.000 C 
ATOM     31  C   UNL     1      -4.012  11.341  17.455  0.00  0.00    +0.000 C 
ENDBRANCH  27  29
ENDBRANCH   6  24
TORSDOF 4
ENDMDL
MODEL 6
REMARK VINA RESULT:      -7.2      0.979      1.187
REMARK  Name = 
REMARK  5 active torsions:
REMARK  status: ('A' for Active; 'I' for Inactive)
REMARK    1  A    between atoms: C_1  and  C_2
REMARK    2  A    between atoms: C_6  and  C_7
REMARK    3  A    between atoms: C_10  and  C_11
REMARK    4  A    between atoms: C_19  and  C_21
REMARK    5  A    between atoms: C_24  and  C_25
REMARK                            x       y       z     vdW  Elec       q    Type
REMARK                         _______ _______ _______ _____ _____    ______ ____
ROOT
ATOM      1  C   UNL     1       0.828   5.754  20.530  0.00  0.00    +0.000 C 
ATOM      2  C   UNL     1       2.040   6.691  20.512  0.00  0.00    +0.000 C 
ATOM      3  C   UNL     1       1.625   8.102  20.775  0.00  0.00    +0.000 A 
ATOM      4  N   UNL     1       1.362   8.674  21.932  0.00  0.00    +0.000 NA
ATOM      5  N   UNL     1       1.052   9.992  21.688  0.00  0.00    +0.000 NA
ATOM      6  C   UNL     1       1.098  10.195  20.383  0.00  0.00    +0.000 A 
ATOM      7  N   UNL     1       1.485   9.035  19.784  0.00  0.00    +0.000 N 
ATOM      8  C   UNL     1       1.888   8.834  18.419  0.00  0.00    +0.000 C 
ATOM      9  C   UNL     1       2.148   7.364  18.100  0.00  0.00    +0.000 C 
ATOM     10  N   UNL     1       2.747   6.613  19.216  0.00  0.00    +0.000 N 
ATOM     11  C   UNL     1       3.830   5.726  19.143  0.00  0.00    +0.000 C 
ATOM     12  O   UNL     1       4.303   5.188  20.144  0.00  0.00    +0.000 OA
ENDROOT
BRANCH  11  13
ATOM     13  C   UNL     1       4.473   5.388  17.845  0.00  0.00    +0.000 A 
ATOM     14  C   UNL     1       4.372   4.077  17.363  0.00  0.00    +0.000 A 
ATOM     15  C   UNL     1       4.920   3.733  16.119  0.00  0.00    +0.000 A 
ATOM     16  C   UNL     1       5.592   4.692  15.344  0.00  0.00    +0.000 A 
ATOM     17  C   UNL     1       5.672   6.003  15.832  0.00  0.00    +0.000 A 
ATOM     18  C   UNL     1       5.079   6.357  17.044  0.00  0.00    +0.000 A 
BRANCH  16  19
ATOM     19  C   UNL     1       6.122   4.356  14.016  0.00  0.00    +0.000 A 
ATOM     20  C   UNL     1       5.602   3.487  13.071  0.00  0.00    +0.000 A 
ATOM     21  C   UNL     1       6.361   3.460  11.866  0.00  0.00    +0.000 A 
ATOM     22  C   UNL     1       7.451   4.298  11.927  0.00  0.00    +0.000 A 
ATOM     23  S   UNL     1       7.570   5.083  13.438  0.00  0.00    +0.000 S 
ENDBRANCH  16  19
ENDBRANCH  11  13
BRANCH   6  24
ATOM     24  C   UNL     1       0.767  11.477  19.724  0.00  0.00    +0.000 A 
ATOM     25  C   UNL     1       1.487  12.012  18.688  0.00  0.00    +0.000 A 
ATOM     26  O   UNL     1       0.945  13.219  18.381  0.00  0.00    +0.000 OA
ATOM     27  C   UNL     1      -0.083  13.369  19.276  0.00  0.00    +0.000 A 
ATOM     28  N   UNL     1      -0.257  12.328  20.075  0.00  0.00    +0.000 NA
BRANCH  27  29
ATOM     29  C   UNL     1      -0.887  14.662  19.341  0.00  0.00    +0.000 C 
ATOM     30  C   UNL     1      -1.508  15.106  20.647  0.00  0.00    +0.000 C 
ATOM     31  C   UNL     1      -0.310  15.824  20.126  0.00  0.00    +0.000 C 
ENDBRANCH  27  29
ENDBRANCH   6  24
TORSDOF 4
ENDMDL
MODEL 7
REMARK VINA RESULT:      -7.2      2.731      5.358
REMARK  Name = 
REMARK  5 active torsions:
REMARK  status: ('A' for Active; 'I' for Inactive)
REMARK    1  A    between atoms: C_1  and  C_2
REMARK    2  A    between atoms: C_6  and  C_7
REMARK    3  A    between atoms: C_10  and  C_11
REMARK    4  A    between atoms: C_19  and  C_21
REMARK    5  A    between atoms: C_24  and  C_25
REMARK                            x       y       z     vdW  Elec       q    Type
REMARK                         _______ _______ _______ _____ _____    ______ ____
ROOT
ATOM      1  C   UNL     1      -1.516  12.325  20.050  0.00  0.00    +0.000 C 
ATOM      2  C   UNL     1      -0.178  12.205  20.786  0.00  0.00    +0.000 C 
ATOM      3  C   UNL     1       0.515  13.526  20.850  0.00  0.00    +0.000 A 
ATOM      4  N   UNL     1       0.294  14.525  21.680  0.00  0.00    +0.000 NA
ATOM      5  N   UNL     1       1.193  15.524  21.384  0.00  0.00    +0.000 NA
ATOM      6  C   UNL     1       1.924  15.132  20.356  0.00  0.00    +0.000 A 
ATOM      7  N   UNL     1       1.544  13.870  20.017  0.00  0.00    +0.000 N 
ATOM      8  C   UNL     1       2.199  12.959  19.118  0.00  0.00    +0.000 C 
ATOM      9  C   UNL     1       1.404  11.671  18.917  0.00  0.00    +0.000 C 
ATOM     10  N   UNL     1       0.700  11.213  20.126  0.00  0.00    +0.000 N 
ATOM     11  C   UNL     1       0.664   9.907  20.632  0.00  0.00    +0.000 C 
ATOM     12  O   UNL     1       0.096   9.631  21.689  0.00  0.00    +0.000 OA
ENDROOT
BRANCH  11  13
ATOM     13  C   UNL     1       1.319   8.778  19.919  0.00  0.00    +0.000 A 
ATOM     14  C   UNL     1       1.682   8.949  18.576  0.00  0.00    +0.000 A 
ATOM     15  C   UNL     1       2.348   7.926  17.886  0.00  0.00    +0.000 A 
ATOM     16  C   UNL     1       2.647   6.710  18.521  0.00  0.00    +0.000 A 
ATOM     17  C   UNL     1       2.292   6.560  19.868  0.00  0.00    +0.000 A 
ATOM     18  C   UNL     1       1.679   7.598  20.570  0.00  0.00    +0.000 A 
BRANCH  16  19
ATOM     19  C   UNL     1       3.392   5.654  17.824  0.00  0.00    +0.000 A 
ATOM     20  C   UNL     1       3.099   4.304  17.731  0.00  0.00    +0.000 A 
ATOM     21  C   UNL     1       4.023   3.591  16.915  0.00  0.00    +0.000 A 
ATOM     22  C   UNL     1       5.008   4.412  16.417  0.00  0.00    +0.000 A 
ATOM     23  S   UNL     1       4.833   6.021  16.957  0.00  0.00    +0.000 S 
ENDBRANCH  16  19
ENDBRANCH  11  13
BRANCH   6  24
ATOM     24  C   UNL     1       2.964  15.961  19.707  0.00  0.00    +0.000 A 
ATOM     25  C   UNL     1       2.776  16.639  18.530  0.00  0.00    +0.000 A 
ATOM     26  O   UNL     1       3.952  17.231  18.197  0.00  0.00    +0.000 OA
ATOM     27  C   UNL     1       4.816  16.860  19.194  0.00  0.00    +0.000 A 
ATOM     28  N   UNL     1       4.256  16.133  20.149  0.00  0.00    +0.000 NA
BRANCH  27  29
ATOM     29  C   UNL     1       6.293  17.231  19.134  0.00  0.00    +0.000 C 
ATOM     30  C   UNL     1       7.297  16.496  19.994  0.00  0.00    +0.000 C 
ATOM     31  C   UNL     1       7.258  16.230  18.528  0.00  0.00    +0.000 C 
ENDBRANCH  27  29
ENDBRANCH   6  24
TORSDOF 4
ENDMDL
MODEL 8
REMARK VINA RESULT:      -7.1      3.970      6.556
REMARK  Name = 
REMARK  5 active torsions:
REMARK  status: ('A' for Active; 'I' for Inactive)
REMARK    1  A    between atoms: C_1  and  C_2
REMARK    2  A    between atoms: C_6  and  C_7
REMARK    3  A    between atoms: C_10  and  C_11
REMARK    4  A    between atoms: C_19  and  C_21
REMARK    5  A    between atoms: C_24  and  C_25
REMARK                            x       y       z     vdW  Elec       q    Type
REMARK                         _______ _______ _______ _____ _____    ______ ____
ROOT
ATOM      1  C   UNL     1       2.145  13.014  20.631  0.00  0.00    +0.000 C 
ATOM      2  C   UNL     1       1.094  12.471  19.659  0.00  0.00    +0.000 C 
ATOM      3  C   UNL     1      -0.248  13.063  19.941  0.00  0.00    +0.000 A 
ATOM      4  N   UNL     1      -0.711  14.243  19.582  0.00  0.00    +0.000 NA
ATOM      5  N   UNL     1      -2.006  14.342  20.038  0.00  0.00    +0.000 NA
ATOM      6  C   UNL     1      -2.299  13.236  20.697  0.00  0.00    +0.000 A 
ATOM      7  N   UNL     1      -1.227  12.401  20.629  0.00  0.00    +0.000 N 
ATOM      8  C   UNL     1      -1.160  11.013  20.998  0.00  0.00    +0.000 C 
ATOM      9  C   UNL     1       0.252  10.447  20.874  0.00  0.00    +0.000 C 
ATOM     10  N   UNL     1       1.014  10.996  19.740  0.00  0.00    +0.000 N 
ATOM     11  C   UNL     1       1.782  10.273  18.817  0.00  0.00    +0.000 C 
ATOM     12  O   UNL     1       2.336  10.816  17.861  0.00  0.00    +0.000 OA
ENDROOT
BRANCH  11  13
ATOM     13  C   UNL     1       1.965   8.803  18.940  0.00  0.00    +0.000 A 
ATOM     14  C   UNL     1       1.778   8.202  20.192  0.00  0.00    +0.000 A 
ATOM     15  C   UNL     1       1.891   6.812  20.336  0.00  0.00    +0.000 A 
ATOM     16  C   UNL     1       2.210   6.001  19.235  0.00  0.00    +0.000 A 
ATOM     17  C   UNL     1       2.380   6.614  17.986  0.00  0.00    +0.000 A 
ATOM     18  C   UNL     1       2.213   7.991  17.833  0.00  0.00    +0.000 A 
BRANCH  16  19
ATOM     19  C   UNL     1       2.277   4.540  19.364  0.00  0.00    +0.000 A 
ATOM     20  C   UNL     1       1.254   3.646  19.632  0.00  0.00    +0.000 A 
ATOM     21  C   UNL     1       1.686   2.290  19.623  0.00  0.00    +0.000 A 
ATOM     22  C   UNL     1       3.033   2.181  19.364  0.00  0.00    +0.000 A 
ATOM     23  S   UNL     1       3.770   3.708  19.165  0.00  0.00    +0.000 S 
ENDBRANCH  16  19
ENDBRANCH  11  13
BRANCH   6  24
ATOM     24  C   UNL     1      -3.584  12.992  21.388  0.00  0.00    +0.000 A 
ATOM     25  C   UNL     1      -3.695  12.749  22.732  0.00  0.00    +0.000 A 
ATOM     26  O   UNL     1      -5.002  12.502  23.007  0.00  0.00    +0.000 OA
ATOM     27  C   UNL     1      -5.628  12.589  21.790  0.00  0.00    +0.000 A 
ATOM     28  N   UNL     1      -4.824  12.925  20.793  0.00  0.00    +0.000 NA
BRANCH  27  29
ATOM     29  C   UNL     1      -7.109  12.262  21.643  0.00  0.00    +0.000 C 
ATOM     30  C   UNL     1      -7.800  12.448  20.311  0.00  0.00    +0.000 C 
ATOM     31  C   UNL     1      -7.498  11.069  20.791  0.00  0.00    +0.000 C 
ENDBRANCH  27  29
ENDBRANCH   6  24
TORSDOF 4
ENDMDL
MODEL 9
REMARK VINA RESULT:      -7.1      2.762      5.402
REMARK  Name = 
REMARK  5 active torsions:
REMARK  status: ('A' for Active; 'I' for Inactive)
REMARK    1  A    between atoms: C_1  and  C_2
REMARK    2  A    between atoms: C_6  and  C_7
REMARK    3  A    between atoms: C_10  and  C_11
REMARK    4  A    between atoms: C_19  and  C_21
REMARK    5  A    between atoms: C_24  and  C_25
REMARK                            x       y       z     vdW  Elec       q    Type
REMARK                         _______ _______ _______ _____ _____    ______ ____
ROOT
ATOM      1  C   UNL     1      -1.406  12.492  18.847  0.00  0.00    +0.000 C 
ATOM      2  C   UNL     1      -0.343  12.312  19.935  0.00  0.00    +0.000 C 
ATOM      3  C   UNL     1       0.284  13.621  20.287  0.00  0.00    +0.000 A 
ATOM      4  N   UNL     1      -0.184  14.563  21.080  0.00  0.00    +0.000 NA
ATOM      5  N   UNL     1       0.750  15.573  21.128  0.00  0.00    +0.000 NA
ATOM      6  C   UNL     1       1.756  15.246  20.338  0.00  0.00    +0.000 A 
ATOM      7  N   UNL     1       1.508  14.013  19.818  0.00  0.00    +0.000 N 
ATOM      8  C   UNL     1       2.410  13.158  19.094  0.00  0.00    +0.000 C 
ATOM      9  C   UNL     1       1.726  11.893  18.583  0.00  0.00    +0.000 C 
ATOM     10  N   UNL     1       0.703  11.361  19.498  0.00  0.00    +0.000 N 
ATOM     11  C   UNL     1       0.536  10.024  19.884  0.00  0.00    +0.000 C 
ATOM     12  O   UNL     1      -0.314   9.681  20.705  0.00  0.00    +0.000 OA
ENDROOT
BRANCH  11  13
ATOM     13  C   UNL     1       1.386   8.941  19.321  0.00  0.00    +0.000 A 
ATOM     14  C   UNL     1       1.783   7.890  20.158  0.00  0.00    +0.000 A 
ATOM     15  C   UNL     1       2.540   6.824  19.651  0.00  0.00    +0.000 A 
ATOM     16  C   UNL     1       2.927   6.800  18.301  0.00  0.00    +0.000 A 
ATOM     17  C   UNL     1       2.510   7.850  17.472  0.00  0.00    +0.000 A 
ATOM     18  C   UNL     1       1.710   8.882  17.965  0.00  0.00    +0.000 A 
BRANCH  16  19
ATOM     19  C   UNL     1       3.673   5.663  17.747  0.00  0.00    +0.000 A 
ATOM     20  C   UNL     1       3.340   4.319  17.762  0.00  0.00    +0.000 A 
ATOM     21  C   UNL     1       4.282   3.507  17.070  0.00  0.00    +0.000 A 
ATOM     22  C   UNL     1       5.321   4.249  16.556  0.00  0.00    +0.000 A 
ATOM     23  S   UNL     1       5.170   5.906  16.935  0.00  0.00    +0.000 S 
ENDBRANCH  16  19
ENDBRANCH  11  13
BRANCH   6  24
ATOM     24  C   UNL     1       2.930  16.108  20.080  0.00  0.00    +0.000 A 
ATOM     25  C   UNL     1       3.093  16.858  18.944  0.00  0.00    +0.000 A 
ATOM     26  O   UNL     1       4.306  17.465  19.013  0.00  0.00    +0.000 OA
ATOM     27  C   UNL     1       4.838  17.029  20.200  0.00  0.00    +0.000 A 
ATOM     28  N   UNL     1       4.029  16.247  20.898  0.00  0.00    +0.000 NA
BRANCH  27  29
ATOM     29  C   UNL     1       6.260  17.397  20.605  0.00  0.00    +0.000 C 
ATOM     30  C   UNL     1       7.262  16.312  20.932  0.00  0.00    +0.000 C 
ATOM     31  C   UNL     1       7.387  17.060  19.649  0.00  0.00    +0.000 C 
ENDBRANCH  27  29
ENDBRANCH   6  24
TORSDOF 4
ENDMDL
