MODEL 1
REMARK VINA RESULT:      -7.0      0.000      0.000
REMARK  Name = 
REMARK  5 active torsions:
REMARK  status: ('A' for Active; 'I' for Inactive)
REMARK    1  A    between atoms: C_1  and  C_2
REMARK    2  A    between atoms: C_2  and  C_3
REMARK    3  A    between atoms: C_2  and  N_4
REMARK    4  A    between atoms: C_14  and  C_15
REMARK    5  A    between atoms: C_15  and  C_16
REMARK                            x       y       z     vdW  Elec       q    Type
REMARK                         _______ _______ _______ _____ _____    ______ ____
ROOT
ATOM      1  N   UNL     1       0.864   9.770  19.362  0.00  0.00    +0.000 N 
ATOM      2  C   UNL     1       1.744   9.486  18.358  0.00  0.00    +0.000 C 
ATOM      3  O   UNL     1       2.150  10.355  17.592  0.00  0.00    +0.000 OA
ATOM      4  N   UNL     1       2.170   8.174  18.294  0.00  0.00    +0.000 N 
ATOM      5  C   UNL     1       3.223   7.881  17.341  0.00  0.00    +0.000 C 
ATOM      6  C   UNL     1       4.310   7.116  18.065  0.00  0.00    +0.000 C 
ATOM      7  C   UNL     1       3.808   5.743  18.539  0.00  0.00    +0.000 C 
ATOM      8  C   UNL     1       2.639   6.048  19.520  0.00  0.00    +0.000 C 
ATOM      9  C   UNL     1       1.570   6.990  18.930  0.00  0.00    +0.000 C 
ATOM     10  C   UNL     1       3.359   4.819  17.391  0.00  0.00    +0.000 C 
ATOM     11  C   UNL     1       4.513   4.167  16.619  0.00  0.00    +0.000 C 
ATOM     12  C   UNL     1       5.242   3.283  17.633  0.00  0.00    +0.000 C 
ATOM     13  C   UNL     1       5.380   3.880  19.037  0.00  0.00    +0.000 C 
ATOM     14  O   UNL     1       4.911   5.199  19.277  0.00  0.00    +0.000 OA
ATOM     15  H   UNL     1       0.965   9.195  20.183  0.00  0.00    +0.000 HD
ENDROOT
BRANCH   1  17
ATOM     16  C   UNL     1      -0.840  11.425  18.866  0.00  0.00    +0.000 C 
ATOM     17  C   UNL     1       0.463  11.150  19.599  0.00  0.00    +0.000 C 
ATOM     18  C   UNL     1       0.329  11.429  21.096  0.00  0.00    +0.000 C 
ENDBRANCH   1  17
BRANCH  11  19
ATOM     19  C   UNL     1       5.542   5.055  15.871  0.00  0.00    +0.000 C 
BRANCH  19  20
ATOM     20  C   UNL     1       6.045   4.639  14.506  0.00  0.00    +0.000 A 
ATOM     21  C   UNL     1       7.244   5.206  14.023  0.00  0.00    +0.000 A 
ATOM     22  C   UNL     1       7.730   4.900  12.746  0.00  0.00    +0.000 A 
ATOM     23  C   UNL     1       7.037   4.006  11.942  0.00  0.00    +0.000 A 
ATOM     24  C   UNL     1       5.888   3.400  12.428  0.00  0.00    +0.000 A 
ATOM     25  F   UNL     1       5.227   2.527  11.658  0.00  0.00    +0.000 F 
ATOM     26  C   UNL     1       5.398   3.695  13.703  0.00  0.00    +0.000 A 
ENDBRANCH  19  20
ENDBRANCH  11  19
TORSDOF 3
ENDMDL
MODEL 2
REMARK VINA RESULT:      -6.9      4.798      7.512
REMARK  Name = 
REMARK  5 active torsions:
REMARK  status: ('A' for Active; 'I' for Inactive)
REMARK    1  A    between atoms: C_1  and  C_2
REMARK    2  A    between atoms: C_2  and  C_3
REMARK    3  A    between atoms: C_2  and  N_4
REMARK    4  A    between atoms: C_14  and  C_15
REMARK    5  A    between atoms: C_15  and  C_16
REMARK                            x       y       z     vdW  Elec       q    Type
REMARK                         _______ _______ _______ _____ _____    ______ ____
ROOT
ATOM      1  N   UNL     1       0.482  16.127  18.957  0.00  0.00    +0.000 N 
ATOM      2  C   UNL     1       1.163  14.949  18.838  0.00  0.00    +0.000 C 
ATOM      3  O   UNL     1       2.251  14.887  18.273  0.00  0.00    +0.000 OA
ATOM      4  N   UNL     1       0.563  13.854  19.428  0.00  0.00    +0.000 N 
ATOM      5  C   UNL     1       1.338  12.628  19.456  0.00  0.00    +0.000 C 
ATOM      6  C   UNL     1       1.329  12.101  20.874  0.00  0.00    +0.000 C 
ATOM      7  C   UNL     1      -0.086  11.687  21.310  0.00  0.00    +0.000 C 
ATOM      8  C   UNL     1      -0.937  12.988  21.229  0.00  0.00    +0.000 C 
ATOM      9  C   UNL     1      -0.833  13.708  19.870  0.00  0.00    +0.000 C 
ATOM     10  C   UNL     1      -0.691  10.559  20.455  0.00  0.00    +0.000 C 
ATOM     11  C   UNL     1      -0.148   9.161  20.780  0.00  0.00    +0.000 C 
ATOM     12  C   UNL     1      -0.561   8.883  22.227  0.00  0.00    +0.000 C 
ATOM     13  C   UNL     1      -0.460  10.083  23.174  0.00  0.00    +0.000 C 
ATOM     14  O   UNL     1       0.064  11.309  22.685  0.00  0.00    +0.000 OA
ATOM     15  H   UNL     1      -0.081  16.202  19.789  0.00  0.00    +0.000 HD
ENDROOT
BRANCH   1  17
ATOM     16  C   UNL     1       0.245  17.953  17.377  0.00  0.00    +0.000 C 
ATOM     17  C   UNL     1       1.096  17.362  18.490  0.00  0.00    +0.000 C 
ATOM     18  C   UNL     1       1.272  18.352  19.641  0.00  0.00    +0.000 C 
ENDBRANCH   1  17
BRANCH  11  19
ATOM     19  C   UNL     1       1.364   8.859  20.605  0.00  0.00    +0.000 C 
BRANCH  19  20
ATOM     20  C   UNL     1       1.805   7.529  20.032  0.00  0.00    +0.000 A 
ATOM     21  C   UNL     1       2.446   7.513  18.775  0.00  0.00    +0.000 A 
ATOM     22  C   UNL     1       2.828   6.309  18.170  0.00  0.00    +0.000 A 
ATOM     23  C   UNL     1       2.596   5.106  18.823  0.00  0.00    +0.000 A 
ATOM     24  C   UNL     1       2.017   5.116  20.083  0.00  0.00    +0.000 A 
ATOM     25  F   UNL     1       1.805   3.956  20.719  0.00  0.00    +0.000 F 
ATOM     26  C   UNL     1       1.637   6.311  20.697  0.00  0.00    +0.000 A 
ENDBRANCH  19  20
ENDBRANCH  11  19
TORSDOF 3
ENDMDL
MODEL 3
REMARK VINA RESULT:      -6.8      4.522      9.239
REMARK  Name = 
REMARK  5 active torsions:
REMARK  status: ('A' for Active; 'I' for Inactive)
REMARK    1  A    between atoms: C_1  and  C_2
REMARK    2  A    between atoms: C_2  and  C_3
REMARK    3  A    between atoms: C_2  and  N_4
REMARK    4  A    between atoms: C_14  and  C_15
REMARK    5  A    between atoms: C_15  and  C_16
REMARK                            x       y       z     vdW  Elec       q    Type
REMARK                         _______ _______ _______ _____ _____    ______ ____
ROOT
ATOM      1  N   UNL     1       2.314   6.264  19.073  0.00  0.00    +0.000 N 
ATOM      2  C   UNL     1       2.456   7.503  18.518  0.00  0.00    +0.000 C 
ATOM      3  O   UNL     1       3.065   7.674  17.466  0.00  0.00    +0.000 OA
ATOM      4  N   UNL     1       1.835   8.533  19.198  0.00  0.00    +0.000 N 
ATOM      5  C   UNL     1       1.834   9.830  18.548  0.00  0.00    +0.000 C 
ATOM      6  C   UNL     1       0.414  10.352  18.549  0.00  0.00    +0.000 C 
ATOM      7  C   UNL     1      -0.083  10.623  19.978  0.00  0.00    +0.000 C 
ATOM      8  C   UNL     1      -0.032   9.244  20.699  0.00  0.00    +0.000 C 
ATOM      9  C   UNL     1       1.335   8.539  20.582  0.00  0.00    +0.000 C 
ATOM     10  C   UNL     1       0.740  11.686  20.728  0.00  0.00    +0.000 C 
ATOM     11  C   UNL     1       0.430  13.131  20.313  0.00  0.00    +0.000 C 
ATOM     12  C   UNL     1      -1.034  13.365  20.689  0.00  0.00    +0.000 C 
ATOM     13  C   UNL     1      -1.970  12.180  20.430  0.00  0.00    +0.000 C 
ATOM     14  O   UNL     1      -1.453  11.013  19.808  0.00  0.00    +0.000 OA
ATOM     15  H   UNL     1       1.460   6.132  19.590  0.00  0.00    +0.000 HD
ENDROOT
BRANCH   1  17
ATOM     16  C   UNL     1       3.690   4.277  19.294  0.00  0.00    +0.000 C 
ATOM     17  C   UNL     1       2.813   5.096  18.360  0.00  0.00    +0.000 C 
ATOM     18  C   UNL     1       1.658   4.261  17.807  0.00  0.00    +0.000 C 
ENDBRANCH   1  17
BRANCH  11  19
ATOM     19  C   UNL     1       0.668  13.582  18.847  0.00  0.00    +0.000 C 
BRANCH  19  20
ATOM     20  C   UNL     1       1.772  14.567  18.532  0.00  0.00    +0.000 A 
ATOM     21  C   UNL     1       1.492  15.947  18.610  0.00  0.00    +0.000 A 
ATOM     22  C   UNL     1       2.458  16.906  18.278  0.00  0.00    +0.000 A 
ATOM     23  C   UNL     1       3.725  16.498  17.884  0.00  0.00    +0.000 A 
ATOM     24  C   UNL     1       4.027  15.145  17.857  0.00  0.00    +0.000 A 
ATOM     25  F   UNL     1       5.254  14.751  17.490  0.00  0.00    +0.000 F 
ATOM     26  C   UNL     1       3.073  14.182  18.192  0.00  0.00    +0.000 A 
ENDBRANCH  19  20
ENDBRANCH  11  19
TORSDOF 3
ENDMDL
MODEL 4
REMARK VINA RESULT:      -6.7      1.038      1.414
REMARK  Name = 
REMARK  5 active torsions:
REMARK  status: ('A' for Active; 'I' for Inactive)
REMARK    1  A    between atoms: C_1  and  C_2
REMARK    2  A    between atoms: C_2  and  C_3
REMARK    3  A    between atoms: C_2  and  N_4
REMARK    4  A    between atoms: C_14  and  C_15
REMARK    5  A    between atoms: C_15  and  C_16
REMARK                            x       y       z     vdW  Elec       q    Type
REMARK                         _______ _______ _______ _____ _____    ______ ____
ROOT
ATOM      1  N   UNL     1       0.849   9.700  19.056  0.00  0.00    +0.000 N 
ATOM      2  C   UNL     1       1.879   9.366  18.225  0.00  0.00    +0.000 C 
ATOM      3  O   UNL     1       2.507  10.217  17.602  0.00  0.00    +0.000 OA
ATOM      4  N   UNL     1       2.185   8.021  18.169  0.00  0.00    +0.000 N 
ATOM      5  C   UNL     1       3.374   7.658  17.421  0.00  0.00    +0.000 C 
ATOM      6  C   UNL     1       4.220   6.759  18.295  0.00  0.00    +0.000 C 
ATOM      7  C   UNL     1       3.510   5.427  18.584  0.00  0.00    +0.000 C 
ATOM      8  C   UNL     1       2.204   5.813  19.339  0.00  0.00    +0.000 C 
ATOM      9  C   UNL     1       1.365   6.881  18.609  0.00  0.00    +0.000 C 
ATOM     10  C   UNL     1       3.211   4.598  17.321  0.00  0.00    +0.000 C 
ATOM     11  C   UNL     1       4.429   3.860  16.749  0.00  0.00    +0.000 C 
ATOM     12  C   UNL     1       4.859   2.869  17.832  0.00  0.00    +0.000 C 
ATOM     13  C   UNL     1       4.773   3.395  19.268  0.00  0.00    +0.000 C 
ATOM     14  O   UNL     1       4.390   4.745  19.488  0.00  0.00    +0.000 OA
ATOM     15  H   UNL     1       0.733   9.087  19.846  0.00  0.00    +0.000 HD
ENDROOT
BRANCH   1  17
ATOM     16  C   UNL     1      -0.778  11.445  18.613  0.00  0.00    +0.000 C 
ATOM     17  C   UNL     1       0.539  11.104  19.290  0.00  0.00    +0.000 C 
ATOM     18  C   UNL     1       0.491  11.408  20.787  0.00  0.00    +0.000 C 
ENDBRANCH   1  17
BRANCH  11  19
ATOM     19  C   UNL     1       5.664   4.667  16.264  0.00  0.00    +0.000 C 
BRANCH  19  20
ATOM     20  C   UNL     1       6.136   4.534  14.833  0.00  0.00    +0.000 A 
ATOM     21  C   UNL     1       5.439   3.664  13.968  0.00  0.00    +0.000 A 
ATOM     22  C   UNL     1       5.861   3.460  12.648  0.00  0.00    +0.000 A 
ATOM     23  C   UNL     1       6.972   4.139  12.168  0.00  0.00    +0.000 A 
ATOM     24  C   UNL     1       7.630   5.038  12.993  0.00  0.00    +0.000 A 
ATOM     25  F   UNL     1       8.694   5.705  12.526  0.00  0.00    +0.000 F 
ATOM     26  C   UNL     1       7.214   5.253  14.309  0.00  0.00    +0.000 A 
ENDBRANCH  19  20
ENDBRANCH  11  19
TORSDOF 3
ENDMDL
MODEL 5
REMARK VINA RESULT:      -6.7      5.084     11.122
REMARK  Name = 
REMARK  5 active torsions:
REMARK  status: ('A' for Active; 'I' for Inactive)
REMARK    1  A    between atoms: C_1  and  C_2
REMARK    2  A    between atoms: C_2  and  C_3
REMARK    3  A    between atoms: C_2  and  N_4
REMARK    4  A    between atoms: C_14  and  C_15
REMARK    5  A    between atoms: C_15  and  C_16
REMARK                            x       y       z     vdW  Elec       q    Type
REMARK                         _______ _______ _______ _____ _____    ______ ____
ROOT
ATOM      1  N   UNL     1       2.875   7.048  18.662  0.00  0.00    +0.000 N 
ATOM      2  C   UNL     1       1.992   7.483  19.608  0.00  0.00    +0.000 C 
ATOM      3  O   UNL     1       1.746   6.823  20.613  0.00  0.00    +0.000 OA
ATOM      4  N   UNL     1       1.435   8.725  19.374  0.00  0.00    +0.000 N 
ATOM      5  C   UNL     1       0.621   9.280  20.439  0.00  0.00    +0.000 C 
ATOM      6  C   UNL     1       1.100  10.690  20.709  0.00  0.00    +0.000 C 
ATOM      7  C   UNL     1       0.855  11.607  19.500  0.00  0.00    +0.000 C 
ATOM      8  C   UNL     1       1.683  10.985  18.337  0.00  0.00    +0.000 C 
ATOM      9  C   UNL     1       1.401   9.486  18.115  0.00  0.00    +0.000 C 
ATOM     10  C   UNL     1      -0.632  11.750  19.125  0.00  0.00    +0.000 C 
ATOM     11  C   UNL     1      -1.425  12.692  20.040  0.00  0.00    +0.000 C 
ATOM     12  C   UNL     1      -0.793  14.073  19.861  0.00  0.00    +0.000 C 
ATOM     13  C   UNL     1       0.734  14.080  19.742  0.00  0.00    +0.000 C 
ATOM     14  O   UNL     1       1.444  12.858  19.880  0.00  0.00    +0.000 OA
ATOM     15  H   UNL     1       3.373   7.782  18.185  0.00  0.00    +0.000 HD
ENDROOT
BRANCH   1  17
ATOM     16  C   UNL     1       2.843   4.650  18.295  0.00  0.00    +0.000 C 
ATOM     17  C   UNL     1       3.619   5.816  18.885  0.00  0.00    +0.000 C 
ATOM     18  C   UNL     1       5.022   5.911  18.285  0.00  0.00    +0.000 C 
ENDBRANCH   1  17
BRANCH  11  19
ATOM     19  C   UNL     1      -1.553  12.372  21.554  0.00  0.00    +0.000 C 
BRANCH  19  20
ATOM     20  C   UNL     1      -2.886  12.541  22.249  0.00  0.00    +0.000 A 
ATOM     21  C   UNL     1      -4.004  12.933  21.484  0.00  0.00    +0.000 A 
ATOM     22  C   UNL     1      -5.252  13.157  22.082  0.00  0.00    +0.000 A 
ATOM     23  C   UNL     1      -5.403  12.969  23.449  0.00  0.00    +0.000 A 
ATOM     24  C   UNL     1      -4.324  12.530  24.200  0.00  0.00    +0.000 A 
ATOM     25  F   UNL     1      -4.473  12.336  25.517  0.00  0.00    +0.000 F 
ATOM     26  C   UNL     1      -3.078  12.299  23.613  0.00  0.00    +0.000 A 
ENDBRANCH  19  20
ENDBRANCH  11  19
TORSDOF 3
ENDMDL
MODEL 6
REMARK VINA RESULT:      -6.6      5.167      9.458
REMARK  Name = 
REMARK  5 active torsions:
REMARK  status: ('A' for Active; 'I' for Inactive)
REMARK    1  A    between atoms: C_1  and  C_2
REMARK    2  A    between atoms: C_2  and  C_3
REMARK    3  A    between atoms: C_2  and  N_4
REMARK    4  A    between atoms: C_14  and  C_15
REMARK    5  A    between atoms: C_15  and  C_16
REMARK                            x       y       z     vdW  Elec       q    Type
REMARK                         _______ _______ _______ _____ _____    ______ ____
ROOT
ATOM      1  N   UNL     1       2.272   5.867  19.406  0.00  0.00    +0.000 N 
ATOM      2  C   UNL     1       2.459   7.075  18.798  0.00  0.00    +0.000 C 
ATOM      3  O   UNL     1       3.063   7.175  17.734  0.00  0.00    +0.000 OA
ATOM      4  N   UNL     1       1.890   8.158  19.439  0.00  0.00    +0.000 N 
ATOM      5  C   UNL     1       1.936   9.425  18.735  0.00  0.00    +0.000 C 
ATOM      6  C   UNL     1       0.539  10.007  18.727  0.00  0.00    +0.000 C 
ATOM      7  C   UNL     1       0.070  10.358  20.148  0.00  0.00    +0.000 C 
ATOM      8  C   UNL     1       0.072   9.010  20.927  0.00  0.00    +0.000 C 
ATOM      9  C   UNL     1       1.406   8.244  20.827  0.00  0.00    +0.000 C 
ATOM     10  C   UNL     1       0.945  11.417  20.844  0.00  0.00    +0.000 C 
ATOM     11  C   UNL     1       0.692  12.854  20.371  0.00  0.00    +0.000 C 
ATOM     12  C   UNL     1      -0.757  13.166  20.751  0.00  0.00    +0.000 C 
ATOM     13  C   UNL     1      -1.744  12.011  20.552  0.00  0.00    +0.000 C 
ATOM     14  O   UNL     1      -1.284  10.799  19.975  0.00  0.00    +0.000 OA
ATOM     15  H   UNL     1       1.419   5.793  19.937  0.00  0.00    +0.000 HD
ENDROOT
BRANCH   1  17
ATOM     16  C   UNL     1       3.302   3.700  19.770  0.00  0.00    +0.000 C 
ATOM     17  C   UNL     1       2.714   4.650  18.740  0.00  0.00    +0.000 C 
ATOM     18  C   UNL     1       1.560   3.999  17.976  0.00  0.00    +0.000 C 
ENDBRANCH   1  17
BRANCH  11  19
ATOM     19  C   UNL     1       0.931  13.233  18.885  0.00  0.00    +0.000 C 
BRANCH  19  20
ATOM     20  C   UNL     1       1.764  14.449  18.542  0.00  0.00    +0.000 A 
ATOM     21  C   UNL     1       3.059  14.256  18.017  0.00  0.00    +0.000 A 
ATOM     22  C   UNL     1       3.896  15.343  17.731  0.00  0.00    +0.000 A 
ATOM     23  C   UNL     1       3.441  16.636  17.944  0.00  0.00    +0.000 A 
ATOM     24  C   UNL     1       2.150  16.837  18.407  0.00  0.00    +0.000 A 
ATOM     25  F   UNL     1       1.705  18.086  18.599  0.00  0.00    +0.000 F 
ATOM     26  C   UNL     1       1.306  15.761  18.690  0.00  0.00    +0.000 A 
ENDBRANCH  19  20
ENDBRANCH  11  19
TORSDOF 3
ENDMDL
MODEL 7
REMARK VINA RESULT:      -6.5      4.027      8.217
REMARK  Name = 
REMARK  5 active torsions:
REMARK  status: ('A' for Active; 'I' for Inactive)
REMARK    1  A    between atoms: C_1  and  C_2
REMARK    2  A    between atoms: C_2  and  C_3
REMARK    3  A    between atoms: C_2  and  N_4
REMARK    4  A    between atoms: C_14  and  C_15
REMARK    5  A    between atoms: C_15  and  C_16
REMARK                            x       y       z     vdW  Elec       q    Type
REMARK                         _______ _______ _______ _____ _____    ______ ____
ROOT
ATOM      1  N   UNL     1       6.761   2.744  12.189  0.00  0.00    +0.000 N 
ATOM      2  C   UNL     1       5.653   3.380  12.670  0.00  0.00    +0.000 C 
ATOM      3  O   UNL     1       4.586   3.365  12.062  0.00  0.00    +0.000 OA
ATOM      4  N   UNL     1       5.807   3.998  13.896  0.00  0.00    +0.000 N 
ATOM      5  C   UNL     1       4.606   4.540  14.503  0.00  0.00    +0.000 C 
ATOM      6  C   UNL     1       4.531   4.033  15.926  0.00  0.00    +0.000 C 
ATOM      7  C   UNL     1       5.689   4.578  16.778  0.00  0.00    +0.000 C 
ATOM      8  C   UNL     1       6.985   4.045  16.099  0.00  0.00    +0.000 C 
ATOM      9  C   UNL     1       7.057   4.347  14.589  0.00  0.00    +0.000 C 
ATOM     10  C   UNL     1       5.701   6.113  16.895  0.00  0.00    +0.000 C 
ATOM     11  C   UNL     1       4.669   6.678  17.881  0.00  0.00    +0.000 C 
ATOM     12  C   UNL     1       5.065   6.131  19.253  0.00  0.00    +0.000 C 
ATOM     13  C   UNL     1       5.550   4.678  19.259  0.00  0.00    +0.000 C 
ATOM     14  O   UNL     1       5.527   3.935  18.049  0.00  0.00    +0.000 OA
ATOM     15  H   UNL     1       7.381   2.388  12.899  0.00  0.00    +0.000 HD
ENDROOT
BRANCH   1  17
ATOM     16  C   UNL     1       7.997   1.980  10.246  0.00  0.00    +0.000 C 
ATOM     17  C   UNL     1       6.663   1.948  10.973  0.00  0.00    +0.000 C 
ATOM     18  C   UNL     1       6.237   0.516  11.294  0.00  0.00    +0.000 C 
ENDBRANCH   1  17
BRANCH  11  19
ATOM     19  C   UNL     1       3.156   6.432  17.640  0.00  0.00    +0.000 C 
BRANCH  19  20
ATOM     20  C   UNL     1       2.391   5.498  18.553  0.00  0.00    +0.000 A 
ATOM     21  C   UNL     1       2.139   5.903  19.880  0.00  0.00    +0.000 A 
ATOM     22  C   UNL     1       1.483   5.060  20.786  0.00  0.00    +0.000 A 
ATOM     23  C   UNL     1       1.049   3.808  20.370  0.00  0.00    +0.000 A 
ATOM     24  C   UNL     1       1.243   3.423  19.052  0.00  0.00    +0.000 A 
ATOM     25  F   UNL     1       0.813   2.221  18.647  0.00  0.00    +0.000 F 
ATOM     26  C   UNL     1       1.891   4.259  18.140  0.00  0.00    +0.000 A 
ENDBRANCH  19  20
ENDBRANCH  11  19
TORSDOF 3
ENDMDL
MODEL 8
REMARK VINA RESULT:      -6.4      5.009     11.154
REMARK  Name = 
REMARK  5 active torsions:
REMARK  status: ('A' for Active; 'I' for Inactive)
REMARK    1  A    between atoms: C_1  and  C_2
REMARK    2  A    between atoms: C_2  and  C_3
REMARK    3  A    between atoms: C_2  and  N_4
REMARK    4  A    between atoms: C_14  and  C_15
REMARK    5  A    between atoms: C_15  and  C_16
REMARK                            x       y       z     vdW  Elec       q    Type
REMARK                         _______ _______ _______ _____ _____    ______ ____
ROOT
ATOM      1  N   UNL     1       2.871   7.036  18.725  0.00  0.00    +0.000 N 
ATOM      2  C   UNL     1       1.966   7.425  19.670  0.00  0.00    +0.000 C 
ATOM      3  O   UNL     1       1.729   6.737  20.659  0.00  0.00    +0.000 OA
ATOM      4  N   UNL     1       1.373   8.654  19.454  0.00  0.00    +0.000 N 
ATOM      5  C   UNL     1       0.531   9.162  20.520  0.00  0.00    +0.000 C 
ATOM      6  C   UNL     1       0.964  10.580  20.823  0.00  0.00    +0.000 C 
ATOM      7  C   UNL     1       0.704  11.514  19.630  0.00  0.00    +0.000 C 
ATOM      8  C   UNL     1       1.563  10.941  18.465  0.00  0.00    +0.000 C 
ATOM      9  C   UNL     1       1.329   9.438  18.210  0.00  0.00    +0.000 C 
ATOM     10  C   UNL     1      -0.782  11.619  19.241  0.00  0.00    +0.000 C 
ATOM     11  C   UNL     1      -1.614  12.518  20.167  0.00  0.00    +0.000 C 
ATOM     12  C   UNL     1      -1.022  13.921  20.021  0.00  0.00    +0.000 C 
ATOM     13  C   UNL     1       0.505  13.976  19.920  0.00  0.00    +0.000 C 
ATOM     14  O   UNL     1       1.251  12.774  20.041  0.00  0.00    +0.000 OA
ATOM     15  H   UNL     1       3.352   7.794  18.268  0.00  0.00    +0.000 HD
ENDROOT
BRANCH   1  17
ATOM     16  C   UNL     1       2.885   4.636  18.370  0.00  0.00    +0.000 C 
ATOM     17  C   UNL     1       3.650   5.823  18.932  0.00  0.00    +0.000 C 
ATOM     18  C   UNL     1       5.032   5.948  18.291  0.00  0.00    +0.000 C 
ENDBRANCH   1  17
BRANCH  11  19
ATOM     19  C   UNL     1      -1.748  12.164  21.671  0.00  0.00    +0.000 C 
BRANCH  19  20
ATOM     20  C   UNL     1      -3.038  12.463  22.404  0.00  0.00    +0.000 A 
ATOM     21  C   UNL     1      -3.069  12.321  23.807  0.00  0.00    +0.000 A 
ATOM     22  C   UNL     1      -4.248  12.531  24.533  0.00  0.00    +0.000 A 
ATOM     23  C   UNL     1      -5.407  12.908  23.869  0.00  0.00    +0.000 A 
ATOM     24  C   UNL     1      -5.373  13.103  22.497  0.00  0.00    +0.000 A 
ATOM     25  F   UNL     1      -6.488  13.480  21.857  0.00  0.00    +0.000 F 
ATOM     26  C   UNL     1      -4.201  12.901  21.764  0.00  0.00    +0.000 A 
ENDBRANCH  19  20
ENDBRANCH  11  19
TORSDOF 3
ENDMDL
MODEL 9
REMARK VINA RESULT:      -6.4      3.886      8.499
REMARK  Name = 
REMARK  5 active torsions:
REMARK  status: ('A' for Active; 'I' for Inactive)
REMARK    1  A    between atoms: C_1  and  C_2
REMARK    2  A    between atoms: C_2  and  C_3
REMARK    3  A    between atoms: C_2  and  N_4
REMARK    4  A    between atoms: C_14  and  C_15
REMARK    5  A    between atoms: C_15  and  C_16
REMARK                            x       y       z     vdW  Elec       q    Type
REMARK                         _______ _______ _______ _____ _____    ______ ____
ROOT
ATOM      1  N   UNL     1       6.468   3.987  14.901  0.00  0.00    +0.000 N 
ATOM      2  C   UNL     1       5.782   5.082  15.342  0.00  0.00    +0.000 C 
ATOM      3  O   UNL     1       5.713   6.111  14.676  0.00  0.00    +0.000 OA
ATOM      4  N   UNL     1       5.145   4.934  16.558  0.00  0.00    +0.000 N 
ATOM      5  C   UNL     1       4.280   6.022  16.972  0.00  0.00    +0.000 C 
ATOM      6  C   UNL     1       2.944   5.433  17.368  0.00  0.00    +0.000 C 
ATOM      7  C   UNL     1       3.072   4.533  18.607  0.00  0.00    +0.000 C 
ATOM      8  C   UNL     1       4.044   3.391  18.187  0.00  0.00    +0.000 C 
ATOM      9  C   UNL     1       5.368   3.902  17.584  0.00  0.00    +0.000 C 
ATOM     10  C   UNL     1       3.575   5.274  19.860  0.00  0.00    +0.000 C 
ATOM     11  C   UNL     1       2.508   6.132  20.555  0.00  0.00    +0.000 C 
ATOM     12  C   UNL     1       1.433   5.152  21.027  0.00  0.00    +0.000 C 
ATOM     13  C   UNL     1       1.115   4.014  20.052  0.00  0.00    +0.000 C 
ATOM     14  O   UNL     1       1.758   3.988  18.787  0.00  0.00    +0.000 OA
ATOM     15  H   UNL     1       6.092   3.105  15.210  0.00  0.00    +0.000 HD
ENDROOT
BRANCH   1  17
ATOM     16  C   UNL     1       5.971   3.731  12.540  0.00  0.00    +0.000 C 
ATOM     17  C   UNL     1       7.058   3.995  13.569  0.00  0.00    +0.000 C 
ATOM     18  C   UNL     1       7.771   5.320  13.299  0.00  0.00    +0.000 C 
ENDBRANCH   1  17
BRANCH  11  19
ATOM     19  C   UNL     1       1.842   7.305  19.790  0.00  0.00    +0.000 C 
BRANCH  19  20
ATOM     20  C   UNL     1       1.217   8.448  20.559  0.00  0.00    +0.000 A 
ATOM     21  C   UNL     1       0.951   9.656  19.881  0.00  0.00    +0.000 A 
ATOM     22  C   UNL     1       0.423  10.767  20.553  0.00  0.00    +0.000 A 
ATOM     23  C   UNL     1       0.133  10.677  21.908  0.00  0.00    +0.000 A 
ATOM     24  C   UNL     1       0.339   9.477  22.571  0.00  0.00    +0.000 A 
ATOM     25  F   UNL     1       0.047   9.386  23.875  0.00  0.00    +0.000 F 
ATOM     26  C   UNL     1       0.860   8.363  21.909  0.00  0.00    +0.000 A 
ENDBRANCH  19  20
ENDBRANCH  11  19
TORSDOF 3
ENDMDL
