MODEL 1
REMARK VINA RESULT:      -7.4      0.000      0.000
REMARK  Name = 
REMARK  6 active torsions:
REMARK  status: ('A' for Active; 'I' for Inactive)
REMARK    1  A    between atoms: C_2  and  O_3
REMARK    2  A    between atoms: C_2  and  C_6
REMARK    3  A    between atoms: O_3  and  C_4
REMARK    4  A    between atoms: C_4  and  C_5
REMARK    5  A    between atoms: N_14  and  C_15
REMARK    6  A    between atoms: C_15  and  C_16
REMARK                            x       y       z     vdW  Elec       q    Type
REMARK                         _______ _______ _______ _____ _____    ______ ____
ROOT
ATOM      1  C   UNL     1       6.708   5.221  15.428  0.00  0.00    +0.000 A 
ATOM      2  N   UNL     1       7.627   6.124  15.885  0.00  0.00    +0.000 NA
ATOM      3  C   UNL     1       7.481   6.604  17.134  0.00  0.00    +0.000 A 
ATOM      4  N   UNL     1       6.527   6.303  18.034  0.00  0.00    +0.000 NA
ATOM      5  C   UNL     1       5.669   5.391  17.547  0.00  0.00    +0.000 A 
ATOM      6  C   UNL     1       5.681   4.804  16.288  0.00  0.00    +0.000 A 
ATOM      7  N   UNL     1       4.633   3.906  16.175  0.00  0.00    +0.000 NA
ATOM      8  C   UNL     1       3.997   3.966  17.325  0.00  0.00    +0.000 A 
ATOM      9  N   UNL     1       4.584   4.852  18.186  0.00  0.00    +0.000 N 
ENDROOT
BRANCH   1  11
ATOM     10  C   UNL     1       7.810   5.169  13.249  0.00  0.00    +0.000 C 
ATOM     11  C   UNL     1       6.823   4.715  14.044  0.00  0.00    +0.000 C 
BRANCH  11  12
ATOM     12  O   UNL     1       5.842   3.819  13.679  0.00  0.00    +0.000 OA
BRANCH  12  13
ATOM     13  C   UNL     1       5.919   3.220  12.390  0.00  0.00    +0.000 C 
ATOM     14  C   UNL     1       4.566   3.362  11.717  0.00  0.00    +0.000 C 
ENDBRANCH  12  13
ENDBRANCH  11  12
ENDBRANCH   1  11
BRANCH   9  15
ATOM     15  C   UNL     1       4.038   5.280  19.461  0.00  0.00    +0.000 C 
BRANCH  15  16
ATOM     16  C   UNL     1       3.008   4.334  20.030  0.00  0.00    +0.000 A 
ATOM     17  C   UNL     1       3.383   3.273  20.868  0.00  0.00    +0.000 A 
ATOM     18  C   UNL     1       2.417   2.480  21.491  0.00  0.00    +0.000 A 
ATOM     19  C   UNL     1       1.063   2.738  21.288  0.00  0.00    +0.000 A 
ATOM     20  C   UNL     1       0.675   3.777  20.445  0.00  0.00    +0.000 A 
ATOM     21  C   UNL     1       1.641   4.568  19.817  0.00  0.00    +0.000 A 
ENDBRANCH  15  16
ENDBRANCH   9  15
TORSDOF 5
ENDMDL
MODEL 2
REMARK VINA RESULT:      -7.3      5.451      7.468
REMARK  Name = 
REMARK  6 active torsions:
REMARK  status: ('A' for Active; 'I' for Inactive)
REMARK    1  A    between atoms: C_2  and  O_3
REMARK    2  A    between atoms: C_2  and  C_6
REMARK    3  A    between atoms: O_3  and  C_4
REMARK    4  A    between atoms: C_4  and  C_5
REMARK    5  A    between atoms: N_14  and  C_15
REMARK    6  A    between atoms: C_15  and  C_16
REMARK                            x       y       z     vdW  Elec       q    Type
REMARK                         _______ _______ _______ _____ _____    ______ ____
ROOT
ATOM      1  C   UNL     1       0.082  10.170  19.710  0.00  0.00    +0.000 A 
ATOM      2  N   UNL     1      -0.193  10.014  21.040  0.00  0.00    +0.000 NA
ATOM      3  C   UNL     1       0.427   9.021  21.706  0.00  0.00    +0.000 A 
ATOM      4  N   UNL     1       1.317   8.131  21.231  0.00  0.00    +0.000 NA
ATOM      5  C   UNL     1       1.574   8.346  19.930  0.00  0.00    +0.000 A 
ATOM      6  C   UNL     1       1.021   9.320  19.107  0.00  0.00    +0.000 A 
ATOM      7  N   UNL     1       1.552   9.218  17.832  0.00  0.00    +0.000 NA
ATOM      8  C   UNL     1       2.384   8.201  17.881  0.00  0.00    +0.000 A 
ATOM      9  N   UNL     1       2.430   7.639  19.128  0.00  0.00    +0.000 N 
ENDROOT
BRANCH   1  11
ATOM     10  C   UNL     1      -0.028  12.417  18.762  0.00  0.00    +0.000 C 
ATOM     11  C   UNL     1      -0.621  11.224  18.950  0.00  0.00    +0.000 C 
BRANCH  11  12
ATOM     12  O   UNL     1      -1.884  10.876  18.523  0.00  0.00    +0.000 OA
BRANCH  12  13
ATOM     13  C   UNL     1      -2.024  10.284  17.236  0.00  0.00    +0.000 C 
ATOM     14  C   UNL     1      -3.489  10.341  16.843  0.00  0.00    +0.000 C 
ENDBRANCH  12  13
ENDBRANCH  11  12
ENDBRANCH   1  11
BRANCH   9  15
ATOM     15  C   UNL     1       3.111   6.406  19.474  0.00  0.00    +0.000 C 
BRANCH  15  16
ATOM     16  C   UNL     1       2.237   5.179  19.372  0.00  0.00    +0.000 A 
ATOM     17  C   UNL     1       2.045   4.527  18.144  0.00  0.00    +0.000 A 
ATOM     18  C   UNL     1       1.340   3.323  18.079  0.00  0.00    +0.000 A 
ATOM     19  C   UNL     1       0.821   2.752  19.239  0.00  0.00    +0.000 A 
ATOM     20  C   UNL     1       0.989   3.396  20.462  0.00  0.00    +0.000 A 
ATOM     21  C   UNL     1       1.689   4.603  20.529  0.00  0.00    +0.000 A 
ENDBRANCH  15  16
ENDBRANCH   9  15
TORSDOF 5
ENDMDL
MODEL 3
REMARK VINA RESULT:      -7.2      0.268      1.077
REMARK  Name = 
REMARK  6 active torsions:
REMARK  status: ('A' for Active; 'I' for Inactive)
REMARK    1  A    between atoms: C_2  and  O_3
REMARK    2  A    between atoms: C_2  and  C_6
REMARK    3  A    between atoms: O_3  and  C_4
REMARK    4  A    between atoms: C_4  and  C_5
REMARK    5  A    between atoms: N_14  and  C_15
REMARK    6  A    between atoms: C_15  and  C_16
REMARK                            x       y       z     vdW  Elec       q    Type
REMARK                         _______ _______ _______ _____ _____    ______ ____
ROOT
ATOM      1  C   UNL     1       6.661   5.286  15.434  0.00  0.00    +0.000 A 
ATOM      2  N   UNL     1       7.610   6.135  15.930  0.00  0.00    +0.000 NA
ATOM      3  C   UNL     1       7.418   6.660  17.155  0.00  0.00    +0.000 A 
ATOM      4  N   UNL     1       6.387   6.454  17.994  0.00  0.00    +0.000 NA
ATOM      5  C   UNL     1       5.498   5.592  17.473  0.00  0.00    +0.000 A 
ATOM      6  C   UNL     1       5.550   4.969  16.231  0.00  0.00    +0.000 A 
ATOM      7  N   UNL     1       4.449   4.146  16.069  0.00  0.00    +0.000 NA
ATOM      8  C   UNL     1       3.744   4.284  17.171  0.00  0.00    +0.000 A 
ATOM      9  N   UNL     1       4.337   5.151  18.048  0.00  0.00    +0.000 N 
ENDROOT
BRANCH   1  11
ATOM     10  C   UNL     1       7.837   5.173  13.297  0.00  0.00    +0.000 C 
ATOM     11  C   UNL     1       6.830   4.734  14.074  0.00  0.00    +0.000 C 
BRANCH  11  12
ATOM     12  O   UNL     1       5.873   3.811  13.708  0.00  0.00    +0.000 OA
BRANCH  12  13
ATOM     13  C   UNL     1       5.946   3.243  12.404  0.00  0.00    +0.000 C 
ATOM     14  C   UNL     1       4.574   3.345  11.764  0.00  0.00    +0.000 C 
ENDBRANCH  12  13
ENDBRANCH  11  12
ENDBRANCH   1  11
BRANCH   9  15
ATOM     15  C   UNL     1       3.740   5.653  19.272  0.00  0.00    +0.000 C 
BRANCH  15  16
ATOM     16  C   UNL     1       2.895   4.635  20.000  0.00  0.00    +0.000 A 
ATOM     17  C   UNL     1       1.495   4.667  19.921  0.00  0.00    +0.000 A 
ATOM     18  C   UNL     1       0.725   3.651  20.491  0.00  0.00    +0.000 A 
ATOM     19  C   UNL     1       1.344   2.588  21.145  0.00  0.00    +0.000 A 
ATOM     20  C   UNL     1       2.732   2.551  21.247  0.00  0.00    +0.000 A 
ATOM     21  C   UNL     1       3.504   3.569  20.681  0.00  0.00    +0.000 A 
ENDBRANCH  15  16
ENDBRANCH   9  15
TORSDOF 5
ENDMDL
MODEL 4
REMARK VINA RESULT:      -7.2      5.442      7.450
REMARK  Name = 
REMARK  6 active torsions:
REMARK  status: ('A' for Active; 'I' for Inactive)
REMARK    1  A    between atoms: C_2  and  O_3
REMARK    2  A    between atoms: C_2  and  C_6
REMARK    3  A    between atoms: O_3  and  C_4
REMARK    4  A    between atoms: C_4  and  C_5
REMARK    5  A    between atoms: N_14  and  C_15
REMARK    6  A    between atoms: C_15  and  C_16
REMARK                            x       y       z     vdW  Elec       q    Type
REMARK                         _______ _______ _______ _____ _____    ______ ____
ROOT
ATOM      1  C   UNL     1       0.015  10.086  19.767  0.00  0.00    +0.000 A 
ATOM      2  N   UNL     1      -0.208   9.915  21.105  0.00  0.00    +0.000 NA
ATOM      3  C   UNL     1       0.482   8.954  21.747  0.00  0.00    +0.000 A 
ATOM      4  N   UNL     1       1.399   8.111  21.242  0.00  0.00    +0.000 NA
ATOM      5  C   UNL     1       1.603   8.339  19.933  0.00  0.00    +0.000 A 
ATOM      6  C   UNL     1       0.975   9.284  19.131  0.00  0.00    +0.000 A 
ATOM      7  N   UNL     1       1.468   9.210  17.839  0.00  0.00    +0.000 NA
ATOM      8  C   UNL     1       2.351   8.235  17.858  0.00  0.00    +0.000 A 
ATOM      9  N   UNL     1       2.466   7.676  19.102  0.00  0.00    +0.000 N 
ENDROOT
BRANCH   1  11
ATOM     10  C   UNL     1      -0.206  12.296  18.752  0.00  0.00    +0.000 C 
ATOM     11  C   UNL     1      -0.764  11.104  19.032  0.00  0.00    +0.000 C 
BRANCH  11  12
ATOM     12  O   UNL     1      -2.055  10.728  18.728  0.00  0.00    +0.000 OA
BRANCH  12  13
ATOM     13  C   UNL     1      -2.577  11.074  17.450  0.00  0.00    +0.000 C 
ATOM     14  C   UNL     1      -2.238   9.957  16.480  0.00  0.00    +0.000 C 
ENDBRANCH  12  13
ENDBRANCH  11  12
ENDBRANCH   1  11
BRANCH   9  15
ATOM     15  C   UNL     1       3.218   6.478  19.423  0.00  0.00    +0.000 C 
BRANCH  15  16
ATOM     16  C   UNL     1       2.401   5.211  19.363  0.00  0.00    +0.000 A 
ATOM     17  C   UNL     1       1.801   4.680  20.515  0.00  0.00    +0.000 A 
ATOM     18  C   UNL     1       0.943   3.580  20.430  0.00  0.00    +0.000 A 
ATOM     19  C   UNL     1       0.672   2.998  19.194  0.00  0.00    +0.000 A 
ATOM     20  C   UNL     1       1.273   3.504  18.044  0.00  0.00    +0.000 A 
ATOM     21  C   UNL     1       2.135   4.600  18.127  0.00  0.00    +0.000 A 
ENDBRANCH  15  16
ENDBRANCH   9  15
TORSDOF 5
ENDMDL
MODEL 5
REMARK VINA RESULT:      -7.1      5.577      7.677
REMARK  Name = 
REMARK  6 active torsions:
REMARK  status: ('A' for Active; 'I' for Inactive)
REMARK    1  A    between atoms: C_2  and  O_3
REMARK    2  A    between atoms: C_2  and  C_6
REMARK    3  A    between atoms: O_3  and  C_4
REMARK    4  A    between atoms: C_4  and  C_5
REMARK    5  A    between atoms: N_14  and  C_15
REMARK    6  A    between atoms: C_15  and  C_16
REMARK                            x       y       z     vdW  Elec       q    Type
REMARK                         _______ _______ _______ _____ _____    ______ ____
ROOT
ATOM      1  C   UNL     1       0.285  10.111  19.455  0.00  0.00    +0.000 A 
ATOM      2  N   UNL     1      -0.070   9.945  20.765  0.00  0.00    +0.000 NA
ATOM      3  C   UNL     1       0.488   8.931  21.452  0.00  0.00    +0.000 A 
ATOM      4  N   UNL     1       1.385   8.027  21.018  0.00  0.00    +0.000 NA
ATOM      5  C   UNL     1       1.721   8.251  19.737  0.00  0.00    +0.000 A 
ATOM      6  C   UNL     1       1.239   9.246  18.896  0.00  0.00    +0.000 A 
ATOM      7  N   UNL     1       1.839   9.147  17.652  0.00  0.00    +0.000 NA
ATOM      8  C   UNL     1       2.645   8.111  17.736  0.00  0.00    +0.000 A 
ATOM      9  N   UNL     1       2.606   7.534  18.976  0.00  0.00    +0.000 N 
ENDROOT
BRANCH   1  11
ATOM     10  C   UNL     1      -1.550  10.981  18.100  0.00  0.00    +0.000 C 
ATOM     11  C   UNL     1      -0.349  11.189  18.670  0.00  0.00    +0.000 C 
BRANCH  11  12
ATOM     12  O   UNL     1       0.405  12.338  18.563  0.00  0.00    +0.000 OA
BRANCH  12  13
ATOM     13  C   UNL     1       0.220  13.361  19.536  0.00  0.00    +0.000 C 
ATOM     14  C   UNL     1      -0.270  14.610  18.826  0.00  0.00    +0.000 C 
ENDBRANCH  12  13
ENDBRANCH  11  12
ENDBRANCH   1  11
BRANCH   9  15
ATOM     15  C   UNL     1       3.238   6.282  19.345  0.00  0.00    +0.000 C 
BRANCH  15  16
ATOM     16  C   UNL     1       2.297   5.101  19.346  0.00  0.00    +0.000 A 
ATOM     17  C   UNL     1       1.968   4.437  18.154  0.00  0.00    +0.000 A 
ATOM     18  C   UNL     1       1.199   3.271  18.177  0.00  0.00    +0.000 A 
ATOM     19  C   UNL     1       0.750   2.752  19.389  0.00  0.00    +0.000 A 
ATOM     20  C   UNL     1       1.054   3.410  20.579  0.00  0.00    +0.000 A 
ATOM     21  C   UNL     1       1.819   4.579  20.558  0.00  0.00    +0.000 A 
ENDBRANCH  15  16
ENDBRANCH   9  15
TORSDOF 5
ENDMDL
MODEL 6
REMARK VINA RESULT:      -7.0      1.909      2.792
REMARK  Name = 
REMARK  6 active torsions:
REMARK  status: ('A' for Active; 'I' for Inactive)
REMARK    1  A    between atoms: C_2  and  O_3
REMARK    2  A    between atoms: C_2  and  C_6
REMARK    3  A    between atoms: O_3  and  C_4
REMARK    4  A    between atoms: C_4  and  C_5
REMARK    5  A    between atoms: N_14  and  C_15
REMARK    6  A    between atoms: C_15  and  C_16
REMARK                            x       y       z     vdW  Elec       q    Type
REMARK                         _______ _______ _______ _____ _____    ______ ____
ROOT
ATOM      1  C   UNL     1       6.544   5.246  15.494  0.00  0.00    +0.000 A 
ATOM      2  N   UNL     1       7.487   6.077  16.031  0.00  0.00    +0.000 NA
ATOM      3  C   UNL     1       7.281   6.557  17.272  0.00  0.00    +0.000 A 
ATOM      4  N   UNL     1       6.242   6.320  18.092  0.00  0.00    +0.000 NA
ATOM      5  C   UNL     1       5.360   5.476  17.531  0.00  0.00    +0.000 A 
ATOM      6  C   UNL     1       5.426   4.899  16.269  0.00  0.00    +0.000 A 
ATOM      7  N   UNL     1       4.327   4.081  16.065  0.00  0.00    +0.000 NA
ATOM      8  C   UNL     1       3.611   4.179  17.164  0.00  0.00    +0.000 A 
ATOM      9  N   UNL     1       4.193   5.014  18.078  0.00  0.00    +0.000 N 
ENDROOT
BRANCH   1  11
ATOM     10  C   UNL     1       7.807   5.123  13.408  0.00  0.00    +0.000 C 
ATOM     11  C   UNL     1       6.728   4.743  14.117  0.00  0.00    +0.000 C 
BRANCH  11  12
ATOM     12  O   UNL     1       5.711   3.930  13.664  0.00  0.00    +0.000 OA
BRANCH  12  13
ATOM     13  C   UNL     1       5.872   3.283  12.407  0.00  0.00    +0.000 C 
ATOM     14  C   UNL     1       4.528   3.271  11.702  0.00  0.00    +0.000 C 
ENDBRANCH  12  13
ENDBRANCH  11  12
ENDBRANCH   1  11
BRANCH   9  15
ATOM     15  C   UNL     1       3.584   5.471  19.313  0.00  0.00    +0.000 C 
BRANCH  15  16
ATOM     16  C   UNL     1       2.879   6.800  19.189  0.00  0.00    +0.000 A 
ATOM     17  C   UNL     1       2.875   7.508  17.977  0.00  0.00    +0.000 A 
ATOM     18  C   UNL     1       2.118   8.672  17.833  0.00  0.00    +0.000 A 
ATOM     19  C   UNL     1       1.352   9.145  18.897  0.00  0.00    +0.000 A 
ATOM     20  C   UNL     1       1.360   8.463  20.112  0.00  0.00    +0.000 A 
ATOM     21  C   UNL     1       2.121   7.301  20.258  0.00  0.00    +0.000 A 
ENDBRANCH  15  16
ENDBRANCH   9  15
TORSDOF 5
ENDMDL
MODEL 7
REMARK VINA RESULT:      -6.9      5.559      7.664
REMARK  Name = 
REMARK  6 active torsions:
REMARK  status: ('A' for Active; 'I' for Inactive)
REMARK    1  A    between atoms: C_2  and  O_3
REMARK    2  A    between atoms: C_2  and  C_6
REMARK    3  A    between atoms: O_3  and  C_4
REMARK    4  A    between atoms: C_4  and  C_5
REMARK    5  A    between atoms: N_14  and  C_15
REMARK    6  A    between atoms: C_15  and  C_16
REMARK                            x       y       z     vdW  Elec       q    Type
REMARK                         _______ _______ _______ _____ _____    ______ ____
ROOT
ATOM      1  C   UNL     1       0.156  10.013  19.380  0.00  0.00    +0.000 A 
ATOM      2  N   UNL     1      -0.167   9.887  20.702  0.00  0.00    +0.000 NA
ATOM      3  C   UNL     1       0.465   8.943  21.425  0.00  0.00    +0.000 A 
ATOM      4  N   UNL     1       1.411   8.079  21.016  0.00  0.00    +0.000 NA
ATOM      5  C   UNL     1       1.714   8.264  19.720  0.00  0.00    +0.000 A 
ATOM      6  C   UNL     1       1.155   9.186  18.844  0.00  0.00    +0.000 A 
ATOM      7  N   UNL     1       1.742   9.067  17.595  0.00  0.00    +0.000 NA
ATOM      8  C   UNL     1       2.614   8.089  17.711  0.00  0.00    +0.000 A 
ATOM      9  N   UNL     1       2.631   7.570  18.977  0.00  0.00    +0.000 N 
ENDROOT
BRANCH   1  11
ATOM     10  C   UNL     1      -1.656  10.647  17.871  0.00  0.00    +0.000 C 
ATOM     11  C   UNL     1      -0.558  11.012  18.557  0.00  0.00    +0.000 C 
BRANCH  11  12
ATOM     12  O   UNL     1       0.021  12.263  18.546  0.00  0.00    +0.000 OA
BRANCH  12  13
ATOM     13  C   UNL     1      -0.667  13.331  19.188  0.00  0.00    +0.000 C 
ATOM     14  C   UNL     1       0.265  14.528  19.250  0.00  0.00    +0.000 C 
ENDBRANCH  12  13
ENDBRANCH  11  12
ENDBRANCH   1  11
BRANCH   9  15
ATOM     15  C   UNL     1       3.347   6.379  19.392  0.00  0.00    +0.000 C 
BRANCH  15  16
ATOM     16  C   UNL     1       2.505   5.126  19.379  0.00  0.00    +0.000 A 
ATOM     17  C   UNL     1       1.948   4.615  20.562  0.00  0.00    +0.000 A 
ATOM     18  C   UNL     1       1.068   3.531  20.525  0.00  0.00    +0.000 A 
ATOM     19  C   UNL     1       0.731   2.944  19.308  0.00  0.00    +0.000 A 
ATOM     20  C   UNL     1       1.290   3.428  18.127  0.00  0.00    +0.000 A 
ATOM     21  C   UNL     1       2.173   4.510  18.162  0.00  0.00    +0.000 A 
ENDBRANCH  15  16
ENDBRANCH   9  15
TORSDOF 5
ENDMDL
MODEL 8
REMARK VINA RESULT:      -6.9      2.859      6.566
REMARK  Name = 
REMARK  6 active torsions:
REMARK  status: ('A' for Active; 'I' for Inactive)
REMARK    1  A    between atoms: C_2  and  O_3
REMARK    2  A    between atoms: C_2  and  C_6
REMARK    3  A    between atoms: O_3  and  C_4
REMARK    4  A    between atoms: C_4  and  C_5
REMARK    5  A    between atoms: N_14  and  C_15
REMARK    6  A    between atoms: C_15  and  C_16
REMARK                            x       y       z     vdW  Elec       q    Type
REMARK                         _______ _______ _______ _____ _____    ______ ____
ROOT
ATOM      1  C   UNL     1       2.029   4.709  18.849  0.00  0.00    +0.000 A 
ATOM      2  N   UNL     1       1.811   6.029  19.128  0.00  0.00    +0.000 NA
ATOM      3  C   UNL     1       2.618   6.943  18.557  0.00  0.00    +0.000 A 
ATOM      4  N   UNL     1       3.644   6.732  17.712  0.00  0.00    +0.000 NA
ATOM      5  C   UNL     1       3.797   5.424  17.447  0.00  0.00    +0.000 A 
ATOM      6  C   UNL     1       3.053   4.365  17.953  0.00  0.00    +0.000 A 
ATOM      7  N   UNL     1       3.517   3.169  17.431  0.00  0.00    +0.000 NA
ATOM      8  C   UNL     1       4.522   3.497  16.649  0.00  0.00    +0.000 A 
ATOM      9  N   UNL     1       4.732   4.849  16.629  0.00  0.00    +0.000 N 
ENDROOT
BRANCH   1  11
ATOM     10  C   UNL     1       0.563   2.759  18.750  0.00  0.00    +0.000 C 
ATOM     11  C   UNL     1       1.184   3.687  19.501  0.00  0.00    +0.000 C 
BRANCH  11  12
ATOM     12  O   UNL     1       1.081   3.817  20.869  0.00  0.00    +0.000 OA
BRANCH  12  13
ATOM     13  C   UNL     1       1.493   2.725  21.685  0.00  0.00    +0.000 C 
ATOM     14  C   UNL     1       2.976   2.497  21.461  0.00  0.00    +0.000 C 
ENDBRANCH  12  13
ENDBRANCH  11  12
ENDBRANCH   1  11
BRANCH   9  15
ATOM     15  C   UNL     1       5.859   5.519  16.008  0.00  0.00    +0.000 C 
BRANCH  15  16
ATOM     16  C   UNL     1       6.823   6.131  16.996  0.00  0.00    +0.000 A 
ATOM     17  C   UNL     1       7.187   7.483  16.911  0.00  0.00    +0.000 A 
ATOM     18  C   UNL     1       7.978   8.073  17.900  0.00  0.00    +0.000 A 
ATOM     19  C   UNL     1       8.413   7.321  18.988  0.00  0.00    +0.000 A 
ATOM     20  C   UNL     1       8.074   5.973  19.078  0.00  0.00    +0.000 A 
ATOM     21  C   UNL     1       7.287   5.380  18.087  0.00  0.00    +0.000 A 
ENDBRANCH  15  16
ENDBRANCH   9  15
TORSDOF 5
ENDMDL
MODEL 9
REMARK VINA RESULT:      -6.9      1.900      2.736
REMARK  Name = 
REMARK  6 active torsions:
REMARK  status: ('A' for Active; 'I' for Inactive)
REMARK    1  A    between atoms: C_2  and  O_3
REMARK    2  A    between atoms: C_2  and  C_6
REMARK    3  A    between atoms: O_3  and  C_4
REMARK    4  A    between atoms: C_4  and  C_5
REMARK    5  A    between atoms: N_14  and  C_15
REMARK    6  A    between atoms: C_15  and  C_16
REMARK                            x       y       z     vdW  Elec       q    Type
REMARK                         _______ _______ _______ _____ _____    ______ ____
ROOT
ATOM      1  C   UNL     1       6.572   5.170  15.507  0.00  0.00    +0.000 A 
ATOM      2  N   UNL     1       7.515   6.012  16.025  0.00  0.00    +0.000 NA
ATOM      3  C   UNL     1       7.317   6.508  17.261  0.00  0.00    +0.000 A 
ATOM      4  N   UNL     1       6.284   6.279  18.092  0.00  0.00    +0.000 NA
ATOM      5  C   UNL     1       5.401   5.424  17.549  0.00  0.00    +0.000 A 
ATOM      6  C   UNL     1       5.461   4.829  16.294  0.00  0.00    +0.000 A 
ATOM      7  N   UNL     1       4.364   4.004  16.110  0.00  0.00    +0.000 NA
ATOM      8  C   UNL     1       3.655   4.114  17.213  0.00  0.00    +0.000 A 
ATOM      9  N   UNL     1       4.241   4.964  18.111  0.00  0.00    +0.000 N 
ENDROOT
BRANCH   1  11
ATOM     10  C   UNL     1       7.696   5.176  13.340  0.00  0.00    +0.000 C 
ATOM     11  C   UNL     1       6.747   4.649  14.136  0.00  0.00    +0.000 C 
BRANCH  11  12
ATOM     12  O   UNL     1       5.857   3.659  13.781  0.00  0.00    +0.000 OA
BRANCH  12  13
ATOM     13  C   UNL     1       5.371   3.634  12.443  0.00  0.00    +0.000 C 
ATOM     14  C   UNL     1       5.863   2.359  11.782  0.00  0.00    +0.000 C 
ENDBRANCH  12  13
ENDBRANCH  11  12
ENDBRANCH   1  11
BRANCH   9  15
ATOM     15  C   UNL     1       3.638   5.435  19.344  0.00  0.00    +0.000 C 
BRANCH  15  16
ATOM     16  C   UNL     1       2.787   6.670  19.173  0.00  0.00    +0.000 A 
ATOM     17  C   UNL     1       2.098   7.232  20.259  0.00  0.00    +0.000 A 
ATOM     18  C   UNL     1       1.416   8.443  20.121  0.00  0.00    +0.000 A 
ATOM     19  C   UNL     1       1.414   9.110  18.899  0.00  0.00    +0.000 A 
ATOM     20  C   UNL     1       2.078   8.556  17.807  0.00  0.00    +0.000 A 
ATOM     21  C   UNL     1       2.757   7.342  17.941  0.00  0.00    +0.000 A 
ENDBRANCH  15  16
ENDBRANCH   9  15
TORSDOF 5
ENDMDL
