MODEL 1
REMARK VINA RESULT:      -8.7      0.000      0.000
REMARK  Name = 
REMARK  5 active torsions:
REMARK  status: ('A' for Active; 'I' for Inactive)
REMARK    1  A    between atoms: C_4  and  C_5
REMARK    2  A    between atoms: C_7  and  N_8
REMARK    3  A    between atoms: N_8  and  C_9
REMARK    4  A    between atoms: C_9  and  C_10
REMARK    5  A    between atoms: C_10  and  C_11
REMARK                            x       y       z     vdW  Elec       q    Type
REMARK                         _______ _______ _______ _____ _____    ______ ____
ROOT
ATOM      1  C   UNL     1       3.747   6.637  18.002  0.00  0.00    +0.000 A 
ATOM      2  C   UNL     1       4.152   5.515  18.907  0.00  0.00    +0.000 A 
ATOM      3  C   UNL     1       5.078   4.652  18.452  0.00  0.00    +0.000 A 
ATOM      4  N   UNL     1       5.621   4.881  17.166  0.00  0.00    +0.000 N 
ATOM      5  N   UNL     1       6.572   4.183  16.488  0.00  0.00    +0.000 NA
ATOM      6  C   UNL     1       6.630   4.840  15.332  0.00  0.00    +0.000 A 
ATOM      7  N   UNL     1       5.817   5.922  15.220  0.00  0.00    +0.000 NA
ATOM      8  C   UNL     1       5.186   5.954  16.375  0.00  0.00    +0.000 A 
ATOM      9  N   UNL     1       4.246   6.841  16.814  0.00  0.00    +0.000 NA
ENDROOT
BRANCH   1  13
ATOM     10  C   UNL     1       0.868   9.467  19.478  0.00  0.00    +0.000 A 
ATOM     11  C   UNL     1       1.337   9.546  18.167  0.00  0.00    +0.000 A 
ATOM     12  C   UNL     1       2.257   8.609  17.695  0.00  0.00    +0.000 A 
ATOM     13  C   UNL     1       2.721   7.586  18.534  0.00  0.00    +0.000 A 
ATOM     14  C   UNL     1       2.221   7.496  19.841  0.00  0.00    +0.000 A 
ATOM     15  C   UNL     1       1.305   8.440  20.312  0.00  0.00    +0.000 A 
ENDBRANCH   1  13
BRANCH   3  16
ATOM     16  N   UNL     1       5.502   3.533  19.172  0.00  0.00    +0.000 N 
ATOM     17  H   UNL     1       6.337   3.741  19.721  0.00  0.00    +0.000 HD
BRANCH  16  18
ATOM     18  C   UNL     1       4.591   2.606  19.833  0.00  0.00    +0.000 C 
BRANCH  18  19
ATOM     19  C   UNL     1       3.514   2.104  18.854  0.00  0.00    +0.000 C 
BRANCH  19  20
ATOM     20  C   UNL     1       2.145   1.803  19.511  0.00  0.00    +0.000 C 
ATOM     21  C   UNL     1       2.067   2.234  20.981  0.00  0.00    +0.000 C 
ATOM     22  C   UNL     1       2.054   3.752  21.135  0.00  0.00    +0.000 C 
ATOM     23  C   UNL     1       0.886   4.370  20.375  0.00  0.00    +0.000 C 
ATOM     24  C   UNL     1       0.849   3.944  18.910  0.00  0.00    +0.000 C 
ATOM     25  C   UNL     1       0.978   2.431  18.727  0.00  0.00    +0.000 C 
ENDBRANCH  19  20
ENDBRANCH  18  19
ENDBRANCH  16  18
ENDBRANCH   3  16
TORSDOF 5
ENDMDL
MODEL 2
REMARK VINA RESULT:      -8.5      1.932      4.849
REMARK  Name = 
REMARK  5 active torsions:
REMARK  status: ('A' for Active; 'I' for Inactive)
REMARK    1  A    between atoms: C_4  and  C_5
REMARK    2  A    between atoms: C_7  and  N_8
REMARK    3  A    between atoms: N_8  and  C_9
REMARK    4  A    between atoms: C_9  and  C_10
REMARK    5  A    between atoms: C_10  and  C_11
REMARK                            x       y       z     vdW  Elec       q    Type
REMARK                         _______ _______ _______ _____ _____    ______ ____
ROOT
ATOM      1  C   UNL     1       4.092   6.692  17.687  0.00  0.00    +0.000 A 
ATOM      2  C   UNL     1       3.579   6.083  18.956  0.00  0.00    +0.000 A 
ATOM      3  C   UNL     1       2.608   6.742  19.612  0.00  0.00    +0.000 A 
ATOM      4  N   UNL     1       2.122   7.945  19.047  0.00  0.00    +0.000 N 
ATOM      5  N   UNL     1       1.145   8.781  19.489  0.00  0.00    +0.000 NA
ATOM      6  C   UNL     1       1.170   9.748  18.576  0.00  0.00    +0.000 A 
ATOM      7  N   UNL     1       2.062   9.591  17.564  0.00  0.00    +0.000 NA
ATOM      8  C   UNL     1       2.658   8.453  17.854  0.00  0.00    +0.000 A 
ATOM      9  N   UNL     1       3.646   7.804  17.171  0.00  0.00    +0.000 NA
ENDROOT
BRANCH   1  13
ATOM     10  C   UNL     1       7.086   4.466  15.553  0.00  0.00    +0.000 A 
ATOM     11  C   UNL     1       6.084   5.150  14.867  0.00  0.00    +0.000 A 
ATOM     12  C   UNL     1       5.129   5.885  15.572  0.00  0.00    +0.000 A 
ATOM     13  C   UNL     1       5.167   5.936  16.972  0.00  0.00    +0.000 A 
ATOM     14  C   UNL     1       6.196   5.270  17.653  0.00  0.00    +0.000 A 
ATOM     15  C   UNL     1       7.146   4.530  16.944  0.00  0.00    +0.000 A 
ENDBRANCH   1  13
BRANCH   3  16
ATOM     16  N   UNL     1       2.081   6.314  20.834  0.00  0.00    +0.000 N 
ATOM     17  H   UNL     1       1.267   6.868  21.101  0.00  0.00    +0.000 HD
BRANCH  16  18
ATOM     18  C   UNL     1       1.979   4.911  21.220  0.00  0.00    +0.000 C 
BRANCH  18  19
ATOM     19  C   UNL     1       1.051   4.144  20.261  0.00  0.00    +0.000 C 
BRANCH  19  20
ATOM     20  C   UNL     1       1.429   2.657  20.058  0.00  0.00    +0.000 C 
ATOM     21  C   UNL     1       1.232   2.170  18.617  0.00  0.00    +0.000 C 
ATOM     22  C   UNL     1       2.245   2.786  17.657  0.00  0.00    +0.000 C 
ATOM     23  C   UNL     1       3.673   2.475  18.094  0.00  0.00    +0.000 C 
ATOM     24  C   UNL     1       3.942   2.873  19.543  0.00  0.00    +0.000 C 
ATOM     25  C   UNL     1       2.872   2.362  20.508  0.00  0.00    +0.000 C 
ENDBRANCH  19  20
ENDBRANCH  18  19
ENDBRANCH  16  18
ENDBRANCH   3  16
TORSDOF 5
ENDMDL
MODEL 3
REMARK VINA RESULT:      -8.4      2.071      5.217
REMARK  Name = 
REMARK  5 active torsions:
REMARK  status: ('A' for Active; 'I' for Inactive)
REMARK    1  A    between atoms: C_4  and  C_5
REMARK    2  A    between atoms: C_7  and  N_8
REMARK    3  A    between atoms: N_8  and  C_9
REMARK    4  A    between atoms: C_9  and  C_10
REMARK    5  A    between atoms: C_10  and  C_11
REMARK                            x       y       z     vdW  Elec       q    Type
REMARK                         _______ _______ _______ _____ _____    ______ ____
ROOT
ATOM      1  C   UNL     1       6.654   4.583  15.651  0.00  0.00    +0.000 A 
ATOM      2  C   UNL     1       5.655   3.699  16.333  0.00  0.00    +0.000 A 
ATOM      3  C   UNL     1       5.564   3.781  17.672  0.00  0.00    +0.000 A 
ATOM      4  N   UNL     1       6.395   4.714  18.337  0.00  0.00    +0.000 N 
ATOM      5  N   UNL     1       6.484   5.009  19.662  0.00  0.00    +0.000 NA
ATOM      6  C   UNL     1       7.454   5.918  19.681  0.00  0.00    +0.000 A 
ATOM      7  N   UNL     1       7.979   6.258  18.476  0.00  0.00    +0.000 NA
ATOM      8  C   UNL     1       7.309   5.506  17.627  0.00  0.00    +0.000 A 
ATOM      9  N   UNL     1       7.422   5.437  16.268  0.00  0.00    +0.000 NA
ENDROOT
BRANCH   1  13
ATOM     10  C   UNL     1       6.872   4.141  11.382  0.00  0.00    +0.000 A 
ATOM     11  C   UNL     1       5.955   3.403  12.128  0.00  0.00    +0.000 A 
ATOM     12  C   UNL     1       5.882   3.571  13.511  0.00  0.00    +0.000 A 
ATOM     13  C   UNL     1       6.731   4.476  14.161  0.00  0.00    +0.000 A 
ATOM     14  C   UNL     1       7.630   5.237  13.400  0.00  0.00    +0.000 A 
ATOM     15  C   UNL     1       7.705   5.061  12.016  0.00  0.00    +0.000 A 
ENDBRANCH   1  13
BRANCH   3  16
ATOM     16  N   UNL     1       4.715   2.974  18.434  0.00  0.00    +0.000 N 
ATOM     17  H   UNL     1       4.624   3.329  19.386  0.00  0.00    +0.000 HD
BRANCH  16  18
ATOM     18  C   UNL     1       3.488   2.381  17.917  0.00  0.00    +0.000 C 
BRANCH  18  19
ATOM     19  C   UNL     1       2.436   2.237  19.032  0.00  0.00    +0.000 C 
BRANCH  19  20
ATOM     20  C   UNL     1       1.230   3.198  18.902  0.00  0.00    +0.000 C 
ATOM     21  C   UNL     1       0.780   3.794  20.242  0.00  0.00    +0.000 C 
ATOM     22  C   UNL     1       1.793   4.788  20.800  0.00  0.00    +0.000 C 
ATOM     23  C   UNL     1       2.047   5.923  19.814  0.00  0.00    +0.000 C 
ATOM     24  C   UNL     1       2.443   5.419  18.429  0.00  0.00    +0.000 C 
ATOM     25  C   UNL     1       1.504   4.335  17.899  0.00  0.00    +0.000 C 
ENDBRANCH  19  20
ENDBRANCH  18  19
ENDBRANCH  16  18
ENDBRANCH   3  16
TORSDOF 5
ENDMDL
MODEL 4
REMARK VINA RESULT:      -8.4      0.713      1.077
REMARK  Name = 
REMARK  5 active torsions:
REMARK  status: ('A' for Active; 'I' for Inactive)
REMARK    1  A    between atoms: C_4  and  C_5
REMARK    2  A    between atoms: C_7  and  N_8
REMARK    3  A    between atoms: N_8  and  C_9
REMARK    4  A    between atoms: C_9  and  C_10
REMARK    5  A    between atoms: C_10  and  C_11
REMARK                            x       y       z     vdW  Elec       q    Type
REMARK                         _______ _______ _______ _____ _____    ______ ____
ROOT
ATOM      1  C   UNL     1       3.791   6.724  18.089  0.00  0.00    +0.000 A 
ATOM      2  C   UNL     1       4.196   5.636  19.035  0.00  0.00    +0.000 A 
ATOM      3  C   UNL     1       5.153   4.783  18.629  0.00  0.00    +0.000 A 
ATOM      4  N   UNL     1       5.727   4.990  17.352  0.00  0.00    +0.000 N 
ATOM      5  N   UNL     1       6.712   4.297  16.719  0.00  0.00    +0.000 NA
ATOM      6  C   UNL     1       6.787   4.925  15.549  0.00  0.00    +0.000 A 
ATOM      7  N   UNL     1       5.954   5.984  15.385  0.00  0.00    +0.000 NA
ATOM      8  C   UNL     1       5.290   6.032  16.521  0.00  0.00    +0.000 A 
ATOM      9  N   UNL     1       4.318   6.908  16.910  0.00  0.00    +0.000 NA
ENDROOT
BRANCH   1  13
ATOM     10  C   UNL     1       0.811   9.524  19.410  0.00  0.00    +0.000 A 
ATOM     11  C   UNL     1       1.324   9.589  18.116  0.00  0.00    +0.000 A 
ATOM     12  C   UNL     1       2.277   8.661  17.694  0.00  0.00    +0.000 A 
ATOM     13  C   UNL     1       2.730   7.663  18.568  0.00  0.00    +0.000 A 
ATOM     14  C   UNL     1       2.186   7.586  19.858  0.00  0.00    +0.000 A 
ATOM     15  C   UNL     1       1.237   8.521  20.279  0.00  0.00    +0.000 A 
ENDBRANCH   1  13
BRANCH   3  16
ATOM     16  N   UNL     1       5.583   3.693  19.390  0.00  0.00    +0.000 N 
ATOM     17  H   UNL     1       5.974   3.996  20.282  0.00  0.00    +0.000 HD
BRANCH  16  18
ATOM     18  C   UNL     1       4.856   2.432  19.475  0.00  0.00    +0.000 C 
BRANCH  18  19
ATOM     19  C   UNL     1       3.533   2.612  20.242  0.00  0.00    +0.000 C 
BRANCH  19  20
ATOM     20  C   UNL     1       2.291   2.041  19.515  0.00  0.00    +0.000 C 
ATOM     21  C   UNL     1       1.007   2.834  19.792  0.00  0.00    +0.000 C 
ATOM     22  C   UNL     1       1.030   4.212  19.137  0.00  0.00    +0.000 C 
ATOM     23  C   UNL     1       1.227   4.099  17.630  0.00  0.00    +0.000 C 
ATOM     24  C   UNL     1       2.454   3.270  17.259  0.00  0.00    +0.000 C 
ATOM     25  C   UNL     1       2.511   1.931  17.995  0.00  0.00    +0.000 C 
ENDBRANCH  19  20
ENDBRANCH  18  19
ENDBRANCH  16  18
ENDBRANCH   3  16
TORSDOF 5
ENDMDL
MODEL 5
REMARK VINA RESULT:      -8.4      2.057      5.535
REMARK  Name = 
REMARK  5 active torsions:
REMARK  status: ('A' for Active; 'I' for Inactive)
REMARK    1  A    between atoms: C_4  and  C_5
REMARK    2  A    between atoms: C_7  and  N_8
REMARK    3  A    between atoms: N_8  and  C_9
REMARK    4  A    between atoms: C_9  and  C_10
REMARK    5  A    between atoms: C_10  and  C_11
REMARK                            x       y       z     vdW  Elec       q    Type
REMARK                         _______ _______ _______ _____ _____    ______ ____
ROOT
ATOM      1  C   UNL     1       6.507   4.961  15.627  0.00  0.00    +0.000 A 
ATOM      2  C   UNL     1       5.326   5.775  16.059  0.00  0.00    +0.000 A 
ATOM      3  C   UNL     1       5.252   6.123  17.355  0.00  0.00    +0.000 A 
ATOM      4  N   UNL     1       6.305   5.722  18.211  0.00  0.00    +0.000 N 
ATOM      5  N   UNL     1       6.484   5.958  19.539  0.00  0.00    +0.000 NA
ATOM      6  C   UNL     1       7.614   5.303  19.789  0.00  0.00    +0.000 A 
ATOM      7  N   UNL     1       8.196   4.688  18.727  0.00  0.00    +0.000 NA
ATOM      8  C   UNL     1       7.378   4.956  17.731  0.00  0.00    +0.000 A 
ATOM      9  N   UNL     1       7.473   4.588  16.420  0.00  0.00    +0.000 NA
ENDROOT
BRANCH   1  13
ATOM     10  C   UNL     1       6.668   3.770  11.501  0.00  0.00    +0.000 A 
ATOM     11  C   UNL     1       5.690   3.258  12.351  0.00  0.00    +0.000 A 
ATOM     12  C   UNL     1       5.637   3.669  13.684  0.00  0.00    +0.000 A 
ATOM     13  C   UNL     1       6.569   4.592  14.179  0.00  0.00    +0.000 A 
ATOM     14  C   UNL     1       7.531   5.124  13.309  0.00  0.00    +0.000 A 
ATOM     15  C   UNL     1       7.585   4.706  11.977  0.00  0.00    +0.000 A 
ENDBRANCH   1  13
BRANCH   3  16
ATOM     16  N   UNL     1       4.177   6.832  17.899  0.00  0.00    +0.000 N 
ATOM     17  H   UNL     1       4.341   7.838  17.862  0.00  0.00    +0.000 HD
BRANCH  16  18
ATOM     18  C   UNL     1       2.781   6.465  17.690  0.00  0.00    +0.000 C 
BRANCH  18  19
ATOM     19  C   UNL     1       2.353   5.359  18.671  0.00  0.00    +0.000 C 
BRANCH  19  20
ATOM     20  C   UNL     1       1.706   4.124  17.998  0.00  0.00    +0.000 C 
ATOM     21  C   UNL     1       2.641   3.408  17.014  0.00  0.00    +0.000 C 
ATOM     22  C   UNL     1       3.788   2.696  17.725  0.00  0.00    +0.000 C 
ATOM     23  C   UNL     1       3.261   1.681  18.733  0.00  0.00    +0.000 C 
ATOM     24  C   UNL     1       2.271   2.296  19.720  0.00  0.00    +0.000 C 
ATOM     25  C   UNL     1       1.177   3.114  19.033  0.00  0.00    +0.000 C 
ENDBRANCH  19  20
ENDBRANCH  18  19
ENDBRANCH  16  18
ENDBRANCH   3  16
TORSDOF 5
ENDMDL
MODEL 6
REMARK VINA RESULT:      -8.2      0.989      1.476
REMARK  Name = 
REMARK  5 active torsions:
REMARK  status: ('A' for Active; 'I' for Inactive)
REMARK    1  A    between atoms: C_4  and  C_5
REMARK    2  A    between atoms: C_7  and  N_8
REMARK    3  A    between atoms: N_8  and  C_9
REMARK    4  A    between atoms: C_9  and  C_10
REMARK    5  A    between atoms: C_10  and  C_11
REMARK                            x       y       z     vdW  Elec       q    Type
REMARK                         _______ _______ _______ _____ _____    ______ ____
ROOT
ATOM      1  C   UNL     1       3.566   6.663  17.744  0.00  0.00    +0.000 A 
ATOM      2  C   UNL     1       3.048   5.259  17.693  0.00  0.00    +0.000 A 
ATOM      3  C   UNL     1       3.837   4.325  17.133  0.00  0.00    +0.000 A 
ATOM      4  N   UNL     1       5.107   4.729  16.658  0.00  0.00    +0.000 N 
ATOM      5  N   UNL     1       6.092   3.993  16.077  0.00  0.00    +0.000 NA
ATOM      6  C   UNL     1       7.012   4.916  15.811  0.00  0.00    +0.000 A 
ATOM      7  N   UNL     1       6.715   6.183  16.199  0.00  0.00    +0.000 NA
ATOM      8  C   UNL     1       5.519   6.068  16.738  0.00  0.00    +0.000 A 
ATOM      9  N   UNL     1       4.734   7.033  17.300  0.00  0.00    +0.000 NA
ENDROOT
BRANCH   1  13
ATOM     10  C   UNL     1       0.921   9.486  19.617  0.00  0.00    +0.000 A 
ATOM     11  C   UNL     1       1.397   8.382  20.321  0.00  0.00    +0.000 A 
ATOM     12  C   UNL     1       2.270   7.483  19.707  0.00  0.00    +0.000 A 
ATOM     13  C   UNL     1       2.671   7.681  18.378  0.00  0.00    +0.000 A 
ATOM     14  C   UNL     1       2.212   8.811  17.687  0.00  0.00    +0.000 A 
ATOM     15  C   UNL     1       1.332   9.705  18.303  0.00  0.00    +0.000 A 
ENDBRANCH   1  13
BRANCH   3  16
ATOM     16  N   UNL     1       3.452   2.992  16.972  0.00  0.00    +0.000 N 
ATOM     17  H   UNL     1       3.530   2.699  15.998  0.00  0.00    +0.000 HD
BRANCH  16  18
ATOM     18  C   UNL     1       3.783   1.937  17.923  0.00  0.00    +0.000 C 
BRANCH  18  19
ATOM     19  C   UNL     1       3.884   2.498  19.352  0.00  0.00    +0.000 C 
BRANCH  19  20
ATOM     20  C   UNL     1       2.737   2.060  20.293  0.00  0.00    +0.000 C 
ATOM     21  C   UNL     1       2.615   2.930  21.551  0.00  0.00    +0.000 C 
ATOM     22  C   UNL     1       2.113   4.335  21.232  0.00  0.00    +0.000 C 
ATOM     23  C   UNL     1       0.759   4.286  20.531  0.00  0.00    +0.000 C 
ATOM     24  C   UNL     1       0.771   3.389  19.296  0.00  0.00    +0.000 C 
ATOM     25  C   UNL     1       1.380   2.013  19.567  0.00  0.00    +0.000 C 
ENDBRANCH  19  20
ENDBRANCH  18  19
ENDBRANCH  16  18
ENDBRANCH   3  16
TORSDOF 5
ENDMDL
MODEL 7
REMARK VINA RESULT:      -8.2      2.104      5.363
REMARK  Name = 
REMARK  5 active torsions:
REMARK  status: ('A' for Active; 'I' for Inactive)
REMARK    1  A    between atoms: C_4  and  C_5
REMARK    2  A    between atoms: C_7  and  N_8
REMARK    3  A    between atoms: N_8  and  C_9
REMARK    4  A    between atoms: C_9  and  C_10
REMARK    5  A    between atoms: C_10  and  C_11
REMARK                            x       y       z     vdW  Elec       q    Type
REMARK                         _______ _______ _______ _____ _____    ______ ____
ROOT
ATOM      1  C   UNL     1       6.483   4.782  15.735  0.00  0.00    +0.000 A 
ATOM      2  C   UNL     1       5.169   5.328  16.202  0.00  0.00    +0.000 A 
ATOM      3  C   UNL     1       5.054   5.642  17.504  0.00  0.00    +0.000 A 
ATOM      4  N   UNL     1       6.187   5.460  18.333  0.00  0.00    +0.000 N 
ATOM      5  N   UNL     1       6.343   5.715  19.659  0.00  0.00    +0.000 NA
ATOM      6  C   UNL     1       7.590   5.307  19.878  0.00  0.00    +0.000 A 
ATOM      7  N   UNL     1       8.263   4.837  18.795  0.00  0.00    +0.000 NA
ATOM      8  C   UNL     1       7.384   4.938  17.820  0.00  0.00    +0.000 A 
ATOM      9  N   UNL     1       7.523   4.610  16.502  0.00  0.00    +0.000 NA
ENDROOT
BRANCH   1  13
ATOM     10  C   UNL     1       6.795   3.953  11.529  0.00  0.00    +0.000 A 
ATOM     11  C   UNL     1       7.674   4.841  12.146  0.00  0.00    +0.000 A 
ATOM     12  C   UNL     1       7.573   5.086  13.517  0.00  0.00    +0.000 A 
ATOM     13  C   UNL     1       6.587   4.447  14.280  0.00  0.00    +0.000 A 
ATOM     14  C   UNL     1       5.727   3.532  13.657  0.00  0.00    +0.000 A 
ATOM     15  C   UNL     1       5.826   3.294  12.284  0.00  0.00    +0.000 A 
ENDBRANCH   1  13
BRANCH   3  16
ATOM     16  N   UNL     1       3.869   6.106  18.079  0.00  0.00    +0.000 N 
ATOM     17  H   UNL     1       3.869   7.124  18.156  0.00  0.00    +0.000 HD
BRANCH  16  18
ATOM     18  C   UNL     1       2.555   5.548  17.782  0.00  0.00    +0.000 C 
BRANCH  18  19
ATOM     19  C   UNL     1       1.870   5.044  19.064  0.00  0.00    +0.000 C 
BRANCH  19  20
ATOM     20  C   UNL     1       1.612   3.518  19.094  0.00  0.00    +0.000 C 
ATOM     21  C   UNL     1       2.855   2.685  18.756  0.00  0.00    +0.000 C 
ATOM     22  C   UNL     1       3.909   2.750  19.857  0.00  0.00    +0.000 C 
ATOM     23  C   UNL     1       3.340   2.273  21.188  0.00  0.00    +0.000 C 
ATOM     24  C   UNL     1       2.061   3.010  21.577  0.00  0.00    +0.000 C 
ATOM     25  C   UNL     1       1.034   3.056  20.445  0.00  0.00    +0.000 C 
ENDBRANCH  19  20
ENDBRANCH  18  19
ENDBRANCH  16  18
ENDBRANCH   3  16
TORSDOF 5
ENDMDL
MODEL 8
REMARK VINA RESULT:      -8.1      1.023      1.141
REMARK  Name = 
REMARK  5 active torsions:
REMARK  status: ('A' for Active; 'I' for Inactive)
REMARK    1  A    between atoms: C_4  and  C_5
REMARK    2  A    between atoms: C_7  and  N_8
REMARK    3  A    between atoms: N_8  and  C_9
REMARK    4  A    between atoms: C_9  and  C_10
REMARK    5  A    between atoms: C_10  and  C_11
REMARK                            x       y       z     vdW  Elec       q    Type
REMARK                         _______ _______ _______ _____ _____    ______ ____
ROOT
ATOM      1  C   UNL     1       3.370   6.803  17.886  0.00  0.00    +0.000 A 
ATOM      2  C   UNL     1       2.895   5.388  17.775  0.00  0.00    +0.000 A 
ATOM      3  C   UNL     1       3.723   4.498  17.200  0.00  0.00    +0.000 A 
ATOM      4  N   UNL     1       4.991   4.954  16.769  0.00  0.00    +0.000 N 
ATOM      5  N   UNL     1       6.010   4.267  16.186  0.00  0.00    +0.000 NA
ATOM      6  C   UNL     1       6.908   5.225  15.973  0.00  0.00    +0.000 A 
ATOM      7  N   UNL     1       6.565   6.468  16.398  0.00  0.00    +0.000 NA
ATOM      8  C   UNL     1       5.362   6.300  16.905  0.00  0.00    +0.000 A 
ATOM      9  N   UNL     1       4.537   7.222  17.482  0.00  0.00    +0.000 NA
ENDROOT
BRANCH   1  13
ATOM     10  C   UNL     1       0.746   9.689  19.691  0.00  0.00    +0.000 A 
ATOM     11  C   UNL     1       1.090   9.785  18.344  0.00  0.00    +0.000 A 
ATOM     12  C   UNL     1       1.928   8.830  17.766  0.00  0.00    +0.000 A 
ATOM     13  C   UNL     1       2.433   7.772  18.535  0.00  0.00    +0.000 A 
ATOM     14  C   UNL     1       2.057   7.666  19.881  0.00  0.00    +0.000 A 
ATOM     15  C   UNL     1       1.223   8.628  20.458  0.00  0.00    +0.000 A 
ENDBRANCH   1  13
BRANCH   3  16
ATOM     16  N   UNL     1       3.381   3.160  16.984  0.00  0.00    +0.000 N 
ATOM     17  H   UNL     1       3.444   2.917  15.995  0.00  0.00    +0.000 HD
BRANCH  16  18
ATOM     18  C   UNL     1       3.773   2.074  17.874  0.00  0.00    +0.000 C 
BRANCH  18  19
ATOM     19  C   UNL     1       3.910   2.574  19.323  0.00  0.00    +0.000 C 
BRANCH  19  20
ATOM     20  C   UNL     1       2.792   2.087  20.276  0.00  0.00    +0.000 C 
ATOM     21  C   UNL     1       2.648   2.951  21.536  0.00  0.00    +0.000 C 
ATOM     22  C   UNL     1       2.084   4.333  21.224  0.00  0.00    +0.000 C 
ATOM     23  C   UNL     1       0.727   4.229  20.538  0.00  0.00    +0.000 C 
ATOM     24  C   UNL     1       0.762   3.335  19.301  0.00  0.00    +0.000 C 
ATOM     25  C   UNL     1       1.430   1.985  19.563  0.00  0.00    +0.000 C 
ENDBRANCH  19  20
ENDBRANCH  18  19
ENDBRANCH  16  18
ENDBRANCH   3  16
TORSDOF 5
ENDMDL
MODEL 9
REMARK VINA RESULT:      -8.1      2.045      5.350
REMARK  Name = 
REMARK  5 active torsions:
REMARK  status: ('A' for Active; 'I' for Inactive)
REMARK    1  A    between atoms: C_4  and  C_5
REMARK    2  A    between atoms: C_7  and  N_8
REMARK    3  A    between atoms: N_8  and  C_9
REMARK    4  A    between atoms: C_9  and  C_10
REMARK    5  A    between atoms: C_10  and  C_11
REMARK                            x       y       z     vdW  Elec       q    Type
REMARK                         _______ _______ _______ _____ _____    ______ ____
ROOT
ATOM      1  C   UNL     1       6.457   4.898  15.575  0.00  0.00    +0.000 A 
ATOM      2  C   UNL     1       5.184   5.565  16.000  0.00  0.00    +0.000 A 
ATOM      3  C   UNL     1       5.055   5.886  17.299  0.00  0.00    +0.000 A 
ATOM      4  N   UNL     1       6.137   5.599  18.164  0.00  0.00    +0.000 N 
ATOM      5  N   UNL     1       6.272   5.837  19.496  0.00  0.00    +0.000 NA
ATOM      6  C   UNL     1       7.467   5.313  19.755  0.00  0.00    +0.000 A 
ATOM      7  N   UNL     1       8.129   4.784  18.694  0.00  0.00    +0.000 NA
ATOM      8  C   UNL     1       7.297   4.968  17.690  0.00  0.00    +0.000 A 
ATOM      9  N   UNL     1       7.450   4.629  16.376  0.00  0.00    +0.000 NA
ENDROOT
BRANCH   1  13
ATOM     10  C   UNL     1       6.791   3.786  11.437  0.00  0.00    +0.000 A 
ATOM     11  C   UNL     1       5.797   3.235  12.244  0.00  0.00    +0.000 A 
ATOM     12  C   UNL     1       5.688   3.620  13.581  0.00  0.00    +0.000 A 
ATOM     13  C   UNL     1       6.578   4.557  14.123  0.00  0.00    +0.000 A 
ATOM     14  C   UNL     1       7.556   5.128  13.297  0.00  0.00    +0.000 A 
ATOM     15  C   UNL     1       7.666   4.736  11.961  0.00  0.00    +0.000 A 
ENDBRANCH   1  13
BRANCH   3  16
ATOM     16  N   UNL     1       3.900   6.459  17.836  0.00  0.00    +0.000 N 
ATOM     17  H   UNL     1       3.439   7.067  17.158  0.00  0.00    +0.000 HD
BRANCH  16  18
ATOM     18  C   UNL     1       2.968   5.740  18.696  0.00  0.00    +0.000 C 
BRANCH  18  19
ATOM     19  C   UNL     1       2.016   4.864  17.863  0.00  0.00    +0.000 C 
BRANCH  19  20
ATOM     20  C   UNL     1       2.211   3.341  18.060  0.00  0.00    +0.000 C 
ATOM     21  C   UNL     1       3.446   2.990  18.900  0.00  0.00    +0.000 C 
ATOM     22  C   UNL     1       3.275   3.381  20.365  0.00  0.00    +0.000 C 
ATOM     23  C   UNL     1       2.052   2.702  20.973  0.00  0.00    +0.000 C 
ATOM     24  C   UNL     1       0.782   2.948  20.164  0.00  0.00    +0.000 C 
ATOM     25  C   UNL     1       0.966   2.673  18.671  0.00  0.00    +0.000 C 
ENDBRANCH  19  20
ENDBRANCH  18  19
ENDBRANCH  16  18
ENDBRANCH   3  16
TORSDOF 5
ENDMDL
