MODEL 1
REMARK VINA RESULT:      -7.1      0.000      0.000
REMARK  Name = 
REMARK  2 active torsions:
REMARK  status: ('A' for Active; 'I' for Inactive)
REMARK    1  A    between atoms: C_1  and  N_2
REMARK    2  A    between atoms: N_6  and  C_7
REMARK                            x       y       z     vdW  Elec       q    Type
REMARK                         _______ _______ _______ _____ _____    ______ ____
ROOT
ATOM      1  C   UNL     1       1.924   3.340  21.771  0.00  0.00    +0.000 C 
ATOM      2  N   UNL     1       2.650   4.194  20.870  0.00  0.00    +0.000 N 
ATOM      3  C   UNL     1       2.060   5.399  20.398  0.00  0.00    +0.000 C 
ATOM      4  N   UNL     1       1.580   6.360  21.116  0.00  0.00    +0.000 NA
ATOM      5  C   UNL     1       1.336   7.586  20.428  0.00  0.00    +0.000 A 
ATOM      6  N   UNL     1       0.821   8.716  20.961  0.00  0.00    +0.000 N 
ATOM      7  C   UNL     1       0.166   8.913  22.256  0.00  0.00    +0.000 C 
ATOM      8  C   UNL     1       1.119   9.686  20.045  0.00  0.00    +0.000 A 
ATOM      9  C   UNL     1       0.892  11.056  20.096  0.00  0.00    +0.000 A 
ATOM     10  C   UNL     1       1.384  11.847  19.028  0.00  0.00    +0.000 A 
ATOM     11  C   UNL     1       2.061  11.234  17.939  0.00  0.00    +0.000 A 
ATOM     12  C   UNL     1       2.240   9.849  17.907  0.00  0.00    +0.000 A 
ATOM     13  C   UNL     1       1.735   9.102  18.972  0.00  0.00    +0.000 A 
ATOM     14  N   UNL     1       1.817   7.781  19.179  0.00  0.00    +0.000 N 
ATOM     15  C   UNL     1       2.366   6.707  18.345  0.00  0.00    +0.000 C 
ATOM     16  N   UNL     1       2.065   5.451  18.988  0.00  0.00    +0.000 N 
ATOM     17  C   UNL     1       2.517   4.184  18.598  0.00  0.00    +0.000 A 
ATOM     18  C   UNL     1       2.377   3.519  17.383  0.00  0.00    +0.000 A 
ATOM     19  C   UNL     1       2.962   2.241  17.266  0.00  0.00    +0.000 A 
ATOM     20  C   UNL     1       3.730   1.704  18.324  0.00  0.00    +0.000 A 
ATOM     21  C   UNL     1       3.768   2.360  19.560  0.00  0.00    +0.000 A 
ATOM     22  C   UNL     1       3.068   3.556  19.678  0.00  0.00    +0.000 A 
ENDROOT
TORSDOF 0
ENDMDL
MODEL 2
REMARK VINA RESULT:      -6.7      2.554      2.814
REMARK  Name = 
REMARK  2 active torsions:
REMARK  status: ('A' for Active; 'I' for Inactive)
REMARK    1  A    between atoms: C_1  and  N_2
REMARK    2  A    between atoms: N_6  and  C_7
REMARK                            x       y       z     vdW  Elec       q    Type
REMARK                         _______ _______ _______ _____ _____    ______ ____
ROOT
ATOM      1  C   UNL     1       4.891   3.648  19.281  0.00  0.00    +0.000 C 
ATOM      2  N   UNL     1       5.111   5.005  18.859  0.00  0.00    +0.000 N 
ATOM      3  C   UNL     1       4.013   5.902  18.741  0.00  0.00    +0.000 C 
ATOM      4  N   UNL     1       3.152   6.199  19.657  0.00  0.00    +0.000 NA
ATOM      5  C   UNL     1       2.345   7.347  19.403  0.00  0.00    +0.000 A 
ATOM      6  N   UNL     1       1.370   7.834  20.201  0.00  0.00    +0.000 N 
ATOM      7  C   UNL     1       0.726   7.213  21.360  0.00  0.00    +0.000 C 
ATOM      8  C   UNL     1       1.157   9.103  19.735  0.00  0.00    +0.000 A 
ATOM      9  C   UNL     1       0.313  10.096  20.217  0.00  0.00    +0.000 A 
ATOM     10  C   UNL     1       0.353  11.362  19.580  0.00  0.00    +0.000 A 
ATOM     11  C   UNL     1       1.216  11.576  18.472  0.00  0.00    +0.000 A 
ATOM     12  C   UNL     1       2.026  10.542  17.996  0.00  0.00    +0.000 A 
ATOM     13  C   UNL     1       1.954   9.308  18.642  0.00  0.00    +0.000 A 
ATOM     14  N   UNL     1       2.652   8.192  18.393  0.00  0.00    +0.000 N 
ATOM     15  C   UNL     1       3.625   7.879  17.341  0.00  0.00    +0.000 C 
ATOM     16  N   UNL     1       3.964   6.481  17.456  0.00  0.00    +0.000 N 
ATOM     17  C   UNL     1       4.952   5.800  16.733  0.00  0.00    +0.000 A 
ATOM     18  C   UNL     1       5.117   5.659  15.357  0.00  0.00    +0.000 A 
ATOM     19  C   UNL     1       6.232   4.924  14.905  0.00  0.00    +0.000 A 
ATOM     20  C   UNL     1       7.184   4.426  15.824  0.00  0.00    +0.000 A 
ATOM     21  C   UNL     1       6.934   4.507  17.198  0.00  0.00    +0.000 A 
ATOM     22  C   UNL     1       5.756   5.124  17.605  0.00  0.00    +0.000 A 
ENDROOT
TORSDOF 0
ENDMDL
MODEL 3
REMARK VINA RESULT:      -6.6      1.214      3.060
REMARK  Name = 
REMARK  2 active torsions:
REMARK  status: ('A' for Active; 'I' for Inactive)
REMARK    1  A    between atoms: C_1  and  N_2
REMARK    2  A    between atoms: N_6  and  C_7
REMARK                            x       y       z     vdW  Elec       q    Type
REMARK                         _______ _______ _______ _____ _____    ______ ____
ROOT
ATOM      1  C   UNL     1       4.233   4.757  16.423  0.00  0.00    +0.000 C 
ATOM      2  N   UNL     1       3.177   4.662  17.394  0.00  0.00    +0.000 N 
ATOM      3  C   UNL     1       2.937   5.737  18.294  0.00  0.00    +0.000 C 
ATOM      4  N   UNL     1       2.708   6.970  17.985  0.00  0.00    +0.000 NA
ATOM      5  C   UNL     1       2.190   7.787  19.034  0.00  0.00    +0.000 A 
ATOM      6  N   UNL     1       1.894   9.103  18.954  0.00  0.00    +0.000 N 
ATOM      7  C   UNL     1       2.242  10.067  17.908  0.00  0.00    +0.000 C 
ATOM      8  C   UNL     1       1.108   9.338  20.048  0.00  0.00    +0.000 A 
ATOM      9  C   UNL     1       0.458  10.501  20.442  0.00  0.00    +0.000 A 
ATOM     10  C   UNL     1      -0.367  10.439  21.592  0.00  0.00    +0.000 A 
ATOM     11  C   UNL     1      -0.489   9.224  22.318  0.00  0.00    +0.000 A 
ATOM     12  C   UNL     1       0.207   8.083  21.910  0.00  0.00    +0.000 A 
ATOM     13  C   UNL     1       1.016   8.184  20.778  0.00  0.00    +0.000 A 
ATOM     14  N   UNL     1       1.742   7.229  20.181  0.00  0.00    +0.000 N 
ATOM     15  C   UNL     1       1.988   5.832  20.554  0.00  0.00    +0.000 C 
ATOM     16  N   UNL     1       2.961   5.295  19.633  0.00  0.00    +0.000 N 
ATOM     17  C   UNL     1       3.383   3.962  19.549  0.00  0.00    +0.000 A 
ATOM     18  C   UNL     1       3.947   3.139  20.520  0.00  0.00    +0.000 A 
ATOM     19  C   UNL     1       4.260   1.814  20.153  0.00  0.00    +0.000 A 
ATOM     20  C   UNL     1       3.930   1.329  18.867  0.00  0.00    +0.000 A 
ATOM     21  C   UNL     1       3.451   2.211  17.891  0.00  0.00    +0.000 A 
ATOM     22  C   UNL     1       3.280   3.543  18.254  0.00  0.00    +0.000 A 
ENDROOT
TORSDOF 0
ENDMDL
MODEL 4
REMARK VINA RESULT:      -6.5      1.256      3.141
REMARK  Name = 
REMARK  2 active torsions:
REMARK  status: ('A' for Active; 'I' for Inactive)
REMARK    1  A    between atoms: C_1  and  N_2
REMARK    2  A    between atoms: N_6  and  C_7
REMARK                            x       y       z     vdW  Elec       q    Type
REMARK                         _______ _______ _______ _____ _____    ______ ____
ROOT
ATOM      1  C   UNL     1       3.338   5.205  17.392  0.00  0.00    +0.000 C 
ATOM      2  N   UNL     1       2.215   5.389  18.272  0.00  0.00    +0.000 N 
ATOM      3  C   UNL     1       2.105   6.576  19.048  0.00  0.00    +0.000 C 
ATOM      4  N   UNL     1       2.118   7.792  18.611  0.00  0.00    +0.000 NA
ATOM      5  C   UNL     1       1.678   8.788  19.534  0.00  0.00    +0.000 A 
ATOM      6  N   UNL     1       1.625  10.119  19.311  0.00  0.00    +0.000 N 
ATOM      7  C   UNL     1       2.209  10.899  18.218  0.00  0.00    +0.000 C 
ATOM      8  C   UNL     1       0.817  10.594  20.308  0.00  0.00    +0.000 A 
ATOM      9  C   UNL     1       0.355  11.885  20.537  0.00  0.00    +0.000 A 
ATOM     10  C   UNL     1      -0.547  12.081  21.613  0.00  0.00    +0.000 A 
ATOM     11  C   UNL     1      -0.931  10.985  22.431  0.00  0.00    +0.000 A 
ATOM     12  C   UNL     1      -0.419   9.707  22.189  0.00  0.00    +0.000 A 
ATOM     13  C   UNL     1       0.473   9.554  21.127  0.00  0.00    +0.000 A 
ATOM     14  N   UNL     1       1.060   8.434  20.683  0.00  0.00    +0.000 N 
ATOM     15  C   UNL     1       1.031   7.062  21.200  0.00  0.00    +0.000 C 
ATOM     16  N   UNL     1       1.957   6.277  20.418  0.00  0.00    +0.000 N 
ATOM     17  C   UNL     1       2.143   4.891  20.491  0.00  0.00    +0.000 A 
ATOM     18  C   UNL     1       2.485   4.090  21.578  0.00  0.00    +0.000 A 
ATOM     19  C   UNL     1       2.585   2.700  21.359  0.00  0.00    +0.000 A 
ATOM     20  C   UNL     1       2.266   2.148  20.098  0.00  0.00    +0.000 A 
ATOM     21  C   UNL     1       2.020   2.992  19.009  0.00  0.00    +0.000 A 
ATOM     22  C   UNL     1       2.059   4.364  19.235  0.00  0.00    +0.000 A 
ENDROOT
TORSDOF 0
ENDMDL
MODEL 5
REMARK VINA RESULT:      -6.4      1.710      6.699
REMARK  Name = 
REMARK  2 active torsions:
REMARK  status: ('A' for Active; 'I' for Inactive)
REMARK    1  A    between atoms: C_1  and  N_2
REMARK    2  A    between atoms: N_6  and  C_7
REMARK                            x       y       z     vdW  Elec       q    Type
REMARK                         _______ _______ _______ _____ _____    ______ ____
ROOT
ATOM      1  C   UNL     1      -0.549  10.136  21.201  0.00  0.00    +0.000 C 
ATOM      2  N   UNL     1      -0.090   9.871  19.864  0.00  0.00    +0.000 N 
ATOM      3  C   UNL     1       1.060   9.060  19.652  0.00  0.00    +0.000 C 
ATOM      4  N   UNL     1       1.252   7.859  20.087  0.00  0.00    +0.000 NA
ATOM      5  C   UNL     1       2.332   7.147  19.485  0.00  0.00    +0.000 A 
ATOM      6  N   UNL     1       2.734   5.893  19.790  0.00  0.00    +0.000 N 
ATOM      7  C   UNL     1       2.363   5.054  20.931  0.00  0.00    +0.000 C 
ATOM      8  C   UNL     1       3.521   5.527  18.733  0.00  0.00    +0.000 A 
ATOM      9  C   UNL     1       4.151   4.316  18.472  0.00  0.00    +0.000 A 
ATOM     10  C   UNL     1       4.848   4.186  17.245  0.00  0.00    +0.000 A 
ATOM     11  C   UNL     1       4.910   5.279  16.340  0.00  0.00    +0.000 A 
ATOM     12  C   UNL     1       4.291   6.493  16.653  0.00  0.00    +0.000 A 
ATOM     13  C   UNL     1       3.622   6.586  17.873  0.00  0.00    +0.000 A 
ATOM     14  N   UNL     1       2.931   7.621  18.370  0.00  0.00    +0.000 N 
ATOM     15  C   UNL     1       2.729   8.980  17.857  0.00  0.00    +0.000 C 
ATOM     16  N   UNL     1       2.017   9.730  18.863  0.00  0.00    +0.000 N 
ATOM     17  C   UNL     1       1.508  11.029  18.731  0.00  0.00    +0.000 A 
ATOM     18  C   UNL     1       2.157  12.215  18.401  0.00  0.00    +0.000 A 
ATOM     19  C   UNL     1       1.376  13.387  18.320  0.00  0.00    +0.000 A 
ATOM     20  C   UNL     1      -0.025  13.328  18.490  0.00  0.00    +0.000 A 
ATOM     21  C   UNL     1      -0.627  12.137  18.912  0.00  0.00    +0.000 A 
ATOM     22  C   UNL     1       0.196  11.033  19.109  0.00  0.00    +0.000 A 
ENDROOT
TORSDOF 0
ENDMDL
MODEL 6
REMARK VINA RESULT:      -6.4      9.488     10.403
REMARK  Name = 
REMARK  2 active torsions:
REMARK  status: ('A' for Active; 'I' for Inactive)
REMARK    1  A    between atoms: C_1  and  N_2
REMARK    2  A    between atoms: N_6  and  C_7
REMARK                            x       y       z     vdW  Elec       q    Type
REMARK                         _______ _______ _______ _____ _____    ______ ____
ROOT
ATOM      1  C   UNL     1       8.962  15.048  18.303  0.00  0.00    +0.000 C 
ATOM      2  N   UNL     1       8.714  13.813  18.996  0.00  0.00    +0.000 N 
ATOM      3  C   UNL     1       8.481  13.818  20.400  0.00  0.00    +0.000 C 
ATOM      4  N   UNL     1       7.582  14.496  21.033  0.00  0.00    +0.000 NA
ATOM      5  C   UNL     1       7.339  14.097  22.382  0.00  0.00    +0.000 A 
ATOM      6  N   UNL     1       6.467  14.667  23.242  0.00  0.00    +0.000 N 
ATOM      7  C   UNL     1       5.752  15.940  23.127  0.00  0.00    +0.000 C 
ATOM      8  C   UNL     1       6.323  13.740  24.237  0.00  0.00    +0.000 A 
ATOM      9  C   UNL     1       5.497  13.758  25.355  0.00  0.00    +0.000 A 
ATOM     10  C   UNL     1       5.491  12.613  26.189  0.00  0.00    +0.000 A 
ATOM     11  C   UNL     1       6.330  11.506  25.888  0.00  0.00    +0.000 A 
ATOM     12  C   UNL     1       7.172  11.540  24.774  0.00  0.00    +0.000 A 
ATOM     13  C   UNL     1       7.157  12.687  23.980  0.00  0.00    +0.000 A 
ATOM     14  N   UNL     1       7.840  12.933  22.854  0.00  0.00    +0.000 N 
ATOM     15  C   UNL     1       8.860  12.146  22.154  0.00  0.00    +0.000 C 
ATOM     16  N   UNL     1       9.367  12.948  21.067  0.00  0.00    +0.000 N 
ATOM     17  C   UNL     1      10.259  12.533  20.070  0.00  0.00    +0.000 A 
ATOM     18  C   UNL     1      11.538  11.993  20.181  0.00  0.00    +0.000 A 
ATOM     19  C   UNL     1      12.206  11.644  18.989  0.00  0.00    +0.000 A 
ATOM     20  C   UNL     1      11.555  11.765  17.740  0.00  0.00    +0.000 A 
ATOM     21  C   UNL     1      10.309  12.397  17.662  0.00  0.00    +0.000 A 
ATOM     22  C   UNL     1       9.739  12.849  18.848  0.00  0.00    +0.000 A 
ENDROOT
TORSDOF 0
ENDMDL
MODEL 7
REMARK VINA RESULT:      -6.3      1.287      6.447
REMARK  Name = 
REMARK  2 active torsions:
REMARK  status: ('A' for Active; 'I' for Inactive)
REMARK    1  A    between atoms: C_1  and  N_2
REMARK    2  A    between atoms: N_6  and  C_7
REMARK                            x       y       z     vdW  Elec       q    Type
REMARK                         _______ _______ _______ _____ _____    ______ ____
ROOT
ATOM      1  C   UNL     1      -0.467   9.259  22.255  0.00  0.00    +0.000 C 
ATOM      2  N   UNL     1      -0.218   8.954  20.872  0.00  0.00    +0.000 N 
ATOM      3  C   UNL     1       0.897   8.150  20.508  0.00  0.00    +0.000 C 
ATOM      4  N   UNL     1       1.174   6.966  20.944  0.00  0.00    +0.000 NA
ATOM      5  C   UNL     1       2.158   6.246  20.203  0.00  0.00    +0.000 A 
ATOM      6  N   UNL     1       2.623   5.008  20.481  0.00  0.00    +0.000 N 
ATOM      7  C   UNL     1       2.449   4.203  21.692  0.00  0.00    +0.000 C 
ATOM      8  C   UNL     1       3.242   4.615  19.326  0.00  0.00    +0.000 A 
ATOM      9  C   UNL     1       3.843   3.403  19.008  0.00  0.00    +0.000 A 
ATOM     10  C   UNL     1       4.341   3.239  17.691  0.00  0.00    +0.000 A 
ATOM     11  C   UNL     1       4.243   4.302  16.753  0.00  0.00    +0.000 A 
ATOM     12  C   UNL     1       3.661   5.518  17.121  0.00  0.00    +0.000 A 
ATOM     13  C   UNL     1       3.189   5.646  18.427  0.00  0.00    +0.000 A 
ATOM     14  N   UNL     1       2.568   6.689  18.994  0.00  0.00    +0.000 N 
ATOM     15  C   UNL     1       2.266   8.028  18.476  0.00  0.00    +0.000 C 
ATOM     16  N   UNL     1       1.709   8.803  19.557  0.00  0.00    +0.000 N 
ATOM     17  C   UNL     1       1.164  10.091  19.466  0.00  0.00    +0.000 A 
ATOM     18  C   UNL     1       1.735  11.273  19.001  0.00  0.00    +0.000 A 
ATOM     19  C   UNL     1       0.932  12.433  19.007  0.00  0.00    +0.000 A 
ATOM     20  C   UNL     1      -0.425  12.364  19.396  0.00  0.00    +0.000 A 
ATOM     21  C   UNL     1      -0.934  11.181  19.945  0.00  0.00    +0.000 A 
ATOM     22  C   UNL     1      -0.072  10.093  20.045  0.00  0.00    +0.000 A 
ENDROOT
TORSDOF 0
ENDMDL
MODEL 8
REMARK VINA RESULT:      -6.3      5.273      7.630
REMARK  Name = 
REMARK  2 active torsions:
REMARK  status: ('A' for Active; 'I' for Inactive)
REMARK    1  A    between atoms: C_1  and  N_2
REMARK    2  A    between atoms: N_6  and  C_7
REMARK                            x       y       z     vdW  Elec       q    Type
REMARK                         _______ _______ _______ _____ _____    ______ ____
ROOT
ATOM      1  C   UNL     1      -2.511  12.439  22.809  0.00  0.00    +0.000 C 
ATOM      2  N   UNL     1      -1.121  12.419  22.443  0.00  0.00    +0.000 N 
ATOM      3  C   UNL     1      -0.687  13.073  21.256  0.00  0.00    +0.000 C 
ATOM      4  N   UNL     1      -0.879  14.311  20.939  0.00  0.00    +0.000 NA
ATOM      5  C   UNL     1      -0.086  14.806  19.861  0.00  0.00    +0.000 A 
ATOM      6  N   UNL     1      -0.127  16.052  19.342  0.00  0.00    +0.000 N 
ATOM      7  C   UNL     1      -1.117  17.111  19.553  0.00  0.00    +0.000 C 
ATOM      8  C   UNL     1       1.029  16.153  18.618  0.00  0.00    +0.000 A 
ATOM      9  C   UNL     1       1.550  17.237  17.922  0.00  0.00    +0.000 A 
ATOM     10  C   UNL     1       2.824  17.085  17.320  0.00  0.00    +0.000 A 
ATOM     11  C   UNL     1       3.515  15.847  17.416  0.00  0.00    +0.000 A 
ATOM     12  C   UNL     1       2.943  14.768  18.096  0.00  0.00    +0.000 A 
ATOM     13  C   UNL     1       1.685  14.953  18.669  0.00  0.00    +0.000 A 
ATOM     14  N   UNL     1       0.960  14.089  19.393  0.00  0.00    +0.000 N 
ATOM     15  C   UNL     1       1.200  12.684  19.739  0.00  0.00    +0.000 C 
ATOM     16  N   UNL     1       0.028  12.191  20.420  0.00  0.00    +0.000 N 
ATOM     17  C   UNL     1      -0.116  10.940  21.035  0.00  0.00    +0.000 A 
ATOM     18  C   UNL     1       0.033   9.661  20.507  0.00  0.00    +0.000 A 
ATOM     19  C   UNL     1      -0.156   8.568  21.378  0.00  0.00    +0.000 A 
ATOM     20  C   UNL     1      -0.405   8.781  22.752  0.00  0.00    +0.000 A 
ATOM     21  C   UNL     1      -0.640  10.077  23.226  0.00  0.00    +0.000 A 
ATOM     22  C   UNL     1      -0.575  11.121  22.308  0.00  0.00    +0.000 A 
ENDROOT
TORSDOF 0
ENDMDL
MODEL 9
REMARK VINA RESULT:      -6.2      3.909      6.965
REMARK  Name = 
REMARK  2 active torsions:
REMARK  status: ('A' for Active; 'I' for Inactive)
REMARK    1  A    between atoms: C_1  and  N_2
REMARK    2  A    between atoms: N_6  and  C_7
REMARK                            x       y       z     vdW  Elec       q    Type
REMARK                         _______ _______ _______ _____ _____    ______ ____
ROOT
ATOM      1  C   UNL     1       2.517  12.300  18.308  0.00  0.00    +0.000 C 
ATOM      2  N   UNL     1       1.283  11.714  18.758  0.00  0.00    +0.000 N 
ATOM      3  C   UNL     1       0.740  12.079  20.022  0.00  0.00    +0.000 C 
ATOM      4  N   UNL     1       0.464  13.273  20.431  0.00  0.00    +0.000 NA
ATOM      5  C   UNL     1      -0.356  13.356  21.595  0.00  0.00    +0.000 A 
ATOM      6  N   UNL     1      -0.756  14.488  22.216  0.00  0.00    +0.000 N 
ATOM      7  C   UNL     1      -0.279  15.860  22.034  0.00  0.00    +0.000 C 
ATOM      8  C   UNL     1      -1.788  14.085  23.017  0.00  0.00    +0.000 A 
ATOM      9  C   UNL     1      -2.623  14.836  23.835  0.00  0.00    +0.000 A 
ATOM     10  C   UNL     1      -3.677  14.161  24.501  0.00  0.00    +0.000 A 
ATOM     11  C   UNL     1      -3.838  12.758  24.343  0.00  0.00    +0.000 A 
ATOM     12  C   UNL     1      -2.957  12.031  23.538  0.00  0.00    +0.000 A 
ATOM     13  C   UNL     1      -1.928  12.728  22.905  0.00  0.00    +0.000 A 
ATOM     14  N   UNL     1      -0.994  12.260  22.065  0.00  0.00    +0.000 N 
ATOM     15  C   UNL     1      -0.699  10.896  21.616  0.00  0.00    +0.000 C 
ATOM     16  N   UNL     1       0.505  10.943  20.822  0.00  0.00    +0.000 N 
ATOM     17  C   UNL     1       1.066   9.885  20.094  0.00  0.00    +0.000 A 
ATOM     18  C   UNL     1       1.475   8.624  20.520  0.00  0.00    +0.000 A 
ATOM     19  C   UNL     1       1.994   7.743  19.548  0.00  0.00    +0.000 A 
ATOM     20  C   UNL     1       2.013   8.111  18.184  0.00  0.00    +0.000 A 
ATOM     21  C   UNL     1       1.682   9.419  17.809  0.00  0.00    +0.000 A 
ATOM     22  C   UNL     1       1.300  10.301  18.815  0.00  0.00    +0.000 A 
ENDROOT
TORSDOF 0
ENDMDL
