MODEL 1
REMARK VINA RESULT:      -7.7      0.000      0.000
REMARK  Name = 
REMARK  11 active torsions:
REMARK  status: ('A' for Active; 'I' for Inactive)
REMARK    1  A    between atoms: C_1  and  C_2
REMARK    2  A    between atoms: C_2  and  C_3
REMARK    3  A    between atoms: C_3  and  C_4
REMARK    4  A    between atoms: C_3  and  C_5
REMARK    5  A    between atoms: C_5  and  C_6
REMARK    6  A    between atoms: C_6  and  C_7
REMARK    7  A    between atoms: C_6  and  C_8
REMARK    8  A    between atoms: C_12  and  N_13
REMARK    9  A    between atoms: C_14  and  C_16
REMARK   10  A    between atoms: N_18  and  C_19
REMARK   11  A    between atoms: C_21  and  C_22
REMARK                            x       y       z     vdW  Elec       q    Type
REMARK                         _______ _______ _______ _____ _____    ______ ____
ROOT
ATOM      1  N   UNL     1       4.682   3.458  18.414  0.00  0.00    +0.000 N 
ATOM      2  C   UNL     1       5.730   4.370  18.443  0.00  0.00    +0.000 C 
ATOM      3  O   UNL     1       6.209   4.899  19.431  0.00  0.00    +0.000 OA
ATOM      4  H   UNL     1       4.426   3.068  17.523  0.00  0.00    +0.000 HD
ENDROOT
BRANCH   2   5
ATOM      5  C   UNL     1       6.253   4.684  17.120  0.00  0.00    +0.000 A 
ATOM      6  C   UNL     1       6.092   3.945  15.963  0.00  0.00    +0.000 A 
ATOM      7  N   UNL     1       6.740   4.628  14.982  0.00  0.00    +0.000 N 
ATOM      8  C   UNL     1       6.797   4.289  13.579  0.00  0.00    +0.000 C 
ATOM      9  N   UNL     1       7.330   5.752  15.411  0.00  0.00    +0.000 NA
ATOM     10  C   UNL     1       7.047   5.808  16.733  0.00  0.00    +0.000 A 
BRANCH  10  11
ATOM     11  C   UNL     1       7.492   6.983  17.575  0.00  0.00    +0.000 C 
ATOM     12  F   UNL     1       6.474   7.696  18.121  0.00  0.00    +0.000 F 
ATOM     13  F   UNL     1       8.300   6.608  18.605  0.00  0.00    +0.000 F 
ATOM     14  F   UNL     1       8.203   7.881  16.834  0.00  0.00    +0.000 F 
ENDBRANCH  10  11
ENDBRANCH   2   5
BRANCH   1  19
ATOM     15  C   UNL     1       2.684   3.730  19.806  0.00  0.00    +0.000 A 
ATOM     16  S   UNL     1       1.961   3.041  21.219  0.00  0.00    +0.000 S 
ATOM     17  C   UNL     1       3.269   1.993  21.472  0.00  0.00    +0.000 A 
ATOM     18  C   UNL     1       4.224   2.127  20.495  0.00  0.00    +0.000 A 
ATOM     19  C   UNL     1       3.896   3.112  19.508  0.00  0.00    +0.000 A 
BRANCH  15  20
ATOM     20  C   UNL     1       1.922   4.876  19.147  0.00  0.00    +0.000 C 
ATOM     21  C   UNL     1       1.574   4.566  17.691  0.00  0.00    +0.000 C 
BRANCH  20  22
ATOM     22  C   UNL     1       2.675   6.214  19.321  0.00  0.00    +0.000 C 
BRANCH  22  23
ATOM     23  C   UNL     1       2.278   7.338  18.338  0.00  0.00    +0.000 C 
ATOM     24  C   UNL     1       3.476   7.667  17.435  0.00  0.00    +0.000 C 
BRANCH  23  26
ATOM     25  C   UNL     1       1.361   8.452  20.482  0.00  0.00    +0.000 C 
ATOM     26  C   UNL     1       1.732   8.611  19.014  0.00  0.00    +0.000 C 
ENDBRANCH  23  26
ENDBRANCH  22  23
ENDBRANCH  20  22
ENDBRANCH  15  20
ENDBRANCH   1  19
TORSDOF 7
ENDMDL
MODEL 2
REMARK VINA RESULT:      -7.6      0.545      1.205
REMARK  Name = 
REMARK  11 active torsions:
REMARK  status: ('A' for Active; 'I' for Inactive)
REMARK    1  A    between atoms: C_1  and  C_2
REMARK    2  A    between atoms: C_2  and  C_3
REMARK    3  A    between atoms: C_3  and  C_4
REMARK    4  A    between atoms: C_3  and  C_5
REMARK    5  A    between atoms: C_5  and  C_6
REMARK    6  A    between atoms: C_6  and  C_7
REMARK    7  A    between atoms: C_6  and  C_8
REMARK    8  A    between atoms: C_12  and  N_13
REMARK    9  A    between atoms: C_14  and  C_16
REMARK   10  A    between atoms: N_18  and  C_19
REMARK   11  A    between atoms: C_21  and  C_22
REMARK                            x       y       z     vdW  Elec       q    Type
REMARK                         _______ _______ _______ _____ _____    ______ ____
ROOT
ATOM      1  N   UNL     1       4.703   3.553  18.329  0.00  0.00    +0.000 N 
ATOM      2  C   UNL     1       5.847   4.338  18.373  0.00  0.00    +0.000 C 
ATOM      3  O   UNL     1       6.402   4.764  19.372  0.00  0.00    +0.000 OA
ATOM      4  H   UNL     1       4.387   3.236  17.428  0.00  0.00    +0.000 HD
ENDROOT
BRANCH   2   5
ATOM      5  C   UNL     1       6.379   4.652  17.054  0.00  0.00    +0.000 A 
ATOM      6  C   UNL     1       6.276   3.884  15.910  0.00  0.00    +0.000 A 
ATOM      7  N   UNL     1       6.907   4.579  14.926  0.00  0.00    +0.000 N 
ATOM      8  C   UNL     1       7.007   4.215  13.532  0.00  0.00    +0.000 C 
ATOM      9  N   UNL     1       7.432   5.739  15.342  0.00  0.00    +0.000 NA
ATOM     10  C   UNL     1       7.123   5.807  16.657  0.00  0.00    +0.000 A 
BRANCH  10  11
ATOM     11  C   UNL     1       7.492   7.020  17.482  0.00  0.00    +0.000 C 
ATOM     12  F   UNL     1       8.228   6.741  18.587  0.00  0.00    +0.000 F 
ATOM     13  F   UNL     1       8.197   7.940  16.768  0.00  0.00    +0.000 F 
ATOM     14  F   UNL     1       6.379   7.661  17.943  0.00  0.00    +0.000 F 
ENDBRANCH  10  11
ENDBRANCH   2   5
BRANCH   1  19
ATOM     15  C   UNL     1       2.737   3.943  19.739  0.00  0.00    +0.000 A 
ATOM     16  S   UNL     1       1.978   3.288  21.149  0.00  0.00    +0.000 S 
ATOM     17  C   UNL     1       3.214   2.150  21.381  0.00  0.00    +0.000 A 
ATOM     18  C   UNL     1       4.170   2.232  20.398  0.00  0.00    +0.000 A 
ATOM     19  C   UNL     1       3.902   3.248  19.425  0.00  0.00    +0.000 A 
BRANCH  15  20
ATOM     20  C   UNL     1       2.049   5.145  19.099  0.00  0.00    +0.000 C 
ATOM     21  C   UNL     1       1.346   4.772  17.794  0.00  0.00    +0.000 C 
BRANCH  20  22
ATOM     22  C   UNL     1       3.032   6.328  18.945  0.00  0.00    +0.000 C 
BRANCH  22  23
ATOM     23  C   UNL     1       2.437   7.730  19.205  0.00  0.00    +0.000 C 
ATOM     24  C   UNL     1       1.444   7.650  20.373  0.00  0.00    +0.000 C 
BRANCH  23  26
ATOM     25  C   UNL     1       0.995   9.653  18.255  0.00  0.00    +0.000 C 
ATOM     26  C   UNL     1       1.784   8.382  17.971  0.00  0.00    +0.000 C 
ENDBRANCH  23  26
ENDBRANCH  22  23
ENDBRANCH  20  22
ENDBRANCH  15  20
ENDBRANCH   1  19
TORSDOF 7
ENDMDL
MODEL 3
REMARK VINA RESULT:      -7.5      1.173      1.654
REMARK  Name = 
REMARK  11 active torsions:
REMARK  status: ('A' for Active; 'I' for Inactive)
REMARK    1  A    between atoms: C_1  and  C_2
REMARK    2  A    between atoms: C_2  and  C_3
REMARK    3  A    between atoms: C_3  and  C_4
REMARK    4  A    between atoms: C_3  and  C_5
REMARK    5  A    between atoms: C_5  and  C_6
REMARK    6  A    between atoms: C_6  and  C_7
REMARK    7  A    between atoms: C_6  and  C_8
REMARK    8  A    between atoms: C_12  and  N_13
REMARK    9  A    between atoms: C_14  and  C_16
REMARK   10  A    between atoms: N_18  and  C_19
REMARK   11  A    between atoms: C_21  and  C_22
REMARK                            x       y       z     vdW  Elec       q    Type
REMARK                         _______ _______ _______ _____ _____    ______ ____
ROOT
ATOM      1  N   UNL     1       3.878   3.825  17.706  0.00  0.00    +0.000 N 
ATOM      2  C   UNL     1       5.230   3.943  18.003  0.00  0.00    +0.000 C 
ATOM      3  O   UNL     1       5.764   3.710  19.074  0.00  0.00    +0.000 OA
ATOM      4  H   UNL     1       3.589   4.007  16.760  0.00  0.00    +0.000 HD
ENDROOT
BRANCH   2   5
ATOM      5  C   UNL     1       6.027   4.405  16.875  0.00  0.00    +0.000 A 
ATOM      6  C   UNL     1       5.964   3.954  15.570  0.00  0.00    +0.000 A 
ATOM      7  N   UNL     1       6.878   4.680  14.872  0.00  0.00    +0.000 N 
ATOM      8  C   UNL     1       7.135   4.620  13.452  0.00  0.00    +0.000 C 
ATOM      9  N   UNL     1       7.550   5.562  15.624  0.00  0.00    +0.000 NA
ATOM     10  C   UNL     1       7.045   5.410  16.870  0.00  0.00    +0.000 A 
BRANCH  10  11
ATOM     11  C   UNL     1       7.507   6.288  18.011  0.00  0.00    +0.000 C 
ATOM     12  F   UNL     1       8.404   5.700  18.841  0.00  0.00    +0.000 F 
ATOM     13  F   UNL     1       8.080   7.445  17.577  0.00  0.00    +0.000 F 
ATOM     14  F   UNL     1       6.462   6.652  18.809  0.00  0.00    +0.000 F 
ENDBRANCH  10  11
ENDBRANCH   2   5
BRANCH   1  19
ATOM     15  C   UNL     1       2.203   4.565  19.334  0.00  0.00    +0.000 A 
ATOM     16  S   UNL     1       1.008   3.894  20.390  0.00  0.00    +0.000 S 
ATOM     17  C   UNL     1       1.430   2.303  19.983  0.00  0.00    +0.000 A 
ATOM     18  C   UNL     1       2.429   2.267  19.043  0.00  0.00    +0.000 A 
ATOM     19  C   UNL     1       2.877   3.566  18.636  0.00  0.00    +0.000 A 
BRANCH  15  20
ATOM     20  C   UNL     1       2.341   6.085  19.348  0.00  0.00    +0.000 C 
ATOM     21  C   UNL     1       1.855   6.688  20.667  0.00  0.00    +0.000 C 
BRANCH  20  22
ATOM     22  C   UNL     1       1.669   6.714  18.107  0.00  0.00    +0.000 C 
BRANCH  22  23
ATOM     23  C   UNL     1       2.449   7.866  17.436  0.00  0.00    +0.000 C 
ATOM     24  C   UNL     1       3.947   7.525  17.428  0.00  0.00    +0.000 C 
BRANCH  23  26
ATOM     25  C   UNL     1       0.743   9.674  18.141  0.00  0.00    +0.000 C 
ATOM     26  C   UNL     1       2.204   9.251  18.065  0.00  0.00    +0.000 C 
ENDBRANCH  23  26
ENDBRANCH  22  23
ENDBRANCH  20  22
ENDBRANCH  15  20
ENDBRANCH   1  19
TORSDOF 7
ENDMDL
MODEL 4
REMARK VINA RESULT:      -7.3      2.119      3.082
REMARK  Name = 
REMARK  11 active torsions:
REMARK  status: ('A' for Active; 'I' for Inactive)
REMARK    1  A    between atoms: C_1  and  C_2
REMARK    2  A    between atoms: C_2  and  C_3
REMARK    3  A    between atoms: C_3  and  C_4
REMARK    4  A    between atoms: C_3  and  C_5
REMARK    5  A    between atoms: C_5  and  C_6
REMARK    6  A    between atoms: C_6  and  C_7
REMARK    7  A    between atoms: C_6  and  C_8
REMARK    8  A    between atoms: C_12  and  N_13
REMARK    9  A    between atoms: C_14  and  C_16
REMARK   10  A    between atoms: N_18  and  C_19
REMARK   11  A    between atoms: C_21  and  C_22
REMARK                            x       y       z     vdW  Elec       q    Type
REMARK                         _______ _______ _______ _____ _____    ______ ____
ROOT
ATOM      1  N   UNL     1       3.994   4.357  17.794  0.00  0.00    +0.000 N 
ATOM      2  C   UNL     1       5.266   4.341  18.353  0.00  0.00    +0.000 C 
ATOM      3  O   UNL     1       5.681   3.568  19.199  0.00  0.00    +0.000 OA
ATOM      4  H   UNL     1       3.811   5.027  17.067  0.00  0.00    +0.000 HD
ENDROOT
BRANCH   2   5
ATOM      5  C   UNL     1       6.135   5.388  17.831  0.00  0.00    +0.000 A 
ATOM      6  C   UNL     1       6.673   6.450  18.534  0.00  0.00    +0.000 A 
ATOM      7  N   UNL     1       7.424   7.154  17.644  0.00  0.00    +0.000 N 
ATOM      8  C   UNL     1       8.239   8.313  17.920  0.00  0.00    +0.000 C 
ATOM      9  N   UNL     1       7.404   6.644  16.405  0.00  0.00    +0.000 NA
ATOM     10  C   UNL     1       6.610   5.552  16.493  0.00  0.00    +0.000 A 
BRANCH  10  11
ATOM     11  C   UNL     1       6.386   4.653  15.297  0.00  0.00    +0.000 C 
ATOM     12  F   UNL     1       6.381   3.328  15.587  0.00  0.00    +0.000 F 
ATOM     13  F   UNL     1       5.211   4.916  14.662  0.00  0.00    +0.000 F 
ATOM     14  F   UNL     1       7.371   4.815  14.367  0.00  0.00    +0.000 F 
ENDBRANCH  10  11
ENDBRANCH   2   5
BRANCH   1  19
ATOM     15  C   UNL     1       2.266   3.791  19.436  0.00  0.00    +0.000 A 
ATOM     16  S   UNL     1       0.971   2.663  19.648  0.00  0.00    +0.000 S 
ATOM     17  C   UNL     1       1.326   1.864  18.195  0.00  0.00    +0.000 A 
ATOM     18  C   UNL     1       2.378   2.451  17.537  0.00  0.00    +0.000 A 
ATOM     19  C   UNL     1       2.924   3.581  18.227  0.00  0.00    +0.000 A 
BRANCH  15  20
ATOM     20  C   UNL     1       2.489   4.784  20.572  0.00  0.00    +0.000 C 
ATOM     21  C   UNL     1       2.436   4.105  21.941  0.00  0.00    +0.000 C 
BRANCH  20  22
ATOM     22  C   UNL     1       1.528   5.988  20.452  0.00  0.00    +0.000 C 
BRANCH  22  23
ATOM     23  C   UNL     1       2.179   7.323  20.027  0.00  0.00    +0.000 C 
ATOM     24  C   UNL     1       1.306   8.489  20.512  0.00  0.00    +0.000 C 
BRANCH  23  26
ATOM     25  C   UNL     1       1.939   8.710  17.859  0.00  0.00    +0.000 C 
ATOM     26  C   UNL     1       2.461   7.439  18.516  0.00  0.00    +0.000 C 
ENDBRANCH  23  26
ENDBRANCH  22  23
ENDBRANCH  20  22
ENDBRANCH  15  20
ENDBRANCH   1  19
TORSDOF 7
ENDMDL
MODEL 5
REMARK VINA RESULT:      -6.9      1.019      1.844
REMARK  Name = 
REMARK  11 active torsions:
REMARK  status: ('A' for Active; 'I' for Inactive)
REMARK    1  A    between atoms: C_1  and  C_2
REMARK    2  A    between atoms: C_2  and  C_3
REMARK    3  A    between atoms: C_3  and  C_4
REMARK    4  A    between atoms: C_3  and  C_5
REMARK    5  A    between atoms: C_5  and  C_6
REMARK    6  A    between atoms: C_6  and  C_7
REMARK    7  A    between atoms: C_6  and  C_8
REMARK    8  A    between atoms: C_12  and  N_13
REMARK    9  A    between atoms: C_14  and  C_16
REMARK   10  A    between atoms: N_18  and  C_19
REMARK   11  A    between atoms: C_21  and  C_22
REMARK                            x       y       z     vdW  Elec       q    Type
REMARK                         _______ _______ _______ _____ _____    ______ ____
ROOT
ATOM      1  N   UNL     1       3.885   4.018  17.702  0.00  0.00    +0.000 N 
ATOM      2  C   UNL     1       5.253   4.136  17.911  0.00  0.00    +0.000 C 
ATOM      3  O   UNL     1       5.848   3.971  18.963  0.00  0.00    +0.000 OA
ATOM      4  H   UNL     1       3.543   4.137  16.764  0.00  0.00    +0.000 HD
ENDROOT
BRANCH   2   5
ATOM      5  C   UNL     1       5.988   4.503  16.708  0.00  0.00    +0.000 A 
ATOM      6  C   UNL     1       5.929   3.883  15.474  0.00  0.00    +0.000 A 
ATOM      7  N   UNL     1       6.770   4.575  14.659  0.00  0.00    +0.000 N 
ATOM      8  C   UNL     1       6.998   4.349  13.252  0.00  0.00    +0.000 C 
ATOM      9  N   UNL     1       7.390   5.593  15.271  0.00  0.00    +0.000 NA
ATOM     10  C   UNL     1       6.927   5.569  16.541  0.00  0.00    +0.000 A 
BRANCH  10  11
ATOM     11  C   UNL     1       7.348   6.619  17.545  0.00  0.00    +0.000 C 
ATOM     12  F   UNL     1       8.092   6.142  18.573  0.00  0.00    +0.000 F 
ATOM     13  F   UNL     1       8.071   7.622  16.974  0.00  0.00    +0.000 F 
ATOM     14  F   UNL     1       6.264   7.208  18.127  0.00  0.00    +0.000 F 
ENDBRANCH  10  11
ENDBRANCH   2   5
BRANCH   1  19
ATOM     15  C   UNL     1       2.181   4.885  19.235  0.00  0.00    +0.000 A 
ATOM     16  S   UNL     1       1.087   4.312  20.447  0.00  0.00    +0.000 S 
ATOM     17  C   UNL     1       1.660   2.721  20.322  0.00  0.00    +0.000 A 
ATOM     18  C   UNL     1       2.636   2.607  19.363  0.00  0.00    +0.000 A 
ATOM     19  C   UNL     1       2.938   3.843  18.706  0.00  0.00    +0.000 A 
BRANCH  15  20
ATOM     20  C   UNL     1       2.162   6.386  18.964  0.00  0.00    +0.000 C 
ATOM     21  C   UNL     1       3.179   6.785  17.893  0.00  0.00    +0.000 C 
BRANCH  20  22
ATOM     22  C   UNL     1       2.314   7.188  20.276  0.00  0.00    +0.000 C 
BRANCH  22  23
ATOM     23  C   UNL     1       1.522   8.513  20.344  0.00  0.00    +0.000 C 
ATOM     24  C   UNL     1       0.281   8.317  21.227  0.00  0.00    +0.000 C 
BRANCH  23  26
ATOM     25  C   UNL     1       0.091  10.203  19.011  0.00  0.00    +0.000 C 
ATOM     26  C   UNL     1       1.134   9.094  18.971  0.00  0.00    +0.000 C 
ENDBRANCH  23  26
ENDBRANCH  22  23
ENDBRANCH  20  22
ENDBRANCH  15  20
ENDBRANCH   1  19
TORSDOF 7
ENDMDL
MODEL 6
REMARK VINA RESULT:      -6.9      1.415      1.944
REMARK  Name = 
REMARK  11 active torsions:
REMARK  status: ('A' for Active; 'I' for Inactive)
REMARK    1  A    between atoms: C_1  and  C_2
REMARK    2  A    between atoms: C_2  and  C_3
REMARK    3  A    between atoms: C_3  and  C_4
REMARK    4  A    between atoms: C_3  and  C_5
REMARK    5  A    between atoms: C_5  and  C_6
REMARK    6  A    between atoms: C_6  and  C_7
REMARK    7  A    between atoms: C_6  and  C_8
REMARK    8  A    between atoms: C_12  and  N_13
REMARK    9  A    between atoms: C_14  and  C_16
REMARK   10  A    between atoms: N_18  and  C_19
REMARK   11  A    between atoms: C_21  and  C_22
REMARK                            x       y       z     vdW  Elec       q    Type
REMARK                         _______ _______ _______ _____ _____    ______ ____
ROOT
ATOM      1  N   UNL     1       3.849   3.608  17.008  0.00  0.00    +0.000 N 
ATOM      2  C   UNL     1       5.151   3.890  17.401  0.00  0.00    +0.000 C 
ATOM      3  O   UNL     1       5.621   3.757  18.519  0.00  0.00    +0.000 OA
ATOM      4  H   UNL     1       3.619   3.723  16.036  0.00  0.00    +0.000 HD
ENDROOT
BRANCH   2   5
ATOM      5  C   UNL     1       5.980   4.401  16.318  0.00  0.00    +0.000 A 
ATOM      6  C   UNL     1       6.043   3.925  15.022  0.00  0.00    +0.000 A 
ATOM      7  N   UNL     1       6.936   4.716  14.368  0.00  0.00    +0.000 N 
ATOM      8  C   UNL     1       7.292   4.655  12.971  0.00  0.00    +0.000 C 
ATOM      9  N   UNL     1       7.478   5.665  15.144  0.00  0.00    +0.000 NA
ATOM     10  C   UNL     1       6.906   5.490  16.356  0.00  0.00    +0.000 A 
BRANCH  10  11
ATOM     11  C   UNL     1       7.214   6.424  17.506  0.00  0.00    +0.000 C 
ATOM     12  F   UNL     1       7.988   7.487  17.170  0.00  0.00    +0.000 F 
ATOM     13  F   UNL     1       6.088   6.929  18.081  0.00  0.00    +0.000 F 
ATOM     14  F   UNL     1       7.896   5.780  18.496  0.00  0.00    +0.000 F 
ENDBRANCH  10  11
ENDBRANCH   2   5
BRANCH   1  19
ATOM     15  C   UNL     1       2.334   4.118  18.865  0.00  0.00    +0.000 A 
ATOM     16  S   UNL     1       1.028   3.390  19.736  0.00  0.00    +0.000 S 
ATOM     17  C   UNL     1       1.145   1.945  18.857  0.00  0.00    +0.000 A 
ATOM     18  C   UNL     1       2.125   2.012  17.898  0.00  0.00    +0.000 A 
ATOM     19  C   UNL     1       2.812   3.268  17.870  0.00  0.00    +0.000 A 
BRANCH  15  20
ATOM     20  C   UNL     1       2.755   5.512  19.320  0.00  0.00    +0.000 C 
ATOM     21  C   UNL     1       2.442   5.748  20.798  0.00  0.00    +0.000 C 
BRANCH  20  22
ATOM     22  C   UNL     1       2.166   6.599  18.392  0.00  0.00    +0.000 C 
BRANCH  22  23
ATOM     23  C   UNL     1       2.324   8.055  18.884  0.00  0.00    +0.000 C 
ATOM     24  C   UNL     1       1.355   8.303  20.049  0.00  0.00    +0.000 C 
BRANCH  23  26
ATOM     25  C   UNL     1       1.293  10.318  18.180  0.00  0.00    +0.000 C 
ATOM     26  C   UNL     1       2.146   9.120  17.785  0.00  0.00    +0.000 C 
ENDBRANCH  23  26
ENDBRANCH  22  23
ENDBRANCH  20  22
ENDBRANCH  15  20
ENDBRANCH   1  19
TORSDOF 7
ENDMDL
MODEL 7
REMARK VINA RESULT:      -6.7      3.925      5.807
REMARK  Name = 
REMARK  11 active torsions:
REMARK  status: ('A' for Active; 'I' for Inactive)
REMARK    1  A    between atoms: C_1  and  C_2
REMARK    2  A    between atoms: C_2  and  C_3
REMARK    3  A    between atoms: C_3  and  C_4
REMARK    4  A    between atoms: C_3  and  C_5
REMARK    5  A    between atoms: C_5  and  C_6
REMARK    6  A    between atoms: C_6  and  C_7
REMARK    7  A    between atoms: C_6  and  C_8
REMARK    8  A    between atoms: C_12  and  N_13
REMARK    9  A    between atoms: C_14  and  C_16
REMARK   10  A    between atoms: N_18  and  C_19
REMARK   11  A    between atoms: C_21  and  C_22
REMARK                            x       y       z     vdW  Elec       q    Type
REMARK                         _______ _______ _______ _____ _____    ______ ____
ROOT
ATOM      1  N   UNL     1       2.298   7.489  19.864  0.00  0.00    +0.000 N 
ATOM      2  C   UNL     1       2.245   6.106  19.975  0.00  0.00    +0.000 C 
ATOM      3  O   UNL     1       1.426   5.455  20.602  0.00  0.00    +0.000 OA
ATOM      4  H   UNL     1       3.007   7.884  19.270  0.00  0.00    +0.000 HD
ENDROOT
BRANCH   2   5
ATOM      5  C   UNL     1       3.312   5.430  19.248  0.00  0.00    +0.000 A 
ATOM      6  C   UNL     1       4.666   5.695  19.322  0.00  0.00    +0.000 A 
ATOM      7  N   UNL     1       5.273   4.812  18.483  0.00  0.00    +0.000 N 
ATOM      8  C   UNL     1       6.691   4.651  18.269  0.00  0.00    +0.000 C 
ATOM      9  N   UNL     1       4.416   3.998  17.852  0.00  0.00    +0.000 NA
ATOM     10  C   UNL     1       3.194   4.363  18.305  0.00  0.00    +0.000 A 
BRANCH  10  11
ATOM     11  C   UNL     1       1.949   3.623  17.868  0.00  0.00    +0.000 C 
ATOM     12  F   UNL     1       1.326   2.942  18.863  0.00  0.00    +0.000 F 
ATOM     13  F   UNL     1       1.017   4.453  17.323  0.00  0.00    +0.000 F 
ATOM     14  F   UNL     1       2.237   2.689  16.917  0.00  0.00    +0.000 F 
ENDBRANCH  10  11
ENDBRANCH   2   5
BRANCH   1  19
ATOM     15  C   UNL     1       0.706   9.348  19.990  0.00  0.00    +0.000 A 
ATOM     16  S   UNL     1      -0.157  10.263  21.178  0.00  0.00    +0.000 S 
ATOM     17  C   UNL     1       0.578   9.435  22.463  0.00  0.00    +0.000 A 
ATOM     18  C   UNL     1       1.435   8.461  22.014  0.00  0.00    +0.000 A 
ATOM     19  C   UNL     1       1.508   8.378  20.586  0.00  0.00    +0.000 A 
BRANCH  15  20
ATOM     20  C   UNL     1       0.480   9.747  18.535  0.00  0.00    +0.000 C 
ATOM     21  C   UNL     1       1.779  10.183  17.855  0.00  0.00    +0.000 C 
BRANCH  20  22
ATOM     22  C   UNL     1      -0.650  10.794  18.417  0.00  0.00    +0.000 C 
BRANCH  22  23
ATOM     23  C   UNL     1      -2.040  10.237  18.036  0.00  0.00    +0.000 C 
ATOM     24  C   UNL     1      -2.069   9.934  16.531  0.00  0.00    +0.000 C 
BRANCH  23  26
ATOM     25  C   UNL     1      -2.881  12.234  19.445  0.00  0.00    +0.000 C 
ATOM     26  C   UNL     1      -3.220  11.145  18.437  0.00  0.00    +0.000 C 
ENDBRANCH  23  26
ENDBRANCH  22  23
ENDBRANCH  20  22
ENDBRANCH  15  20
ENDBRANCH   1  19
TORSDOF 7
ENDMDL
MODEL 8
REMARK VINA RESULT:      -6.7      1.034      1.667
REMARK  Name = 
REMARK  11 active torsions:
REMARK  status: ('A' for Active; 'I' for Inactive)
REMARK    1  A    between atoms: C_1  and  C_2
REMARK    2  A    between atoms: C_2  and  C_3
REMARK    3  A    between atoms: C_3  and  C_4
REMARK    4  A    between atoms: C_3  and  C_5
REMARK    5  A    between atoms: C_5  and  C_6
REMARK    6  A    between atoms: C_6  and  C_7
REMARK    7  A    between atoms: C_6  and  C_8
REMARK    8  A    between atoms: C_12  and  N_13
REMARK    9  A    between atoms: C_14  and  C_16
REMARK   10  A    between atoms: N_18  and  C_19
REMARK   11  A    between atoms: C_21  and  C_22
REMARK                            x       y       z     vdW  Elec       q    Type
REMARK                         _______ _______ _______ _____ _____    ______ ____
ROOT
ATOM      1  N   UNL     1       4.047   4.385  17.914  0.00  0.00    +0.000 N 
ATOM      2  C   UNL     1       5.431   4.304  17.993  0.00  0.00    +0.000 C 
ATOM      3  O   UNL     1       6.091   4.016  18.977  0.00  0.00    +0.000 OA
ATOM      4  H   UNL     1       3.640   4.589  17.017  0.00  0.00    +0.000 HD
ENDROOT
BRANCH   2   5
ATOM      5  C   UNL     1       6.096   4.617  16.735  0.00  0.00    +0.000 A 
ATOM      6  C   UNL     1       6.031   3.898  15.556  0.00  0.00    +0.000 A 
ATOM      7  N   UNL     1       6.796   4.571  14.656  0.00  0.00    +0.000 N 
ATOM      8  C   UNL     1       6.986   4.247  13.262  0.00  0.00    +0.000 C 
ATOM      9  N   UNL     1       7.374   5.670  15.160  0.00  0.00    +0.000 NA
ATOM     10  C   UNL     1       6.960   5.720  16.447  0.00  0.00    +0.000 A 
BRANCH  10  11
ATOM     11  C   UNL     1       7.352   6.870  17.347  0.00  0.00    +0.000 C 
ATOM     12  F   UNL     1       6.313   7.646  17.747  0.00  0.00    +0.000 F 
ATOM     13  F   UNL     1       7.982   6.451  18.479  0.00  0.00    +0.000 F 
ATOM     14  F   UNL     1       8.214   7.718  16.718  0.00  0.00    +0.000 F 
ENDBRANCH  10  11
ENDBRANCH   2   5
BRANCH   1  19
ATOM     15  C   UNL     1       2.361   5.349  19.409  0.00  0.00    +0.000 A 
ATOM     16  S   UNL     1       1.398   4.895  20.773  0.00  0.00    +0.000 S 
ATOM     17  C   UNL     1       2.111   3.358  20.863  0.00  0.00    +0.000 A 
ATOM     18  C   UNL     1       3.035   3.169  19.866  0.00  0.00    +0.000 A 
ATOM     19  C   UNL     1       3.181   4.300  18.999  0.00  0.00    +0.000 A 
BRANCH  15  20
ATOM     20  C   UNL     1       2.185   6.777  18.904  0.00  0.00    +0.000 C 
ATOM     21  C   UNL     1       3.223   7.137  17.839  0.00  0.00    +0.000 C 
BRANCH  20  22
ATOM     22  C   UNL     1       2.147   7.780  20.079  0.00  0.00    +0.000 C 
BRANCH  22  23
ATOM     23  C   UNL     1       0.988   8.801  20.048  0.00  0.00    +0.000 C 
ATOM     24  C   UNL     1       1.125   9.685  18.800  0.00  0.00    +0.000 C 
BRANCH  23  26
ATOM     25  C   UNL     1       0.497  11.120  21.080  0.00  0.00    +0.000 C 
ATOM     26  C   UNL     1       0.866   9.662  21.321  0.00  0.00    +0.000 C 
ENDBRANCH  23  26
ENDBRANCH  22  23
ENDBRANCH  20  22
ENDBRANCH  15  20
ENDBRANCH   1  19
TORSDOF 7
ENDMDL
MODEL 9
REMARK VINA RESULT:      -6.7      1.477      1.881
REMARK  Name = 
REMARK  11 active torsions:
REMARK  status: ('A' for Active; 'I' for Inactive)
REMARK    1  A    between atoms: C_1  and  C_2
REMARK    2  A    between atoms: C_2  and  C_3
REMARK    3  A    between atoms: C_3  and  C_4
REMARK    4  A    between atoms: C_3  and  C_5
REMARK    5  A    between atoms: C_5  and  C_6
REMARK    6  A    between atoms: C_6  and  C_7
REMARK    7  A    between atoms: C_6  and  C_8
REMARK    8  A    between atoms: C_12  and  N_13
REMARK    9  A    between atoms: C_14  and  C_16
REMARK   10  A    between atoms: N_18  and  C_19
REMARK   11  A    between atoms: C_21  and  C_22
REMARK                            x       y       z     vdW  Elec       q    Type
REMARK                         _______ _______ _______ _____ _____    ______ ____
ROOT
ATOM      1  N   UNL     1       3.842   3.796  16.867  0.00  0.00    +0.000 N 
ATOM      2  C   UNL     1       5.198   3.859  17.160  0.00  0.00    +0.000 C 
ATOM      3  O   UNL     1       5.730   3.572  18.219  0.00  0.00    +0.000 OA
ATOM      4  H   UNL     1       3.555   4.020  15.930  0.00  0.00    +0.000 HD
ENDROOT
BRANCH   2   5
ATOM      5  C   UNL     1       6.005   4.332  16.043  0.00  0.00    +0.000 A 
ATOM      6  C   UNL     1       6.059   3.798  14.770  0.00  0.00    +0.000 A 
ATOM      7  N   UNL     1       6.932   4.572  14.069  0.00  0.00    +0.000 N 
ATOM      8  C   UNL     1       7.270   4.451  12.671  0.00  0.00    +0.000 C 
ATOM      9  N   UNL     1       7.468   5.564  14.793  0.00  0.00    +0.000 NA
ATOM     10  C   UNL     1       6.914   5.436  16.020  0.00  0.00    +0.000 A 
BRANCH  10  11
ATOM     11  C   UNL     1       7.222   6.426  17.121  0.00  0.00    +0.000 C 
ATOM     12  F   UNL     1       8.064   7.425  16.755  0.00  0.00    +0.000 F 
ATOM     13  F   UNL     1       6.101   7.023  17.611  0.00  0.00    +0.000 F 
ATOM     14  F   UNL     1       7.827   5.815  18.180  0.00  0.00    +0.000 F 
ENDBRANCH  10  11
ENDBRANCH   2   5
BRANCH   1  19
ATOM     15  C   UNL     1       2.429   4.462  18.755  0.00  0.00    +0.000 A 
ATOM     16  S   UNL     1       1.146   3.825  19.727  0.00  0.00    +0.000 S 
ATOM     17  C   UNL     1       1.185   2.326  18.935  0.00  0.00    +0.000 A 
ATOM     18  C   UNL     1       2.121   2.307  17.931  0.00  0.00    +0.000 A 
ATOM     19  C   UNL     1       2.837   3.539  17.795  0.00  0.00    +0.000 A 
BRANCH  15  20
ATOM     20  C   UNL     1       2.906   5.868  19.104  0.00  0.00    +0.000 C 
ATOM     21  C   UNL     1       4.275   5.852  19.785  0.00  0.00    +0.000 C 
BRANCH  20  22
ATOM     22  C   UNL     1       1.834   6.633  19.911  0.00  0.00    +0.000 C 
BRANCH  22  23
ATOM     23  C   UNL     1       1.403   7.996  19.326  0.00  0.00    +0.000 C 
ATOM     24  C   UNL     1       2.323   8.356  18.150  0.00  0.00    +0.000 C 
BRANCH  23  26
ATOM     25  C   UNL     1       1.046   8.713  21.783  0.00  0.00    +0.000 C 
ATOM     26  C   UNL     1       1.353   9.143  20.355  0.00  0.00    +0.000 C 
ENDBRANCH  23  26
ENDBRANCH  22  23
ENDBRANCH  20  22
ENDBRANCH  15  20
ENDBRANCH   1  19
TORSDOF 7
ENDMDL
