MODEL 1
REMARK VINA RESULT:      -8.3      0.000      0.000
REMARK  Name = 
REMARK  8 active torsions:
REMARK  status: ('A' for Active; 'I' for Inactive)
REMARK    1  A    between atoms: C_1  and  O_2
REMARK    2  A    between atoms: O_2  and  C_3
REMARK    3  A    between atoms: C_6  and  C_7
REMARK    4  A    between atoms: C_13  and  C_14
REMARK    5  A    between atoms: N_16  and  CA_17
REMARK    6  A    between atoms: CA_17  and  C_18
REMARK    7  A    between atoms: CA_17  and  C_20
REMARK    8  A    between atoms: C_18  and  O_19
REMARK                            x       y       z     vdW  Elec       q    Type
REMARK                         _______ _______ _______ _____ _____    ______ ____
ROOT
ATOM      1  C   UNL     1       2.119   6.356  20.128  0.00  0.00    +0.000 A 
ATOM      2  C   UNL     1       1.318   5.361  20.716  0.00  0.00    +0.000 A 
ATOM      3  C   UNL     1       1.700   4.003  20.745  0.00  0.00    +0.000 A 
ATOM      4  C   UNL     1       2.933   3.675  20.168  0.00  0.00    +0.000 A 
ATOM      5  N   UNL     1       3.605   2.493  20.002  0.00  0.00    +0.000 N 
ATOM      6  N   UNL     1       4.819   2.615  19.412  0.00  0.00    +0.000 NA
ATOM      7  C   UNL     1       4.913   3.935  19.143  0.00  0.00    +0.000 A 
ATOM      8  C   UNL     1       3.760   4.627  19.598  0.00  0.00    +0.000 A 
ATOM      9  C   UNL     1       3.346   5.966  19.578  0.00  0.00    +0.000 A 
ATOM     10  H   UNL     1       3.289   1.566  20.265  0.00  0.00    +0.000 HD
ENDROOT
BRANCH   1  14
ATOM     11  C   UNL     1       0.608  10.348  19.606  0.00  0.00    +0.000 A 
ATOM     12  C   UNL     1       1.310   9.726  18.576  0.00  0.00    +0.000 A 
ATOM     13  C   UNL     1       1.856   8.456  18.769  0.00  0.00    +0.000 A 
ATOM     14  C   UNL     1       1.704   7.768  19.990  0.00  0.00    +0.000 A 
ATOM     15  C   UNL     1       1.037   8.433  21.027  0.00  0.00    +0.000 A 
ATOM     16  C   UNL     1       0.495   9.713  20.841  0.00  0.00    +0.000 A 
BRANCH  11  18
ATOM     17  C   UNL     1      -1.123  11.576  18.576  0.00  0.00    +0.000 C 
ATOM     18  O   UNL     1       0.100  11.582  19.305  0.00  0.00    +0.000 OA
ENDBRANCH  11  18
ENDBRANCH   1  14
BRANCH   7  19
ATOM     19  C   UNL     1       6.080   4.570  18.497  0.00  0.00    +0.000 C 
ATOM     20  O   UNL     1       7.177   4.669  19.043  0.00  0.00    +0.000 OA
ATOM     21  N   UNL     1       5.868   4.996  17.208  0.00  0.00    +0.000 N 
ATOM     22  H   UNL     1       4.971   4.724  16.821  0.00  0.00    +0.000 HD
BRANCH  21  23
ATOM     23  CA  UNL     1       6.988   5.339  16.330  0.00  0.00    +0.000 C 
BRANCH  23  24
ATOM     24  C   UNL     1       6.751   4.857  14.908  0.00  0.00    +0.000 A 
ATOM     25  C   UNL     1       7.663   5.185  13.889  0.00  0.00    +0.000 A 
ATOM     26  C   UNL     1       7.484   4.703  12.591  0.00  0.00    +0.000 A 
ATOM     27  C   UNL     1       6.395   3.886  12.292  0.00  0.00    +0.000 A 
ATOM     28  C   UNL     1       5.464   3.581  13.282  0.00  0.00    +0.000 A 
ATOM     29  C   UNL     1       5.629   4.083  14.572  0.00  0.00    +0.000 A 
ENDBRANCH  23  24
BRANCH  23  30
ATOM     30  C   UNL     1       7.369   6.838  16.384  0.00  0.00    +0.000 C 
BRANCH  30  31
ATOM     31  O   UNL     1       7.838   7.255  17.668  0.00  0.00    +0.000 OA
ATOM     32  H   UNL     1       8.754   7.556  17.545  0.00  0.00    +0.000 HD
ENDBRANCH  30  31
ENDBRANCH  23  30
ENDBRANCH  21  23
ENDBRANCH   7  19
TORSDOF 7
ENDMDL
MODEL 2
REMARK VINA RESULT:      -8.2      0.558      1.094
REMARK  Name = 
REMARK  8 active torsions:
REMARK  status: ('A' for Active; 'I' for Inactive)
REMARK    1  A    between atoms: C_1  and  O_2
REMARK    2  A    between atoms: O_2  and  C_3
REMARK    3  A    between atoms: C_6  and  C_7
REMARK    4  A    between atoms: C_13  and  C_14
REMARK    5  A    between atoms: N_16  and  CA_17
REMARK    6  A    between atoms: CA_17  and  C_18
REMARK    7  A    between atoms: CA_17  and  C_20
REMARK    8  A    between atoms: C_18  and  O_19
REMARK                            x       y       z     vdW  Elec       q    Type
REMARK                         _______ _______ _______ _____ _____    ______ ____
ROOT
ATOM      1  C   UNL     1       2.078   6.393  20.013  0.00  0.00    +0.000 A 
ATOM      2  C   UNL     1       1.293   5.412  20.646  0.00  0.00    +0.000 A 
ATOM      3  C   UNL     1       1.713   4.070  20.764  0.00  0.00    +0.000 A 
ATOM      4  C   UNL     1       2.966   3.744  20.231  0.00  0.00    +0.000 A 
ATOM      5  N   UNL     1       3.675   2.575  20.150  0.00  0.00    +0.000 N 
ATOM      6  N   UNL     1       4.897   2.697  19.576  0.00  0.00    +0.000 NA
ATOM      7  C   UNL     1       4.959   4.001  19.230  0.00  0.00    +0.000 A 
ATOM      8  C   UNL     1       3.777   4.684  19.620  0.00  0.00    +0.000 A 
ATOM      9  C   UNL     1       3.327   6.007  19.511  0.00  0.00    +0.000 A 
ATOM     10  H   UNL     1       3.380   1.656  20.463  0.00  0.00    +0.000 HD
ENDROOT
BRANCH   1  14
ATOM     11  C   UNL     1       1.071  10.536  19.452  0.00  0.00    +0.000 A 
ATOM     12  C   UNL     1       0.802   9.909  20.666  0.00  0.00    +0.000 A 
ATOM     13  C   UNL     1       1.069   8.548  20.826  0.00  0.00    +0.000 A 
ATOM     14  C   UNL     1       1.626   7.781  19.782  0.00  0.00    +0.000 A 
ATOM     15  C   UNL     1       1.842   8.421  18.555  0.00  0.00    +0.000 A 
ATOM     16  C   UNL     1       1.566   9.785  18.387  0.00  0.00    +0.000 A 
BRANCH  11  18
ATOM     17  C   UNL     1       1.833  12.701  18.907  0.00  0.00    +0.000 C 
ATOM     18  O   UNL     1       0.789  11.874  19.408  0.00  0.00    +0.000 OA
ENDBRANCH  11  18
ENDBRANCH   1  14
BRANCH   7  19
ATOM     19  C   UNL     1       6.121   4.629  18.569  0.00  0.00    +0.000 C 
ATOM     20  O   UNL     1       7.226   4.719  19.098  0.00  0.00    +0.000 OA
ATOM     21  N   UNL     1       5.892   5.063  17.285  0.00  0.00    +0.000 N 
ATOM     22  H   UNL     1       4.987   4.798  16.910  0.00  0.00    +0.000 HD
BRANCH  21  23
ATOM     23  CA  UNL     1       7.001   5.400  16.391  0.00  0.00    +0.000 C 
BRANCH  23  24
ATOM     24  C   UNL     1       6.757   4.890  14.980  0.00  0.00    +0.000 A 
ATOM     25  C   UNL     1       7.640   5.235  13.941  0.00  0.00    +0.000 A 
ATOM     26  C   UNL     1       7.456   4.728  12.654  0.00  0.00    +0.000 A 
ATOM     27  C   UNL     1       6.392   3.868  12.385  0.00  0.00    +0.000 A 
ATOM     28  C   UNL     1       5.491   3.544  13.395  0.00  0.00    +0.000 A 
ATOM     29  C   UNL     1       5.659   4.071  14.675  0.00  0.00    +0.000 A 
ENDBRANCH  23  24
BRANCH  23  30
ATOM     30  C   UNL     1       7.366   6.904  16.414  0.00  0.00    +0.000 C 
BRANCH  30  31
ATOM     31  O   UNL     1       7.801   7.360  17.697  0.00  0.00    +0.000 OA
ATOM     32  H   UNL     1       8.769   7.285  17.705  0.00  0.00    +0.000 HD
ENDBRANCH  30  31
ENDBRANCH  23  30
ENDBRANCH  21  23
ENDBRANCH   7  19
TORSDOF 7
ENDMDL
MODEL 3
REMARK VINA RESULT:      -8.2      0.570      1.064
REMARK  Name = 
REMARK  8 active torsions:
REMARK  status: ('A' for Active; 'I' for Inactive)
REMARK    1  A    between atoms: C_1  and  O_2
REMARK    2  A    between atoms: O_2  and  C_3
REMARK    3  A    between atoms: C_6  and  C_7
REMARK    4  A    between atoms: C_13  and  C_14
REMARK    5  A    between atoms: N_16  and  CA_17
REMARK    6  A    between atoms: CA_17  and  C_18
REMARK    7  A    between atoms: CA_17  and  C_20
REMARK    8  A    between atoms: C_18  and  O_19
REMARK                            x       y       z     vdW  Elec       q    Type
REMARK                         _______ _______ _______ _____ _____    ______ ____
ROOT
ATOM      1  C   UNL     1       2.155   6.414  20.025  0.00  0.00    +0.000 A 
ATOM      2  C   UNL     1       1.345   5.448  20.650  0.00  0.00    +0.000 A 
ATOM      3  C   UNL     1       1.726   4.093  20.747  0.00  0.00    +0.000 A 
ATOM      4  C   UNL     1       2.966   3.739  20.202  0.00  0.00    +0.000 A 
ATOM      5  N   UNL     1       3.639   2.550  20.100  0.00  0.00    +0.000 N 
ATOM      6  N   UNL     1       4.861   2.644  19.520  0.00  0.00    +0.000 NA
ATOM      7  C   UNL     1       4.960   3.951  19.191  0.00  0.00    +0.000 A 
ATOM      8  C   UNL     1       3.800   4.663  19.598  0.00  0.00    +0.000 A 
ATOM      9  C   UNL     1       3.388   5.999  19.510  0.00  0.00    +0.000 A 
ATOM     10  H   UNL     1       3.320   1.636  20.402  0.00  0.00    +0.000 HD
ENDROOT
BRANCH   1  14
ATOM     11  C   UNL     1       0.649  10.378  19.306  0.00  0.00    +0.000 A 
ATOM     12  C   UNL     1       1.334   9.697  18.302  0.00  0.00    +0.000 A 
ATOM     13  C   UNL     1       1.879   8.438  18.557  0.00  0.00    +0.000 A 
ATOM     14  C   UNL     1       1.741   7.818  19.816  0.00  0.00    +0.000 A 
ATOM     15  C   UNL     1       1.092   8.543  20.824  0.00  0.00    +0.000 A 
ATOM     16  C   UNL     1       0.551   9.812  20.576  0.00  0.00    +0.000 A 
BRANCH  11  18
ATOM     17  C   UNL     1       1.034  12.694  19.084  0.00  0.00    +0.000 C 
ATOM     18  O   UNL     1       0.140  11.596  18.946  0.00  0.00    +0.000 OA
ENDBRANCH  11  18
ENDBRANCH   1  14
BRANCH   7  19
ATOM     19  C   UNL     1       6.135   4.554  18.531  0.00  0.00    +0.000 C 
ATOM     20  O   UNL     1       7.216   4.706  19.095  0.00  0.00    +0.000 OA
ATOM     21  N   UNL     1       5.950   4.887  17.210  0.00  0.00    +0.000 N 
ATOM     22  H   UNL     1       5.066   4.576  16.821  0.00  0.00    +0.000 HD
BRANCH  21  23
ATOM     23  CA  UNL     1       7.088   5.182  16.338  0.00  0.00    +0.000 C 
BRANCH  23  24
ATOM     24  C   UNL     1       6.837   4.713  14.914  0.00  0.00    +0.000 A 
ATOM     25  C   UNL     1       5.738   3.884  14.626  0.00  0.00    +0.000 A 
ATOM     26  C   UNL     1       5.467   3.492  13.314  0.00  0.00    +0.000 A 
ATOM     27  C   UNL     1       6.286   3.923  12.272  0.00  0.00    +0.000 A 
ATOM     28  C   UNL     1       7.398   4.715  12.545  0.00  0.00    +0.000 A 
ATOM     29  C   UNL     1       7.683   5.086  13.858  0.00  0.00    +0.000 A 
ENDBRANCH  23  24
BRANCH  23  30
ATOM     30  C   UNL     1       7.533   6.664  16.397  0.00  0.00    +0.000 C 
BRANCH  30  31
ATOM     31  O   UNL     1       6.493   7.549  16.818  0.00  0.00    +0.000 OA
ATOM     32  H   UNL     1       6.309   7.338  17.749  0.00  0.00    +0.000 HD
ENDBRANCH  30  31
ENDBRANCH  23  30
ENDBRANCH  21  23
ENDBRANCH   7  19
TORSDOF 7
ENDMDL
MODEL 4
REMARK VINA RESULT:      -7.9      2.635      8.406
REMARK  Name = 
REMARK  8 active torsions:
REMARK  status: ('A' for Active; 'I' for Inactive)
REMARK    1  A    between atoms: C_1  and  O_2
REMARK    2  A    between atoms: O_2  and  C_3
REMARK    3  A    between atoms: C_6  and  C_7
REMARK    4  A    between atoms: C_13  and  C_14
REMARK    5  A    between atoms: N_16  and  CA_17
REMARK    6  A    between atoms: CA_17  and  C_18
REMARK    7  A    between atoms: CA_17  and  C_20
REMARK    8  A    between atoms: C_18  and  O_19
REMARK                            x       y       z     vdW  Elec       q    Type
REMARK                         _______ _______ _______ _____ _____    ______ ____
ROOT
ATOM      1  C   UNL     1       4.276   5.097  17.786  0.00  0.00    +0.000 A 
ATOM      2  C   UNL     1       4.122   4.172  18.835  0.00  0.00    +0.000 A 
ATOM      3  C   UNL     1       3.334   4.447  19.973  0.00  0.00    +0.000 A 
ATOM      4  C   UNL     1       2.690   5.689  20.019  0.00  0.00    +0.000 A 
ATOM      5  N   UNL     1       1.880   6.291  20.945  0.00  0.00    +0.000 N 
ATOM      6  N   UNL     1       1.422   7.514  20.582  0.00  0.00    +0.000 NA
ATOM      7  C   UNL     1       2.003   7.729  19.381  0.00  0.00    +0.000 A 
ATOM      8  C   UNL     1       2.800   6.617  18.998  0.00  0.00    +0.000 A 
ATOM      9  C   UNL     1       3.597   6.317  17.885  0.00  0.00    +0.000 A 
ATOM     10  H   UNL     1       1.604   5.923  21.849  0.00  0.00    +0.000 HD
ENDROOT
BRANCH   1  14
ATOM     11  C   UNL     1       6.748   4.759  14.283  0.00  0.00    +0.000 A 
ATOM     12  C   UNL     1       5.507   4.127  14.327  0.00  0.00    +0.000 A 
ATOM     13  C   UNL     1       4.734   4.183  15.488  0.00  0.00    +0.000 A 
ATOM     14  C   UNL     1       5.173   4.883  16.631  0.00  0.00    +0.000 A 
ATOM     15  C   UNL     1       6.444   5.469  16.580  0.00  0.00    +0.000 A 
ATOM     16  C   UNL     1       7.228   5.407  15.419  0.00  0.00    +0.000 A 
BRANCH  11  18
ATOM     17  C   UNL     1       6.826   3.780  12.139  0.00  0.00    +0.000 C 
ATOM     18  O   UNL     1       7.414   4.657  13.093  0.00  0.00    +0.000 OA
ENDBRANCH  11  18
ENDBRANCH   1  14
BRANCH   7  19
ATOM     19  C   UNL     1       1.802   8.945  18.567  0.00  0.00    +0.000 C 
ATOM     20  O   UNL     1       2.271   9.083  17.440  0.00  0.00    +0.000 OA
ATOM     21  N   UNL     1       0.998   9.901  19.143  0.00  0.00    +0.000 N 
ATOM     22  H   UNL     1       0.554   9.607  20.006  0.00  0.00    +0.000 HD
BRANCH  21  23
ATOM     23  CA  UNL     1       0.441  10.998  18.350  0.00  0.00    +0.000 C 
BRANCH  23  24
ATOM     24  C   UNL     1      -1.066  10.868  18.198  0.00  0.00    +0.000 A 
ATOM     25  C   UNL     1      -1.924  11.739  18.893  0.00  0.00    +0.000 A 
ATOM     26  C   UNL     1      -3.307  11.663  18.720  0.00  0.00    +0.000 A 
ATOM     27  C   UNL     1      -3.853  10.721  17.850  0.00  0.00    +0.000 A 
ATOM     28  C   UNL     1      -3.019   9.829  17.181  0.00  0.00    +0.000 A 
ATOM     29  C   UNL     1      -1.639   9.887  17.374  0.00  0.00    +0.000 A 
ENDBRANCH  23  24
BRANCH  23  30
ATOM     30  C   UNL     1       0.859  12.396  18.865  0.00  0.00    +0.000 C 
BRANCH  30  31
ATOM     31  O   UNL     1       1.613  13.147  17.910  0.00  0.00    +0.000 OA
ATOM     32  H   UNL     1       2.111  12.502  17.381  0.00  0.00    +0.000 HD
ENDBRANCH  30  31
ENDBRANCH  23  30
ENDBRANCH  21  23
ENDBRANCH   7  19
TORSDOF 7
ENDMDL
MODEL 5
REMARK VINA RESULT:      -7.7      2.793      8.527
REMARK  Name = 
REMARK  8 active torsions:
REMARK  status: ('A' for Active; 'I' for Inactive)
REMARK    1  A    between atoms: C_1  and  O_2
REMARK    2  A    between atoms: O_2  and  C_3
REMARK    3  A    between atoms: C_6  and  C_7
REMARK    4  A    between atoms: C_13  and  C_14
REMARK    5  A    between atoms: N_16  and  CA_17
REMARK    6  A    between atoms: CA_17  and  C_18
REMARK    7  A    between atoms: CA_17  and  C_20
REMARK    8  A    between atoms: C_18  and  O_19
REMARK                            x       y       z     vdW  Elec       q    Type
REMARK                         _______ _______ _______ _____ _____    ______ ____
ROOT
ATOM      1  C   UNL     1       3.799   5.469  17.878  0.00  0.00    +0.000 A 
ATOM      2  C   UNL     1       3.729   4.588  18.972  0.00  0.00    +0.000 A 
ATOM      3  C   UNL     1       3.061   4.923  20.170  0.00  0.00    +0.000 A 
ATOM      4  C   UNL     1       2.448   6.181  20.227  0.00  0.00    +0.000 A 
ATOM      5  N   UNL     1       1.743   6.836  21.202  0.00  0.00    +0.000 N 
ATOM      6  N   UNL     1       1.276   8.055  20.836  0.00  0.00    +0.000 NA
ATOM      7  C   UNL     1       1.743   8.211  19.578  0.00  0.00    +0.000 A 
ATOM      8  C   UNL     1       2.476   7.067  19.165  0.00  0.00    +0.000 A 
ATOM      9  C   UNL     1       3.156   6.707  17.993  0.00  0.00    +0.000 A 
ATOM     10  H   UNL     1       1.548   6.509  22.142  0.00  0.00    +0.000 HD
ENDROOT
BRANCH   1  14
ATOM     11  C   UNL     1       6.344   4.683  14.501  0.00  0.00    +0.000 A 
ATOM     12  C   UNL     1       5.977   5.991  14.811  0.00  0.00    +0.000 A 
ATOM     13  C   UNL     1       5.098   6.239  15.867  0.00  0.00    +0.000 A 
ATOM     14  C   UNL     1       4.575   5.191  16.651  0.00  0.00    +0.000 A 
ATOM     15  C   UNL     1       4.919   3.882  16.290  0.00  0.00    +0.000 A 
ATOM     16  C   UNL     1       5.793   3.626  15.224  0.00  0.00    +0.000 A 
BRANCH  11  18
ATOM     17  C   UNL     1       6.769   3.745  12.380  0.00  0.00    +0.000 C 
ATOM     18  O   UNL     1       7.221   4.553  13.460  0.00  0.00    +0.000 OA
ENDBRANCH  11  18
ENDBRANCH   1  14
BRANCH   7  19
ATOM     19  C   UNL     1       1.487   9.400  18.740  0.00  0.00    +0.000 C 
ATOM     20  O   UNL     1       1.937   9.528  17.603  0.00  0.00    +0.000 OA
ATOM     21  N   UNL     1       0.657  10.339  19.304  0.00  0.00    +0.000 N 
ATOM     22  H   UNL     1       0.234  10.049  20.179  0.00  0.00    +0.000 HD
BRANCH  21  23
ATOM     23  CA  UNL     1       0.051  11.396  18.493  0.00  0.00    +0.000 C 
BRANCH  23  24
ATOM     24  C   UNL     1      -1.408  11.098  18.186  0.00  0.00    +0.000 A 
ATOM     25  C   UNL     1      -2.427  11.878  18.762  0.00  0.00    +0.000 A 
ATOM     26  C   UNL     1      -3.766  11.646  18.444  0.00  0.00    +0.000 A 
ATOM     27  C   UNL     1      -4.108  10.637  17.546  0.00  0.00    +0.000 A 
ATOM     28  C   UNL     1      -3.114   9.834  16.994  0.00  0.00    +0.000 A 
ATOM     29  C   UNL     1      -1.778  10.048  17.331  0.00  0.00    +0.000 A 
ENDBRANCH  23  24
BRANCH  23  30
ATOM     30  C   UNL     1       0.244  12.810  19.092  0.00  0.00    +0.000 C 
BRANCH  30  31
ATOM     31  O   UNL     1       0.866  12.797  20.380  0.00  0.00    +0.000 OA
ATOM     32  H   UNL     1       0.494  13.546  20.875  0.00  0.00    +0.000 HD
ENDBRANCH  30  31
ENDBRANCH  23  30
ENDBRANCH  21  23
ENDBRANCH   7  19
TORSDOF 7
ENDMDL
MODEL 6
REMARK VINA RESULT:      -7.7      1.229      1.243
REMARK  Name = 
REMARK  8 active torsions:
REMARK  status: ('A' for Active; 'I' for Inactive)
REMARK    1  A    between atoms: C_1  and  O_2
REMARK    2  A    between atoms: O_2  and  C_3
REMARK    3  A    between atoms: C_6  and  C_7
REMARK    4  A    between atoms: C_13  and  C_14
REMARK    5  A    between atoms: N_16  and  CA_17
REMARK    6  A    between atoms: CA_17  and  C_18
REMARK    7  A    between atoms: CA_17  and  C_20
REMARK    8  A    between atoms: C_18  and  O_19
REMARK                            x       y       z     vdW  Elec       q    Type
REMARK                         _______ _______ _______ _____ _____    ______ ____
ROOT
ATOM      1  C   UNL     1       1.914   6.236  20.105  0.00  0.00    +0.000 A 
ATOM      2  C   UNL     1       1.290   5.215  20.844  0.00  0.00    +0.000 A 
ATOM      3  C   UNL     1       1.514   3.846  20.580  0.00  0.00    +0.000 A 
ATOM      4  C   UNL     1       2.405   3.535  19.545  0.00  0.00    +0.000 A 
ATOM      5  N   UNL     1       2.842   2.352  19.009  0.00  0.00    +0.000 N 
ATOM      6  N   UNL     1       3.757   2.488  18.017  0.00  0.00    +0.000 NA
ATOM      7  C   UNL     1       3.879   3.826  17.876  0.00  0.00    +0.000 A 
ATOM      8  C   UNL     1       3.054   4.510  18.808  0.00  0.00    +0.000 A 
ATOM      9  C   UNL     1       2.802   5.860  19.090  0.00  0.00    +0.000 A 
ATOM     10  H   UNL     1       2.554   1.416  19.272  0.00  0.00    +0.000 HD
ENDROOT
BRANCH   1  14
ATOM     11  C   UNL     1       0.743  10.350  20.549  0.00  0.00    +0.000 A 
ATOM     12  C   UNL     1       1.219   9.887  19.325  0.00  0.00    +0.000 A 
ATOM     13  C   UNL     1       1.660   8.569  19.199  0.00  0.00    +0.000 A 
ATOM     14  C   UNL     1       1.623   7.674  20.288  0.00  0.00    +0.000 A 
ATOM     15  C   UNL     1       1.187   8.176  21.521  0.00  0.00    +0.000 A 
ATOM     16  C   UNL     1       0.752   9.502  21.654  0.00  0.00    +0.000 A 
BRANCH  11  18
ATOM     17  C   UNL     1       0.339  12.306  19.295  0.00  0.00    +0.000 C 
ATOM     18  O   UNL     1       0.320  11.651  20.558  0.00  0.00    +0.000 OA
ENDBRANCH  11  18
ENDBRANCH   1  14
BRANCH   7  19
ATOM     19  C   UNL     1       4.781   4.479  16.906  0.00  0.00    +0.000 C 
ATOM     20  O   UNL     1       4.485   5.508  16.303  0.00  0.00    +0.000 OA
ATOM     21  N   UNL     1       6.010   3.880  16.763  0.00  0.00    +0.000 N 
ATOM     22  H   UNL     1       6.187   3.130  17.422  0.00  0.00    +0.000 HD
BRANCH  21  23
ATOM     23  CA  UNL     1       7.117   4.574  16.104  0.00  0.00    +0.000 C 
BRANCH  23  24
ATOM     24  C   UNL     1       7.008   4.488  14.590  0.00  0.00    +0.000 A 
ATOM     25  C   UNL     1       7.773   5.344  13.776  0.00  0.00    +0.000 A 
ATOM     26  C   UNL     1       7.721   5.238  12.386  0.00  0.00    +0.000 A 
ATOM     27  C   UNL     1       6.909   4.276  11.787  0.00  0.00    +0.000 A 
ATOM     28  C   UNL     1       6.121   3.444  12.578  0.00  0.00    +0.000 A 
ATOM     29  C   UNL     1       6.152   3.568  13.966  0.00  0.00    +0.000 A 
ENDBRANCH  23  24
BRANCH  23  30
ATOM     30  C   UNL     1       7.303   6.030  16.596  0.00  0.00    +0.000 C 
BRANCH  30  31
ATOM     31  O   UNL     1       7.720   6.115  17.960  0.00  0.00    +0.000 OA
ATOM     32  H   UNL     1       8.637   6.435  17.951  0.00  0.00    +0.000 HD
ENDBRANCH  30  31
ENDBRANCH  23  30
ENDBRANCH  21  23
ENDBRANCH   7  19
TORSDOF 7
ENDMDL
MODEL 7
REMARK VINA RESULT:      -7.7      1.913      3.185
REMARK  Name = 
REMARK  8 active torsions:
REMARK  status: ('A' for Active; 'I' for Inactive)
REMARK    1  A    between atoms: C_1  and  O_2
REMARK    2  A    between atoms: O_2  and  C_3
REMARK    3  A    between atoms: C_6  and  C_7
REMARK    4  A    between atoms: C_13  and  C_14
REMARK    5  A    between atoms: N_16  and  CA_17
REMARK    6  A    between atoms: CA_17  and  C_18
REMARK    7  A    between atoms: CA_17  and  C_20
REMARK    8  A    between atoms: C_18  and  O_19
REMARK                            x       y       z     vdW  Elec       q    Type
REMARK                         _______ _______ _______ _____ _____    ______ ____
ROOT
ATOM      1  C   UNL     1       1.819   5.723  19.984  0.00  0.00    +0.000 A 
ATOM      2  C   UNL     1       1.159   4.742  20.746  0.00  0.00    +0.000 A 
ATOM      3  C   UNL     1       1.292   3.362  20.477  0.00  0.00    +0.000 A 
ATOM      4  C   UNL     1       2.129   2.997  19.416  0.00  0.00    +0.000 A 
ATOM      5  N   UNL     1       2.478   1.790  18.870  0.00  0.00    +0.000 N 
ATOM      6  N   UNL     1       3.368   1.870  17.850  0.00  0.00    +0.000 NA
ATOM      7  C   UNL     1       3.566   3.198  17.702  0.00  0.00    +0.000 A 
ATOM      8  C   UNL     1       2.812   3.931  18.657  0.00  0.00    +0.000 A 
ATOM      9  C   UNL     1       2.651   5.294  18.944  0.00  0.00    +0.000 A 
ATOM     10  H   UNL     1       2.142   0.873  19.144  0.00  0.00    +0.000 HD
ENDROOT
BRANCH   1  14
ATOM     11  C   UNL     1       0.925   9.909  20.408  0.00  0.00    +0.000 A 
ATOM     12  C   UNL     1       1.494   9.431  19.230  0.00  0.00    +0.000 A 
ATOM     13  C   UNL     1       1.844   8.084  19.118  0.00  0.00    +0.000 A 
ATOM     14  C   UNL     1       1.621   7.176  20.173  0.00  0.00    +0.000 A 
ATOM     15  C   UNL     1       1.094   7.689  21.365  0.00  0.00    +0.000 A 
ATOM     16  C   UNL     1       0.750   9.043  21.486  0.00  0.00    +0.000 A 
BRANCH  11  18
ATOM     17  C   UNL     1       0.600  11.861  19.126  0.00  0.00    +0.000 C 
ATOM     18  O   UNL     1       0.604  11.238  20.406  0.00  0.00    +0.000 OA
ENDBRANCH  11  18
ENDBRANCH   1  14
BRANCH   7  19
ATOM     19  C   UNL     1       4.474   3.795  16.703  0.00  0.00    +0.000 C 
ATOM     20  O   UNL     1       4.257   3.761  15.494  0.00  0.00    +0.000 OA
ATOM     21  N   UNL     1       5.565   4.447  17.227  0.00  0.00    +0.000 N 
ATOM     22  H   UNL     1       5.553   4.534  18.238  0.00  0.00    +0.000 HD
BRANCH  21  23
ATOM     23  CA  UNL     1       6.368   5.356  16.408  0.00  0.00    +0.000 C 
BRANCH  23  24
ATOM     24  C   UNL     1       7.098   6.381  17.263  0.00  0.00    +0.000 A 
ATOM     25  C   UNL     1       7.728   5.986  18.457  0.00  0.00    +0.000 A 
ATOM     26  C   UNL     1       8.445   6.908  19.221  0.00  0.00    +0.000 A 
ATOM     27  C   UNL     1       8.547   8.234  18.804  0.00  0.00    +0.000 A 
ATOM     28  C   UNL     1       7.899   8.648  17.643  0.00  0.00    +0.000 A 
ATOM     29  C   UNL     1       7.161   7.733  16.893  0.00  0.00    +0.000 A 
ENDBRANCH  23  24
BRANCH  23  30
ATOM     30  C   UNL     1       7.322   4.620  15.437  0.00  0.00    +0.000 C 
BRANCH  30  31
ATOM     31  O   UNL     1       7.784   5.446  14.366  0.00  0.00    +0.000 OA
ATOM     32  H   UNL     1       8.080   4.846  13.661  0.00  0.00    +0.000 HD
ENDBRANCH  30  31
ENDBRANCH  23  30
ENDBRANCH  21  23
ENDBRANCH   7  19
TORSDOF 7
ENDMDL
MODEL 8
REMARK VINA RESULT:      -7.7      2.805      8.720
REMARK  Name = 
REMARK  8 active torsions:
REMARK  status: ('A' for Active; 'I' for Inactive)
REMARK    1  A    between atoms: C_1  and  O_2
REMARK    2  A    between atoms: O_2  and  C_3
REMARK    3  A    between atoms: C_6  and  C_7
REMARK    4  A    between atoms: C_13  and  C_14
REMARK    5  A    between atoms: N_16  and  CA_17
REMARK    6  A    between atoms: CA_17  and  C_18
REMARK    7  A    between atoms: CA_17  and  C_20
REMARK    8  A    between atoms: C_18  and  O_19
REMARK                            x       y       z     vdW  Elec       q    Type
REMARK                         _______ _______ _______ _____ _____    ______ ____
ROOT
ATOM      1  C   UNL     1       3.910   5.348  17.966  0.00  0.00    +0.000 A 
ATOM      2  C   UNL     1       3.746   4.460  19.044  0.00  0.00    +0.000 A 
ATOM      3  C   UNL     1       2.993   4.794  20.190  0.00  0.00    +0.000 A 
ATOM      4  C   UNL     1       2.393   6.059  20.211  0.00  0.00    +0.000 A 
ATOM      5  N   UNL     1       1.623   6.715  21.136  0.00  0.00    +0.000 N 
ATOM      6  N   UNL     1       1.200   7.942  20.746  0.00  0.00    +0.000 NA
ATOM      7  C   UNL     1       1.763   8.103  19.528  0.00  0.00    +0.000 A 
ATOM      8  C   UNL     1       2.513   6.953  19.162  0.00  0.00    +0.000 A 
ATOM      9  C   UNL     1       3.276   6.594  18.043  0.00  0.00    +0.000 A 
ATOM     10  H   UNL     1       1.353   6.383  22.056  0.00  0.00    +0.000 HD
ENDROOT
BRANCH   1  14
ATOM     11  C   UNL     1       6.138   4.496  14.387  0.00  0.00    +0.000 A 
ATOM     12  C   UNL     1       5.788   3.465  15.256  0.00  0.00    +0.000 A 
ATOM     13  C   UNL     1       5.122   3.750  16.449  0.00  0.00    +0.000 A 
ATOM     14  C   UNL     1       4.775   5.070  16.799  0.00  0.00    +0.000 A 
ATOM     15  C   UNL     1       5.180   6.096  15.935  0.00  0.00    +0.000 A 
ATOM     16  C   UNL     1       5.857   5.815  14.740  0.00  0.00    +0.000 A 
BRANCH  11  18
ATOM     17  C   UNL     1       5.983   3.327  12.345  0.00  0.00    +0.000 C 
ATOM     18  O   UNL     1       6.770   4.105  13.239  0.00  0.00    +0.000 OA
ENDBRANCH  11  18
ENDBRANCH   1  14
BRANCH   7  19
ATOM     19  C   UNL     1       1.586   9.301  18.683  0.00  0.00    +0.000 C 
ATOM     20  O   UNL     1       1.883   9.331  17.491  0.00  0.00    +0.000 OA
ATOM     21  N   UNL     1       1.009  10.376  19.316  0.00  0.00    +0.000 N 
ATOM     22  H   UNL     1       0.675  10.179  20.253  0.00  0.00    +0.000 HD
BRANCH  21  23
ATOM     23  CA  UNL     1       0.473  11.504  18.554  0.00  0.00    +0.000 C 
BRANCH  23  24
ATOM     24  C   UNL     1      -0.971  11.796  18.929  0.00  0.00    +0.000 A 
ATOM     25  C   UNL     1      -1.263  12.574  20.065  0.00  0.00    +0.000 A 
ATOM     26  C   UNL     1      -2.583  12.893  20.388  0.00  0.00    +0.000 A 
ATOM     27  C   UNL     1      -3.629  12.444  19.583  0.00  0.00    +0.000 A 
ATOM     28  C   UNL     1      -3.358  11.645  18.476  0.00  0.00    +0.000 A 
ATOM     29  C   UNL     1      -2.042  11.305  18.167  0.00  0.00    +0.000 A 
ENDBRANCH  23  24
BRANCH  23  30
ATOM     30  C   UNL     1       1.363  12.768  18.626  0.00  0.00    +0.000 C 
BRANCH  30  31
ATOM     31  O   UNL     1       2.254  12.895  17.516  0.00  0.00    +0.000 OA
ATOM     32  H   UNL     1       2.969  13.488  17.800  0.00  0.00    +0.000 HD
ENDBRANCH  30  31
ENDBRANCH  23  30
ENDBRANCH  21  23
ENDBRANCH   7  19
TORSDOF 7
ENDMDL
MODEL 9
REMARK VINA RESULT:      -7.7      3.115      8.712
REMARK  Name = 
REMARK  8 active torsions:
REMARK  status: ('A' for Active; 'I' for Inactive)
REMARK    1  A    between atoms: C_1  and  O_2
REMARK    2  A    between atoms: O_2  and  C_3
REMARK    3  A    between atoms: C_6  and  C_7
REMARK    4  A    between atoms: C_13  and  C_14
REMARK    5  A    between atoms: N_16  and  CA_17
REMARK    6  A    between atoms: CA_17  and  C_18
REMARK    7  A    between atoms: CA_17  and  C_20
REMARK    8  A    between atoms: C_18  and  O_19
REMARK                            x       y       z     vdW  Elec       q    Type
REMARK                         _______ _______ _______ _____ _____    ______ ____
ROOT
ATOM      1  C   UNL     1       3.176   6.010  18.509  0.00  0.00    +0.000 A 
ATOM      2  C   UNL     1       3.021   5.208  19.654  0.00  0.00    +0.000 A 
ATOM      3  C   UNL     1       2.321   5.650  20.796  0.00  0.00    +0.000 A 
ATOM      4  C   UNL     1       1.763   6.934  20.745  0.00  0.00    +0.000 A 
ATOM      5  N   UNL     1       1.050   7.682  21.644  0.00  0.00    +0.000 N 
ATOM      6  N   UNL     1       0.654   8.892  21.178  0.00  0.00    +0.000 NA
ATOM      7  C   UNL     1       1.178   8.944  19.934  0.00  0.00    +0.000 A 
ATOM      8  C   UNL     1       1.876   7.746  19.630  0.00  0.00    +0.000 A 
ATOM      9  C   UNL     1       2.586   7.279  18.515  0.00  0.00    +0.000 A 
ATOM     10  H   UNL     1       0.802   7.427  22.594  0.00  0.00    +0.000 HD
ENDROOT
BRANCH   1  14
ATOM     11  C   UNL     1       5.817   4.875  15.309  0.00  0.00    +0.000 A 
ATOM     12  C   UNL     1       5.552   6.221  15.554  0.00  0.00    +0.000 A 
ATOM     13  C   UNL     1       4.644   6.586  16.549  0.00  0.00    +0.000 A 
ATOM     14  C   UNL     1       3.989   5.618  17.338  0.00  0.00    +0.000 A 
ATOM     15  C   UNL     1       4.233   4.271  17.041  0.00  0.00    +0.000 A 
ATOM     16  C   UNL     1       5.136   3.899  16.035  0.00  0.00    +0.000 A 
BRANCH  11  18
ATOM     17  C   UNL     1       6.271   3.818  13.250  0.00  0.00    +0.000 C 
ATOM     18  O   UNL     1       6.733   4.628  14.325  0.00  0.00    +0.000 OA
ENDBRANCH  11  18
ENDBRANCH   1  14
BRANCH   7  19
ATOM     19  C   UNL     1       1.011  10.084  19.010  0.00  0.00    +0.000 C 
ATOM     20  O   UNL     1       1.864  10.411  18.188  0.00  0.00    +0.000 OA
ATOM     21  N   UNL     1      -0.201  10.727  19.097  0.00  0.00    +0.000 N 
ATOM     22  H   UNL     1      -0.872  10.272  19.705  0.00  0.00    +0.000 HD
BRANCH  21  23
ATOM     23  CA  UNL     1      -0.645  11.647  18.048  0.00  0.00    +0.000 C 
BRANCH  23  24
ATOM     24  C   UNL     1      -2.129  11.488  17.758  0.00  0.00    +0.000 A 
ATOM     25  C   UNL     1      -3.080  11.788  18.750  0.00  0.00    +0.000 A 
ATOM     26  C   UNL     1      -4.446  11.697  18.477  0.00  0.00    +0.000 A 
ATOM     27  C   UNL     1      -4.882  11.309  17.212  0.00  0.00    +0.000 A 
ATOM     28  C   UNL     1      -3.954  10.974  16.230  0.00  0.00    +0.000 A 
ATOM     29  C   UNL     1      -2.589  11.040  16.510  0.00  0.00    +0.000 A 
ENDBRANCH  23  24
BRANCH  23  30
ATOM     30  C   UNL     1      -0.258  13.120  18.324  0.00  0.00    +0.000 C 
BRANCH  30  31
ATOM     31  O   UNL     1       1.111  13.407  18.031  0.00  0.00    +0.000 OA
ATOM     32  H   UNL     1       1.602  13.300  18.863  0.00  0.00    +0.000 HD
ENDBRANCH  30  31
ENDBRANCH  23  30
ENDBRANCH  21  23
ENDBRANCH   7  19
TORSDOF 7
ENDMDL
