MODEL 1
REMARK VINA RESULT:      -7.7      0.000      0.000
REMARK  Name = 
REMARK  5 active torsions:
REMARK  status: ('A' for Active; 'I' for Inactive)
REMARK    1  A    between atoms: C_9  and  C_11
REMARK    2  A    between atoms: C_14  and  O_15
REMARK    3  A    between atoms: N_21  and  C_22
REMARK    4  A    between atoms: C_22  and  C_23
REMARK    5  A    between atoms: C_23  and  C_24
REMARK                            x       y       z     vdW  Elec       q    Type
REMARK                         _______ _______ _______ _____ _____    ______ ____
ROOT
ATOM      1  O   UNL     1      -0.456  13.913  19.259  0.00  0.00    +0.000 OA
ATOM      2  C   UNL     1      -0.216  12.715  19.383  0.00  0.00    +0.000 C 
ATOM      3  C   UNL     1       1.155  12.236  19.808  0.00  0.00    +0.000 C 
ATOM      4  C   UNL     1       1.129  10.929  20.574  0.00  0.00    +0.000 C 
ATOM      5  C   UNL     1       0.314   9.835  19.849  0.00  0.00    +0.000 C 
ATOM      6  C   UNL     1       0.886   9.418  18.469  0.00  0.00    +0.000 C 
ATOM      7  C   UNL     1       2.248   8.752  18.592  0.00  0.00    +0.000 C 
ATOM      8  N   UNL     1       2.172   7.600  19.491  0.00  0.00    +0.000 N 
ATOM      9  C   UNL     1       2.482   6.343  18.979  0.00  0.00    +0.000 C 
ATOM     10  O   UNL     1       2.806   6.195  17.795  0.00  0.00    +0.000 OA
ATOM     11  C   UNL     1       1.654   7.897  20.830  0.00  0.00    +0.000 C 
ATOM     12  C   UNL     1       0.271   8.562  20.737  0.00  0.00    +0.000 C 
ATOM     13  C   UNL     1      -1.091  10.410  19.629  0.00  0.00    +0.000 C 
ATOM     14  N   UNL     1      -1.073  11.708  18.949  0.00  0.00    +0.000 N 
ENDROOT
BRANCH   9  15
ATOM     15  C   UNL     1       2.523   5.150  19.928  0.00  0.00    +0.000 C 
ATOM     16  C   UNL     1       1.133   4.503  20.049  0.00  0.00    +0.000 C 
ATOM     17  C   UNL     1       1.180   3.251  20.924  0.00  0.00    +0.000 C 
ATOM     18  C   UNL     1       2.201   2.234  20.415  0.00  0.00    +0.000 C 
ATOM     19  C   UNL     1       3.585   2.863  20.249  0.00  0.00    +0.000 C 
ATOM     20  C   UNL     1       3.555   4.139  19.403  0.00  0.00    +0.000 C 
BRANCH  18  21
ATOM     21  O   UNL     1       1.765   1.666  19.183  0.00  0.00    +0.000 OA
ATOM     22  H   UNL     1       2.044   0.736  19.144  0.00  0.00    +0.000 HD
ENDBRANCH  18  21
ENDBRANCH   9  15
BRANCH  14  23
ATOM     23  C   UNL     1      -1.897  11.972  17.762  0.00  0.00    +0.000 C 
BRANCH  23  24
ATOM     24  C   UNL     1      -3.093  11.039  17.561  0.00  0.00    +0.000 C 
BRANCH  24  25
ATOM     25  C   UNL     1      -4.395  11.659  17.991  0.00  0.00    +0.000 A 
ATOM     26  C   UNL     1      -4.557  12.136  19.300  0.00  0.00    +0.000 A 
ATOM     27  C   UNL     1      -5.766  12.719  19.643  0.00  0.00    +0.000 A 
ATOM     28  N   UNL     1      -6.803  12.851  18.793  0.00  0.00    +0.000 NA
ATOM     29  C   UNL     1      -6.625  12.378  17.540  0.00  0.00    +0.000 A 
ATOM     30  C   UNL     1      -5.457  11.778  17.097  0.00  0.00    +0.000 A 
ENDBRANCH  24  25
ENDBRANCH  23  24
ENDBRANCH  14  23
TORSDOF 5
ENDMDL
MODEL 2
REMARK VINA RESULT:      -7.4      1.585      2.069
REMARK  Name = 
REMARK  5 active torsions:
REMARK  status: ('A' for Active; 'I' for Inactive)
REMARK    1  A    between atoms: C_9  and  C_11
REMARK    2  A    between atoms: C_14  and  O_15
REMARK    3  A    between atoms: N_21  and  C_22
REMARK    4  A    between atoms: C_22  and  C_23
REMARK    5  A    between atoms: C_23  and  C_24
REMARK                            x       y       z     vdW  Elec       q    Type
REMARK                         _______ _______ _______ _____ _____    ______ ____
ROOT
ATOM      1  O   UNL     1      -0.174  14.102  20.344  0.00  0.00    +0.000 OA
ATOM      2  C   UNL     1       0.008  12.887  20.354  0.00  0.00    +0.000 C 
ATOM      3  C   UNL     1       1.399  12.310  20.489  0.00  0.00    +0.000 C 
ATOM      4  C   UNL     1       1.431  10.958  21.173  0.00  0.00    +0.000 C 
ATOM      5  C   UNL     1       0.429   9.959  20.553  0.00  0.00    +0.000 C 
ATOM      6  C   UNL     1       0.712   9.605  19.070  0.00  0.00    +0.000 C 
ATOM      7  C   UNL     1       2.028   8.862  18.900  0.00  0.00    +0.000 C 
ATOM      8  N   UNL     1       2.044   7.659  19.732  0.00  0.00    +0.000 N 
ATOM      9  C   UNL     1       2.175   6.424  19.101  0.00  0.00    +0.000 C 
ATOM     10  O   UNL     1       2.266   6.338  17.872  0.00  0.00    +0.000 OA
ATOM     11  C   UNL     1       1.800   7.893  21.158  0.00  0.00    +0.000 C 
ATOM     12  C   UNL     1       0.468   8.634  21.362  0.00  0.00    +0.000 C 
ATOM     13  C   UNL     1      -0.953  10.621  20.631  0.00  0.00    +0.000 C 
ATOM     14  N   UNL     1      -0.977  11.958  20.033  0.00  0.00    +0.000 N 
ENDROOT
BRANCH   9  15
ATOM     15  C   UNL     1       2.313   5.170  19.959  0.00  0.00    +0.000 C 
ATOM     16  C   UNL     1       0.956   4.459  20.104  0.00  0.00    +0.000 C 
ATOM     17  C   UNL     1       1.099   3.152  20.883  0.00  0.00    +0.000 C 
ATOM     18  C   UNL     1       2.129   2.216  20.250  0.00  0.00    +0.000 C 
ATOM     19  C   UNL     1       3.476   2.913  20.058  0.00  0.00    +0.000 C 
ATOM     20  C   UNL     1       3.352   4.243  19.310  0.00  0.00    +0.000 C 
BRANCH  18  21
ATOM     21  O   UNL     1       1.648   1.719  19.004  0.00  0.00    +0.000 OA
ATOM     22  H   UNL     1       2.094   0.878  18.803  0.00  0.00    +0.000 HD
ENDBRANCH  18  21
ENDBRANCH   9  15
BRANCH  14  23
ATOM     23  C   UNL     1      -1.985  12.343  19.037  0.00  0.00    +0.000 C 
BRANCH  23  24
ATOM     24  C   UNL     1      -3.081  11.310  18.766  0.00  0.00    +0.000 C 
BRANCH  24  25
ATOM     25  C   UNL     1      -3.128  10.871  17.328  0.00  0.00    +0.000 A 
ATOM     26  C   UNL     1      -2.219   9.917  16.847  0.00  0.00    +0.000 A 
ATOM     27  C   UNL     1      -2.315   9.527  15.521  0.00  0.00    +0.000 A 
ATOM     28  N   UNL     1      -3.229  10.016  14.660  0.00  0.00    +0.000 NA
ATOM     29  C   UNL     1      -4.088  10.938  15.144  0.00  0.00    +0.000 A 
ATOM     30  C   UNL     1      -4.077  11.396  16.453  0.00  0.00    +0.000 A 
ENDBRANCH  24  25
ENDBRANCH  23  24
ENDBRANCH  14  23
TORSDOF 5
ENDMDL
MODEL 3
REMARK VINA RESULT:      -7.1      3.142      4.428
REMARK  Name = 
REMARK  5 active torsions:
REMARK  status: ('A' for Active; 'I' for Inactive)
REMARK    1  A    between atoms: C_9  and  C_11
REMARK    2  A    between atoms: C_14  and  O_15
REMARK    3  A    between atoms: N_21  and  C_22
REMARK    4  A    between atoms: C_22  and  C_23
REMARK    5  A    between atoms: C_23  and  C_24
REMARK                            x       y       z     vdW  Elec       q    Type
REMARK                         _______ _______ _______ _____ _____    ______ ____
ROOT
ATOM      1  O   UNL     1      -2.313  12.262  19.861  0.00  0.00    +0.000 OA
ATOM      2  C   UNL     1      -1.333  11.583  19.568  0.00  0.00    +0.000 C 
ATOM      3  C   UNL     1      -1.492  10.237  18.896  0.00  0.00    +0.000 C 
ATOM      4  C   UNL     1      -0.329   9.867  17.998  0.00  0.00    +0.000 C 
ATOM      5  C   UNL     1       1.036  10.022  18.705  0.00  0.00    +0.000 C 
ATOM      6  C   UNL     1       1.232   9.091  19.931  0.00  0.00    +0.000 C 
ATOM      7  C   UNL     1       1.259   7.623  19.535  0.00  0.00    +0.000 C 
ATOM      8  N   UNL     1       2.297   7.385  18.532  0.00  0.00    +0.000 N 
ATOM      9  C   UNL     1       3.329   6.504  18.847  0.00  0.00    +0.000 C 
ATOM     10  O   UNL     1       3.377   5.940  19.947  0.00  0.00    +0.000 OA
ATOM     11  C   UNL     1       2.189   8.210  17.326  0.00  0.00    +0.000 C 
ATOM     12  C   UNL     1       2.170   9.703  17.694  0.00  0.00    +0.000 C 
ATOM     13  C   UNL     1       1.113  11.474  19.192  0.00  0.00    +0.000 C 
ATOM     14  N   UNL     1      -0.042  11.863  20.005  0.00  0.00    +0.000 N 
ENDROOT
BRANCH   9  15
ATOM     15  C   UNL     1       4.352   6.153  17.773  0.00  0.00    +0.000 C 
ATOM     16  C   UNL     1       5.734   6.725  18.132  0.00  0.00    +0.000 C 
ATOM     17  C   UNL     1       6.790   6.302  17.110  0.00  0.00    +0.000 C 
ATOM     18  C   UNL     1       6.863   4.782  16.957  0.00  0.00    +0.000 C 
ATOM     19  C   UNL     1       5.492   4.185  16.639  0.00  0.00    +0.000 C 
ATOM     20  C   UNL     1       4.411   4.624  17.631  0.00  0.00    +0.000 C 
BRANCH  18  21
ATOM     21  O   UNL     1       7.398   4.189  18.136  0.00  0.00    +0.000 OA
ATOM     22  H   UNL     1       7.931   3.414  17.890  0.00  0.00    +0.000 HD
ENDBRANCH  18  21
ENDBRANCH   9  15
BRANCH  14  23
ATOM     23  C   UNL     1       0.115  12.495  21.322  0.00  0.00    +0.000 C 
BRANCH  23  24
ATOM     24  C   UNL     1      -0.535  11.759  22.495  0.00  0.00    +0.000 C 
BRANCH  24  25
ATOM     25  C   UNL     1      -1.598  12.575  23.178  0.00  0.00    +0.000 A 
ATOM     26  C   UNL     1      -1.340  13.900  23.561  0.00  0.00    +0.000 A 
ATOM     27  C   UNL     1      -2.357  14.620  24.168  0.00  0.00    +0.000 A 
ATOM     28  N   UNL     1      -3.583  14.121  24.418  0.00  0.00    +0.000 NA
ATOM     29  C   UNL     1      -3.805  12.841  24.047  0.00  0.00    +0.000 A 
ATOM     30  C   UNL     1      -2.857  12.036  23.436  0.00  0.00    +0.000 A 
ENDBRANCH  24  25
ENDBRANCH  23  24
ENDBRANCH  14  23
TORSDOF 5
ENDMDL
MODEL 4
REMARK VINA RESULT:      -7.1      3.283      9.861
REMARK  Name = 
REMARK  5 active torsions:
REMARK  status: ('A' for Active; 'I' for Inactive)
REMARK    1  A    between atoms: C_9  and  C_11
REMARK    2  A    between atoms: C_14  and  O_15
REMARK    3  A    between atoms: N_21  and  C_22
REMARK    4  A    between atoms: C_22  and  C_23
REMARK    5  A    between atoms: C_23  and  C_24
REMARK                            x       y       z     vdW  Elec       q    Type
REMARK                         _______ _______ _______ _____ _____    ______ ____
ROOT
ATOM      1  O   UNL     1       3.617   2.480  17.809  0.00  0.00    +0.000 OA
ATOM      2  C   UNL     1       3.373   3.625  18.179  0.00  0.00    +0.000 C 
ATOM      3  C   UNL     1       2.062   4.293  17.828  0.00  0.00    +0.000 C 
ATOM      4  C   UNL     1       1.605   5.308  18.855  0.00  0.00    +0.000 C 
ATOM      5  C   UNL     1       2.712   6.324  19.215  0.00  0.00    +0.000 C 
ATOM      6  C   UNL     1       3.178   7.211  18.031  0.00  0.00    +0.000 C 
ATOM      7  C   UNL     1       2.072   8.130  17.536  0.00  0.00    +0.000 C 
ATOM      8  N   UNL     1       1.565   8.954  18.634  0.00  0.00    +0.000 N 
ATOM      9  C   UNL     1       1.680  10.338  18.526  0.00  0.00    +0.000 C 
ATOM     10  O   UNL     1       2.204  10.863  17.537  0.00  0.00    +0.000 OA
ATOM     11  C   UNL     1       1.087   8.203  19.798  0.00  0.00    +0.000 C 
ATOM     12  C   UNL     1       2.189   7.272  20.328  0.00  0.00    +0.000 C 
ATOM     13  C   UNL     1       3.915   5.504  19.699  0.00  0.00    +0.000 C 
ATOM     14  N   UNL     1       4.322   4.473  18.742  0.00  0.00    +0.000 N 
ENDROOT
BRANCH   9  15
ATOM     15  C   UNL     1       1.053  11.216  19.604  0.00  0.00    +0.000 C 
ATOM     16  C   UNL     1       1.641  12.636  19.559  0.00  0.00    +0.000 C 
ATOM     17  C   UNL     1       0.954  13.551  20.572  0.00  0.00    +0.000 C 
ATOM     18  C   UNL     1      -0.562  13.592  20.372  0.00  0.00    +0.000 C 
ATOM     19  C   UNL     1      -1.166  12.188  20.374  0.00  0.00    +0.000 C 
ATOM     20  C   UNL     1      -0.468  11.244  19.390  0.00  0.00    +0.000 C 
BRANCH  18  21
ATOM     21  O   UNL     1      -0.885  14.268  19.160  0.00  0.00    +0.000 OA
ATOM     22  H   UNL     1      -0.093  14.308  18.597  0.00  0.00    +0.000 HD
ENDBRANCH  18  21
ENDBRANCH   9  15
BRANCH  14  23
ATOM     23  C   UNL     1       5.715   4.337  18.295  0.00  0.00    +0.000 C 
BRANCH  23  24
ATOM     24  C   UNL     1       6.226   5.438  17.363  0.00  0.00    +0.000 C 
BRANCH  24  25
ATOM     25  C   UNL     1       6.324   4.991  15.930  0.00  0.00    +0.000 A 
ATOM     26  C   UNL     1       5.241   4.350  15.311  0.00  0.00    +0.000 A 
ATOM     27  C   UNL     1       5.369   3.976  13.982  0.00  0.00    +0.000 A 
ATOM     28  N   UNL     1       6.478   4.188  13.248  0.00  0.00    +0.000 NA
ATOM     29  C   UNL     1       7.510   4.801  13.868  0.00  0.00    +0.000 A 
ATOM     30  C   UNL     1       7.484   5.213  15.191  0.00  0.00    +0.000 A 
ENDBRANCH  24  25
ENDBRANCH  23  24
ENDBRANCH  14  23
TORSDOF 5
ENDMDL
MODEL 5
REMARK VINA RESULT:      -7.1      3.165      9.681
REMARK  Name = 
REMARK  5 active torsions:
REMARK  status: ('A' for Active; 'I' for Inactive)
REMARK    1  A    between atoms: C_9  and  C_11
REMARK    2  A    between atoms: C_14  and  O_15
REMARK    3  A    between atoms: N_21  and  C_22
REMARK    4  A    between atoms: C_22  and  C_23
REMARK    5  A    between atoms: C_23  and  C_24
REMARK                            x       y       z     vdW  Elec       q    Type
REMARK                         _______ _______ _______ _____ _____    ______ ____
ROOT
ATOM      1  O   UNL     1       3.454   2.326  18.010  0.00  0.00    +0.000 OA
ATOM      2  C   UNL     1       3.226   3.488  18.338  0.00  0.00    +0.000 C 
ATOM      3  C   UNL     1       1.986   4.204  17.851  0.00  0.00    +0.000 C 
ATOM      4  C   UNL     1       1.476   5.257  18.815  0.00  0.00    +0.000 C 
ATOM      5  C   UNL     1       2.587   6.230  19.268  0.00  0.00    +0.000 C 
ATOM      6  C   UNL     1       3.204   7.076  18.123  0.00  0.00    +0.000 C 
ATOM      7  C   UNL     1       2.193   8.032  17.509  0.00  0.00    +0.000 C 
ATOM      8  N   UNL     1       1.618   8.896  18.541  0.00  0.00    +0.000 N 
ATOM      9  C   UNL     1       1.805  10.272  18.426  0.00  0.00    +0.000 C 
ATOM     10  O   UNL     1       2.444  10.756  17.486  0.00  0.00    +0.000 OA
ATOM     11  C   UNL     1       0.997   8.187  19.663  0.00  0.00    +0.000 C 
ATOM     12  C   UNL     1       2.000   7.219  20.311  0.00  0.00    +0.000 C 
ATOM     13  C   UNL     1       3.700   5.369  19.878  0.00  0.00    +0.000 C 
ATOM     14  N   UNL     1       4.153   4.305  18.980  0.00  0.00    +0.000 N 
ENDROOT
BRANCH   9  15
ATOM     15  C   UNL     1       1.114  11.194  19.425  0.00  0.00    +0.000 C 
ATOM     16  C   UNL     1       1.733  12.602  19.383  0.00  0.00    +0.000 C 
ATOM     17  C   UNL     1       0.989  13.560  20.312  0.00  0.00    +0.000 C 
ATOM     18  C   UNL     1      -0.505  13.623  19.995  0.00  0.00    +0.000 C 
ATOM     19  C   UNL     1      -1.136  12.231  19.992  0.00  0.00    +0.000 C 
ATOM     20  C   UNL     1      -0.385  11.244  19.093  0.00  0.00    +0.000 C 
BRANCH  18  21
ATOM     21  O   UNL     1      -0.720  14.266  18.741  0.00  0.00    +0.000 OA
ATOM     22  H   UNL     1      -1.580  14.719  18.759  0.00  0.00    +0.000 HD
ENDBRANCH  18  21
ENDBRANCH   9  15
BRANCH  14  23
ATOM     23  C   UNL     1       5.575   4.101  18.673  0.00  0.00    +0.000 C 
BRANCH  23  24
ATOM     24  C   UNL     1       6.099   4.830  17.435  0.00  0.00    +0.000 C 
BRANCH  24  25
ATOM     25  C   UNL     1       6.898   6.059  17.775  0.00  0.00    +0.000 A 
ATOM     26  C   UNL     1       7.777   6.054  18.868  0.00  0.00    +0.000 A 
ATOM     27  C   UNL     1       8.509   7.201  19.130  0.00  0.00    +0.000 A 
ATOM     28  N   UNL     1       8.423   8.329  18.397  0.00  0.00    +0.000 NA
ATOM     29  C   UNL     1       7.565   8.311  17.353  0.00  0.00    +0.000 A 
ATOM     30  C   UNL     1       6.788   7.217  17.008  0.00  0.00    +0.000 A 
ENDBRANCH  24  25
ENDBRANCH  23  24
ENDBRANCH  14  23
TORSDOF 5
ENDMDL
MODEL 6
REMARK VINA RESULT:      -7.0      3.239      9.668
REMARK  Name = 
REMARK  5 active torsions:
REMARK  status: ('A' for Active; 'I' for Inactive)
REMARK    1  A    between atoms: C_9  and  C_11
REMARK    2  A    between atoms: C_14  and  O_15
REMARK    3  A    between atoms: N_21  and  C_22
REMARK    4  A    between atoms: C_22  and  C_23
REMARK    5  A    between atoms: C_23  and  C_24
REMARK                            x       y       z     vdW  Elec       q    Type
REMARK                         _______ _______ _______ _____ _____    ______ ____
ROOT
ATOM      1  O   UNL     1       2.875   2.011  18.640  0.00  0.00    +0.000 OA
ATOM      2  C   UNL     1       2.771   3.214  18.862  0.00  0.00    +0.000 C 
ATOM      3  C   UNL     1       1.480   3.949  18.577  0.00  0.00    +0.000 C 
ATOM      4  C   UNL     1       1.244   5.135  19.490  0.00  0.00    +0.000 C 
ATOM      5  C   UNL     1       2.464   6.080  19.558  0.00  0.00    +0.000 C 
ATOM      6  C   UNL     1       2.833   6.748  18.208  0.00  0.00    +0.000 C 
ATOM      7  C   UNL     1       1.745   7.691  17.719  0.00  0.00    +0.000 C 
ATOM      8  N   UNL     1       1.454   8.703  18.736  0.00  0.00    +0.000 N 
ATOM      9  C   UNL     1       1.660  10.041  18.410  0.00  0.00    +0.000 C 
ATOM     10  O   UNL     1       2.085  10.373  17.298  0.00  0.00    +0.000 OA
ATOM     11  C   UNL     1       1.080   8.168  20.047  0.00  0.00    +0.000 C 
ATOM     12  C   UNL     1       2.169   7.218  20.573  0.00  0.00    +0.000 C 
ATOM     13  C   UNL     1       3.655   5.224  20.009  0.00  0.00    +0.000 C 
ATOM     14  N   UNL     1       3.849   4.037  19.173  0.00  0.00    +0.000 N 
ENDROOT
BRANCH   9  15
ATOM     15  C   UNL     1       1.251  11.115  19.413  0.00  0.00    +0.000 C 
ATOM     16  C   UNL     1       1.878  12.470  19.045  0.00  0.00    +0.000 C 
ATOM     17  C   UNL     1       1.402  13.574  19.989  0.00  0.00    +0.000 C 
ATOM     18  C   UNL     1      -0.123  13.681  20.023  0.00  0.00    +0.000 C 
ATOM     19  C   UNL     1      -0.772  12.335  20.349  0.00  0.00    +0.000 C 
ATOM     20  C   UNL     1      -0.282  11.207  19.437  0.00  0.00    +0.000 C 
BRANCH  18  21
ATOM     21  O   UNL     1      -0.614  14.178  18.782  0.00  0.00    +0.000 OA
ATOM     22  H   UNL     1      -0.907  15.098  18.900  0.00  0.00    +0.000 HD
ENDBRANCH  18  21
ENDBRANCH   9  15
BRANCH  14  23
ATOM     23  C   UNL     1       5.155   3.709  18.586  0.00  0.00    +0.000 C 
BRANCH  23  24
ATOM     24  C   UNL     1       5.566   4.542  17.370  0.00  0.00    +0.000 C 
BRANCH  24  25
ATOM     25  C   UNL     1       6.512   5.658  17.720  0.00  0.00    +0.000 A 
ATOM     26  C   UNL     1       6.478   6.867  17.009  0.00  0.00    +0.000 A 
ATOM     27  C   UNL     1       7.353   7.875  17.382  0.00  0.00    +0.000 A 
ATOM     28  N   UNL     1       8.242   7.761  18.388  0.00  0.00    +0.000 NA
ATOM     29  C   UNL     1       8.261   6.586  19.053  0.00  0.00    +0.000 A 
ATOM     30  C   UNL     1       7.430   5.516  18.759  0.00  0.00    +0.000 A 
ENDBRANCH  24  25
ENDBRANCH  23  24
ENDBRANCH  14  23
TORSDOF 5
ENDMDL
MODEL 7
REMARK VINA RESULT:      -7.0      3.312      9.679
REMARK  Name = 
REMARK  5 active torsions:
REMARK  status: ('A' for Active; 'I' for Inactive)
REMARK    1  A    between atoms: C_9  and  C_11
REMARK    2  A    between atoms: C_14  and  O_15
REMARK    3  A    between atoms: N_21  and  C_22
REMARK    4  A    between atoms: C_22  and  C_23
REMARK    5  A    between atoms: C_23  and  C_24
REMARK                            x       y       z     vdW  Elec       q    Type
REMARK                         _______ _______ _______ _____ _____    ______ ____
ROOT
ATOM      1  O   UNL     1       2.225   1.801  19.421  0.00  0.00    +0.000 OA
ATOM      2  C   UNL     1       2.250   3.026  19.506  0.00  0.00    +0.000 C 
ATOM      3  C   UNL     1       0.998   3.846  19.290  0.00  0.00    +0.000 C 
ATOM      4  C   UNL     1       0.981   5.143  20.074  0.00  0.00    +0.000 C 
ATOM      5  C   UNL     1       2.273   5.967  19.880  0.00  0.00    +0.000 C 
ATOM      6  C   UNL     1       2.518   6.443  18.424  0.00  0.00    +0.000 C 
ATOM      7  C   UNL     1       1.457   7.427  17.959  0.00  0.00    +0.000 C 
ATOM      8  N   UNL     1       1.385   8.568  18.872  0.00  0.00    +0.000 N 
ATOM      9  C   UNL     1       1.657   9.837  18.364  0.00  0.00    +0.000 C 
ATOM     10  O   UNL     1       1.959  10.001  17.177  0.00  0.00    +0.000 OA
ATOM     11  C   UNL     1       1.142   8.220  20.274  0.00  0.00    +0.000 C 
ATOM     12  C   UNL     1       2.208   7.233  20.777  0.00  0.00    +0.000 C 
ATOM     13  C   UNL     1       3.438   5.055  20.286  0.00  0.00    +0.000 C 
ATOM     14  N   UNL     1       3.424   3.770  19.584  0.00  0.00    +0.000 N 
ENDROOT
BRANCH   9  15
ATOM     15  C   UNL     1       1.471  11.049  19.271  0.00  0.00    +0.000 C 
ATOM     16  C   UNL     1       2.065  12.310  18.621  0.00  0.00    +0.000 C 
ATOM     17  C   UNL     1       1.804  13.548  19.478  0.00  0.00    +0.000 C 
ATOM     18  C   UNL     1       0.314  13.744  19.764  0.00  0.00    +0.000 C 
ATOM     19  C   UNL     1      -0.308  12.488  20.375  0.00  0.00    +0.000 C 
ATOM     20  C   UNL     1      -0.029  11.229  19.550  0.00  0.00    +0.000 C 
BRANCH  18  21
ATOM     21  O   UNL     1      -0.377  14.108  18.573  0.00  0.00    +0.000 OA
ATOM     22  H   UNL     1       0.252  14.120  17.831  0.00  0.00    +0.000 HD
ENDBRANCH  18  21
ENDBRANCH   9  15
BRANCH  14  23
ATOM     23  C   UNL     1       4.611   3.253  18.889  0.00  0.00    +0.000 C 
BRANCH  23  24
ATOM     24  C   UNL     1       4.539   3.252  17.361  0.00  0.00    +0.000 C 
BRANCH  24  25
ATOM     25  C   UNL     1       5.548   4.172  16.728  0.00  0.00    +0.000 A 
ATOM     26  C   UNL     1       6.128   5.209  17.473  0.00  0.00    +0.000 A 
ATOM     27  C   UNL     1       7.069   6.017  16.855  0.00  0.00    +0.000 A 
ATOM     28  N   UNL     1       7.458   5.869  15.574  0.00  0.00    +0.000 NA
ATOM     29  C   UNL     1       6.880   4.868  14.875  0.00  0.00    +0.000 A 
ATOM     30  C   UNL     1       5.930   4.006  15.399  0.00  0.00    +0.000 A 
ENDBRANCH  24  25
ENDBRANCH  23  24
ENDBRANCH  14  23
TORSDOF 5
ENDMDL
MODEL 8
REMARK VINA RESULT:      -6.9      3.113      9.259
REMARK  Name = 
REMARK  5 active torsions:
REMARK  status: ('A' for Active; 'I' for Inactive)
REMARK    1  A    between atoms: C_9  and  C_11
REMARK    2  A    between atoms: C_14  and  O_15
REMARK    3  A    between atoms: N_21  and  C_22
REMARK    4  A    between atoms: C_22  and  C_23
REMARK    5  A    between atoms: C_23  and  C_24
REMARK                            x       y       z     vdW  Elec       q    Type
REMARK                         _______ _______ _______ _____ _____    ______ ____
ROOT
ATOM      1  O   UNL     1       2.776  11.219  17.817  0.00  0.00    +0.000 OA
ATOM      2  C   UNL     1       1.679  11.355  18.353  0.00  0.00    +0.000 C 
ATOM      3  C   UNL     1       1.235  12.700  18.884  0.00  0.00    +0.000 C 
ATOM      4  C   UNL     1      -0.266  12.900  18.848  0.00  0.00    +0.000 C 
ATOM      5  C   UNL     1      -1.034  11.724  19.491  0.00  0.00    +0.000 C 
ATOM      6  C   UNL     1      -0.746  11.518  21.001  0.00  0.00    +0.000 C 
ATOM      7  C   UNL     1      -1.229  12.691  21.840  0.00  0.00    +0.000 C 
ATOM      8  N   UNL     1      -2.655  12.927  21.611  0.00  0.00    +0.000 N 
ATOM      9  C   UNL     1      -3.523  12.815  22.695  0.00  0.00    +0.000 C 
ATOM     10  O   UNL     1      -3.108  12.517  23.820  0.00  0.00    +0.000 OA
ATOM     11  C   UNL     1      -3.026  13.147  20.211  0.00  0.00    +0.000 C 
ATOM     12  C   UNL     1      -2.560  11.970  19.339  0.00  0.00    +0.000 C 
ATOM     13  C   UNL     1      -0.596  10.457  18.745  0.00  0.00    +0.000 C 
ATOM     14  N   UNL     1       0.859  10.290  18.714  0.00  0.00    +0.000 N 
ENDROOT
BRANCH   9  15
ATOM     15  C   UNL     1      -4.993  13.173  22.502  0.00  0.00    +0.000 C 
ATOM     16  C   UNL     1      -5.726  12.059  21.735  0.00  0.00    +0.000 C 
ATOM     17  C   UNL     1      -7.220  12.363  21.616  0.00  0.00    +0.000 C 
ATOM     18  C   UNL     1      -7.869  12.591  22.982  0.00  0.00    +0.000 C 
ATOM     19  C   UNL     1      -7.133  13.667  23.780  0.00  0.00    +0.000 C 
ATOM     20  C   UNL     1      -5.629  13.401  23.881  0.00  0.00    +0.000 C 
BRANCH  18  21
ATOM     21  O   UNL     1      -7.915  11.374  23.719  0.00  0.00    +0.000 OA
ATOM     22  H   UNL     1      -7.125  10.846  23.514  0.00  0.00    +0.000 HD
ENDBRANCH  18  21
ENDBRANCH   9  15
BRANCH  14  23
ATOM     23  C   UNL     1       1.504   9.035  19.120  0.00  0.00    +0.000 C 
BRANCH  23  24
ATOM     24  C   UNL     1       1.951   8.117  17.980  0.00  0.00    +0.000 C 
BRANCH  24  25
ATOM     25  C   UNL     1       2.623   6.863  18.468  0.00  0.00    +0.000 A 
ATOM     26  C   UNL     1       2.278   6.311  19.711  0.00  0.00    +0.000 A 
ATOM     27  C   UNL     1       2.907   5.142  20.110  0.00  0.00    +0.000 A 
ATOM     28  N   UNL     1       3.838   4.504  19.374  0.00  0.00    +0.000 NA
ATOM     29  C   UNL     1       4.158   5.059  18.185  0.00  0.00    +0.000 A 
ATOM     30  C   UNL     1       3.590   6.224  17.695  0.00  0.00    +0.000 A 
ENDBRANCH  24  25
ENDBRANCH  23  24
ENDBRANCH  14  23
TORSDOF 5
ENDMDL
MODEL 9
REMARK VINA RESULT:      -6.9      1.057      1.088
REMARK  Name = 
REMARK  5 active torsions:
REMARK  status: ('A' for Active; 'I' for Inactive)
REMARK    1  A    between atoms: C_9  and  C_11
REMARK    2  A    between atoms: C_14  and  O_15
REMARK    3  A    between atoms: N_21  and  C_22
REMARK    4  A    between atoms: C_22  and  C_23
REMARK    5  A    between atoms: C_23  and  C_24
REMARK                            x       y       z     vdW  Elec       q    Type
REMARK                         _______ _______ _______ _____ _____    ______ ____
ROOT
ATOM      1  O   UNL     1      -0.795  13.834  20.023  0.00  0.00    +0.000 OA
ATOM      2  C   UNL     1      -0.466  12.653  19.942  0.00  0.00    +0.000 C 
ATOM      3  C   UNL     1       0.936  12.211  20.297  0.00  0.00    +0.000 C 
ATOM      4  C   UNL     1       1.009  10.793  20.826  0.00  0.00    +0.000 C 
ATOM      5  C   UNL     1       0.279   9.783  19.912  0.00  0.00    +0.000 C 
ATOM      6  C   UNL     1       0.882   9.654  18.489  0.00  0.00    +0.000 C 
ATOM      7  C   UNL     1       2.290   9.080  18.515  0.00  0.00    +0.000 C 
ATOM      8  N   UNL     1       2.300   7.788  19.201  0.00  0.00    +0.000 N 
ATOM      9  C   UNL     1       2.705   6.664  18.484  0.00  0.00    +0.000 C 
ATOM     10  O   UNL     1       3.040   6.748  17.297  0.00  0.00    +0.000 OA
ATOM     11  C   UNL     1       1.760   7.810  20.563  0.00  0.00    +0.000 C 
ATOM     12  C   UNL     1       0.331   8.376  20.567  0.00  0.00    +0.000 C 
ATOM     13  C   UNL     1      -1.165  10.282  19.775  0.00  0.00    +0.000 C 
ATOM     14  N   UNL     1      -1.245  11.675  19.329  0.00  0.00    +0.000 N 
ENDROOT
BRANCH   9  15
ATOM     15  C   UNL     1       2.835   5.332  19.214  0.00  0.00    +0.000 C 
ATOM     16  C   UNL     1       1.865   4.293  18.626  0.00  0.00    +0.000 C 
ATOM     17  C   UNL     1       2.051   2.927  19.287  0.00  0.00    +0.000 C 
ATOM     18  C   UNL     1       3.493   2.432  19.183  0.00  0.00    +0.000 C 
ATOM     19  C   UNL     1       4.481   3.465  19.726  0.00  0.00    +0.000 C 
ATOM     20  C   UNL     1       4.289   4.850  19.102  0.00  0.00    +0.000 C 
BRANCH  18  21
ATOM     21  O   UNL     1       3.811   2.106  17.833  0.00  0.00    +0.000 OA
ATOM     22  H   UNL     1       3.770   1.141  17.720  0.00  0.00    +0.000 HD
ENDBRANCH  18  21
ENDBRANCH   9  15
BRANCH  14  23
ATOM     23  C   UNL     1      -2.085  12.079  18.194  0.00  0.00    +0.000 C 
BRANCH  23  24
ATOM     24  C   UNL     1      -2.933  10.970  17.567  0.00  0.00    +0.000 C 
BRANCH  24  25
ATOM     25  C   UNL     1      -4.410  11.208  17.719  0.00  0.00    +0.000 A 
ATOM     26  C   UNL     1      -5.166  10.432  18.611  0.00  0.00    +0.000 A 
ATOM     27  C   UNL     1      -6.520  10.702  18.734  0.00  0.00    +0.000 A 
ATOM     28  N   UNL     1      -7.158  11.666  18.042  0.00  0.00    +0.000 NA
ATOM     29  C   UNL     1      -6.411  12.395  17.185  0.00  0.00    +0.000 A 
ATOM     30  C   UNL     1      -5.052  12.205  16.987  0.00  0.00    +0.000 A 
ENDBRANCH  24  25
ENDBRANCH  23  24
ENDBRANCH  14  23
TORSDOF 5
ENDMDL
