MODEL 1
REMARK VINA RESULT:      -7.9      0.000      0.000
REMARK  Name = 
REMARK  7 active torsions:
REMARK  status: ('A' for Active; 'I' for Inactive)
REMARK    1  A    between atoms: C_1  and  N_2
REMARK    2  A    between atoms: N_2  and  C_3
REMARK    3  A    between atoms: N_2  and  C_4
REMARK    4  A    between atoms: C_7  and  C_8
REMARK    5  A    between atoms: C_8  and  N_9
REMARK    6  A    between atoms: C_8  and  C_20
REMARK    7  A    between atoms: C_21  and  O_22
REMARK                            x       y       z     vdW  Elec       q    Type
REMARK                         _______ _______ _______ _____ _____    ______ ____
ROOT
ATOM      1  C   UNL     1      -0.100  11.321  19.053  0.00  0.00    +0.000 C 
ENDROOT
BRANCH   1   2
ATOM      2  N   UNL     1       0.332  12.556  19.736  0.00  0.00    +0.000 N 
ATOM      3  C   UNL     1       1.523  13.186  19.535  0.00  0.00    +0.000 A 
ATOM      4  N   UNL     1       2.058  13.809  20.556  0.00  0.00    +0.000 NA
ATOM      5  C   UNL     1       3.204  14.500  20.197  0.00  0.00    +0.000 A 
ATOM      6  C   UNL     1       4.017  15.327  21.007  0.00  0.00    +0.000 A 
ATOM      7 CL   UNL     1       3.544  15.493  22.644  0.00  0.00    +0.000 Cl
ATOM      8  C   UNL     1       5.139  15.990  20.505  0.00  0.00    +0.000 A 
ATOM      9  C   UNL     1       5.482  15.825  19.169  0.00  0.00    +0.000 A 
ATOM     10  C   UNL     1       4.716  15.000  18.330  0.00  0.00    +0.000 A 
ATOM     11  C   UNL     1       3.575  14.351  18.860  0.00  0.00    +0.000 A 
ATOM     12  S   UNL     1       2.425  13.307  18.082  0.00  0.00    +0.000 S 
ATOM     13  H   UNL     1       0.252  12.450  20.751  0.00  0.00    +0.000 HD
ENDBRANCH   1   2
BRANCH   1  14
ATOM     14  C   UNL     1       0.348  10.094  19.890  0.00  0.00    +0.000 A 
ATOM     15  C   UNL     1      -0.019   9.967  21.251  0.00  0.00    +0.000 A 
ATOM     16  C   UNL     1       0.466   8.942  22.053  0.00  0.00    +0.000 A 
ATOM     17  C   UNL     1       1.325   8.000  21.521  0.00  0.00    +0.000 A 
ATOM     18  C   UNL     1       1.687   8.041  20.168  0.00  0.00    +0.000 A 
ATOM     19  C   UNL     1       2.547   7.048  19.678  0.00  0.00    +0.000 A 
ATOM     20  C   UNL     1       2.910   7.018  18.336  0.00  0.00    +0.000 A 
ATOM     21  C   UNL     1       2.398   7.971  17.469  0.00  0.00    +0.000 A 
ATOM     22  C   UNL     1       1.555   8.980  17.955  0.00  0.00    +0.000 A 
ATOM     23  C   UNL     1       1.182   9.069  19.318  0.00  0.00    +0.000 A 
BRANCH  15  24
ATOM     24  O   UNL     1      -0.848  10.842  21.904  0.00  0.00    +0.000 OA
ATOM     25  H   UNL     1      -1.262  10.401  22.672  0.00  0.00    +0.000 HD
ENDBRANCH  15  24
ENDBRANCH   1  14
BRANCH   1  29
ATOM     26  C   UNL     1      -4.438  11.297  18.204  0.00  0.00    +0.000 A 
ATOM     27  C   UNL     1      -3.553  10.356  17.657  0.00  0.00    +0.000 A 
ATOM     28  C   UNL     1      -2.173  10.370  17.931  0.00  0.00    +0.000 A 
ATOM     29  C   UNL     1      -1.608  11.323  18.787  0.00  0.00    +0.000 A 
ATOM     30  C   UNL     1      -2.492  12.227  19.389  0.00  0.00    +0.000 A 
ATOM     31  C   UNL     1      -3.869  12.209  19.104  0.00  0.00    +0.000 A 
BRANCH  26  33
ATOM     32  C   UNL     1      -6.389  12.504  17.283  0.00  0.00    +0.000 C 
ATOM     33  N   UNL     1      -5.804  11.319  17.900  0.00  0.00    +0.000 N 
ATOM     34  C   UNL     1      -6.706  10.495  18.704  0.00  0.00    +0.000 C 
ENDBRANCH  26  33
ENDBRANCH   1  29
TORSDOF 5
ENDMDL
MODEL 2
REMARK VINA RESULT:      -7.7      0.627      1.054
REMARK  Name = 
REMARK  7 active torsions:
REMARK  status: ('A' for Active; 'I' for Inactive)
REMARK    1  A    between atoms: C_1  and  N_2
REMARK    2  A    between atoms: N_2  and  C_3
REMARK    3  A    between atoms: N_2  and  C_4
REMARK    4  A    between atoms: C_7  and  C_8
REMARK    5  A    between atoms: C_8  and  N_9
REMARK    6  A    between atoms: C_8  and  C_20
REMARK    7  A    between atoms: C_21  and  O_22
REMARK                            x       y       z     vdW  Elec       q    Type
REMARK                         _______ _______ _______ _____ _____    ______ ____
ROOT
ATOM      1  C   UNL     1       0.429  10.937  19.056  0.00  0.00    +0.000 C 
ENDROOT
BRANCH   1   2
ATOM      2  N   UNL     1       0.835  12.054  19.932  0.00  0.00    +0.000 N 
ATOM      3  C   UNL     1       1.861  12.914  19.679  0.00  0.00    +0.000 A 
ATOM      4  N   UNL     1       2.520  13.388  20.708  0.00  0.00    +0.000 NA
ATOM      5  C   UNL     1       3.460  14.332  20.328  0.00  0.00    +0.000 A 
ATOM      6  C   UNL     1       4.316  15.097  21.156  0.00  0.00    +0.000 A 
ATOM      7 CL   UNL     1       4.194  14.819  22.841  0.00  0.00    +0.000 Cl
ATOM      8  C   UNL     1       5.204  16.042  20.637  0.00  0.00    +0.000 A 
ATOM      9  C   UNL     1       5.264  16.232  19.263  0.00  0.00    +0.000 A 
ATOM     10  C   UNL     1       4.448  15.484  18.400  0.00  0.00    +0.000 A 
ATOM     11  C   UNL     1       3.545  14.543  18.951  0.00  0.00    +0.000 A 
ATOM     12  S   UNL     1       2.399  13.504  18.163  0.00  0.00    +0.000 S 
ATOM     13  H   UNL     1       0.994  11.719  20.886  0.00  0.00    +0.000 HD
ENDBRANCH   1   2
BRANCH   1  14
ATOM     14  C   UNL     1       0.784   9.594  19.745  0.00  0.00    +0.000 A 
ATOM     15  C   UNL     1       0.301   9.288  21.039  0.00  0.00    +0.000 A 
ATOM     16  C   UNL     1       0.700   8.149  21.726  0.00  0.00    +0.000 A 
ATOM     17  C   UNL     1       1.587   7.267  21.138  0.00  0.00    +0.000 A 
ATOM     18  C   UNL     1       2.064   7.487  19.839  0.00  0.00    +0.000 A 
ATOM     19  C   UNL     1       2.948   6.550  19.287  0.00  0.00    +0.000 A 
ATOM     20  C   UNL     1       3.424   6.697  17.989  0.00  0.00    +0.000 A 
ATOM     21  C   UNL     1       3.003   7.775  17.226  0.00  0.00    +0.000 A 
ATOM     22  C   UNL     1       2.136   8.729  17.778  0.00  0.00    +0.000 A 
ATOM     23  C   UNL     1       1.649   8.636  19.105  0.00  0.00    +0.000 A 
BRANCH  15  24
ATOM     24  O   UNL     1      -0.568  10.085  21.738  0.00  0.00    +0.000 OA
ATOM     25  H   UNL     1      -1.062   9.551  22.391  0.00  0.00    +0.000 HD
ENDBRANCH  15  24
ENDBRANCH   1  14
BRANCH   1  29
ATOM     26  C   UNL     1      -3.870  11.216  18.065  0.00  0.00    +0.000 A 
ATOM     27  C   UNL     1      -3.236  12.103  18.947  0.00  0.00    +0.000 A 
ATOM     28  C   UNL     1      -1.868  12.008  19.259  0.00  0.00    +0.000 A 
ATOM     29  C   UNL     1      -1.054  11.024  18.685  0.00  0.00    +0.000 A 
ATOM     30  C   UNL     1      -1.663  10.174  17.753  0.00  0.00    +0.000 A 
ATOM     31  C   UNL     1      -3.033  10.273  17.453  0.00  0.00    +0.000 A 
BRANCH  26  33
ATOM     32  C   UNL     1      -5.792  12.448  17.117  0.00  0.00    +0.000 C 
ATOM     33  N   UNL     1      -5.240  11.275  17.785  0.00  0.00    +0.000 N 
ATOM     34  C   UNL     1      -6.156  10.529  18.649  0.00  0.00    +0.000 C 
ENDBRANCH  26  33
ENDBRANCH   1  29
TORSDOF 5
ENDMDL
MODEL 3
REMARK VINA RESULT:      -7.7      2.690      7.267
REMARK  Name = 
REMARK  7 active torsions:
REMARK  status: ('A' for Active; 'I' for Inactive)
REMARK    1  A    between atoms: C_1  and  N_2
REMARK    2  A    between atoms: N_2  and  C_3
REMARK    3  A    between atoms: N_2  and  C_4
REMARK    4  A    between atoms: C_7  and  C_8
REMARK    5  A    between atoms: C_8  and  N_9
REMARK    6  A    between atoms: C_8  and  C_20
REMARK    7  A    between atoms: C_21  and  O_22
REMARK                            x       y       z     vdW  Elec       q    Type
REMARK                         _______ _______ _______ _____ _____    ______ ____
ROOT
ATOM      1  C   UNL     1       0.086  12.705  20.439  0.00  0.00    +0.000 C 
ENDROOT
BRANCH   1   2
ATOM      2  N   UNL     1      -0.885  12.734  19.327  0.00  0.00    +0.000 N 
ATOM      3  C   UNL     1      -2.220  12.487  19.448  0.00  0.00    +0.000 A 
ATOM      4  N   UNL     1      -2.824  11.919  18.433  0.00  0.00    +0.000 NA
ATOM      5  C   UNL     1      -4.192  11.825  18.634  0.00  0.00    +0.000 A 
ATOM      6  C   UNL     1      -5.174  11.326  17.745  0.00  0.00    +0.000 A 
ATOM      7 CL   UNL     1      -4.612  10.749  16.234  0.00  0.00    +0.000 Cl
ATOM      8  C   UNL     1      -6.533  11.315  18.068  0.00  0.00    +0.000 A 
ATOM      9  C   UNL     1      -6.939  11.795  19.306  0.00  0.00    +0.000 A 
ATOM     10  C   UNL     1      -6.000  12.284  20.227  0.00  0.00    +0.000 A 
ATOM     11  C   UNL     1      -4.629  12.299  19.871  0.00  0.00    +0.000 A 
ATOM     12  S   UNL     1      -3.251  12.860  20.765  0.00  0.00    +0.000 S 
ATOM     13  H   UNL     1      -0.569  12.133  18.561  0.00  0.00    +0.000 HD
ENDBRANCH   1   2
BRANCH   1  14
ATOM     14  C   UNL     1       0.314  11.236  20.878  0.00  0.00    +0.000 A 
ATOM     15  C   UNL     1      -0.020  10.805  22.184  0.00  0.00    +0.000 A 
ATOM     16  C   UNL     1       0.282   9.528  22.640  0.00  0.00    +0.000 A 
ATOM     17  C   UNL     1       0.917   8.632  21.802  0.00  0.00    +0.000 A 
ATOM     18  C   UNL     1       1.229   8.979  20.481  0.00  0.00    +0.000 A 
ATOM     19  C   UNL     1       1.858   8.023  19.672  0.00  0.00    +0.000 A 
ATOM     20  C   UNL     1       2.158   8.300  18.342  0.00  0.00    +0.000 A 
ATOM     21  C   UNL     1       1.813   9.532  17.808  0.00  0.00    +0.000 A 
ATOM     22  C   UNL     1       1.204  10.502  18.616  0.00  0.00    +0.000 A 
ATOM     23  C   UNL     1       0.907  10.276  19.982  0.00  0.00    +0.000 A 
BRANCH  15  24
ATOM     24  O   UNL     1      -0.635  11.600  23.116  0.00  0.00    +0.000 OA
ATOM     25  H   UNL     1      -0.240  12.493  23.108  0.00  0.00    +0.000 HD
ENDBRANCH  15  24
ENDBRANCH   1  14
BRANCH   1  29
ATOM     26  C   UNL     1       3.850  14.706  19.266  0.00  0.00    +0.000 A 
ATOM     27  C   UNL     1       2.741  14.615  18.412  0.00  0.00    +0.000 A 
ATOM     28  C   UNL     1       1.546  13.976  18.791  0.00  0.00    +0.000 A 
ATOM     29  C   UNL     1       1.393  13.407  20.061  0.00  0.00    +0.000 A 
ATOM     30  C   UNL     1       2.471  13.549  20.944  0.00  0.00    +0.000 A 
ATOM     31  C   UNL     1       3.664  14.184  20.554  0.00  0.00    +0.000 A 
BRANCH  26  33
ATOM     32  C   UNL     1       5.212  16.746  18.967  0.00  0.00    +0.000 C 
ATOM     33  N   UNL     1       5.057  15.298  18.881  0.00  0.00    +0.000 N 
ATOM     34  C   UNL     1       5.874  14.617  17.876  0.00  0.00    +0.000 C 
ENDBRANCH  26  33
ENDBRANCH   1  29
TORSDOF 5
ENDMDL
MODEL 4
REMARK VINA RESULT:      -7.6      0.304      1.084
REMARK  Name = 
REMARK  7 active torsions:
REMARK  status: ('A' for Active; 'I' for Inactive)
REMARK    1  A    between atoms: C_1  and  N_2
REMARK    2  A    between atoms: N_2  and  C_3
REMARK    3  A    between atoms: N_2  and  C_4
REMARK    4  A    between atoms: C_7  and  C_8
REMARK    5  A    between atoms: C_8  and  N_9
REMARK    6  A    between atoms: C_8  and  C_20
REMARK    7  A    between atoms: C_21  and  O_22
REMARK                            x       y       z     vdW  Elec       q    Type
REMARK                         _______ _______ _______ _____ _____    ______ ____
ROOT
ATOM      1  C   UNL     1      -0.204  11.539  19.177  0.00  0.00    +0.000 C 
ENDROOT
BRANCH   1   2
ATOM      2  N   UNL     1       0.264  12.777  19.832  0.00  0.00    +0.000 N 
ATOM      3  C   UNL     1       1.482  13.354  19.633  0.00  0.00    +0.000 A 
ATOM      4  N   UNL     1       2.025  13.986  20.645  0.00  0.00    +0.000 NA
ATOM      5  C   UNL     1       3.202  14.623  20.285  0.00  0.00    +0.000 A 
ATOM      6  C   UNL     1       4.033  15.441  21.086  0.00  0.00    +0.000 A 
ATOM      7 CL   UNL     1       3.541  15.671  22.709  0.00  0.00    +0.000 Cl
ATOM      8  C   UNL     1       5.187  16.047  20.583  0.00  0.00    +0.000 A 
ATOM      9  C   UNL     1       5.543  15.831  19.258  0.00  0.00    +0.000 A 
ATOM     10  C   UNL     1       4.760  15.013  18.430  0.00  0.00    +0.000 A 
ATOM     11  C   UNL     1       3.586  14.422  18.959  0.00  0.00    +0.000 A 
ATOM     12  S   UNL     1       2.410  13.401  18.192  0.00  0.00    +0.000 S 
ATOM     13  H   UNL     1       0.165  12.702  20.848  0.00  0.00    +0.000 HD
ENDBRANCH   1   2
BRANCH   1  14
ATOM     14  C   UNL     1       0.243  10.317  20.020  0.00  0.00    +0.000 A 
ATOM     15  C   UNL     1      -0.082  10.220  21.394  0.00  0.00    +0.000 A 
ATOM     16  C   UNL     1       0.406   9.198  22.198  0.00  0.00    +0.000 A 
ATOM     17  C   UNL     1       1.227   8.228  21.655  0.00  0.00    +0.000 A 
ATOM     18  C   UNL     1       1.545   8.239  20.291  0.00  0.00    +0.000 A 
ATOM     19  C   UNL     1       2.368   7.219  19.791  0.00  0.00    +0.000 A 
ATOM     20  C   UNL     1       2.687   7.159  18.438  0.00  0.00    +0.000 A 
ATOM     21  C   UNL     1       2.168   8.109  17.572  0.00  0.00    +0.000 A 
ATOM     22  C   UNL     1       1.363   9.144  18.067  0.00  0.00    +0.000 A 
ATOM     23  C   UNL     1       1.036   9.263  19.440  0.00  0.00    +0.000 A 
BRANCH  15  24
ATOM     24  O   UNL     1      -0.870  11.124  22.058  0.00  0.00    +0.000 OA
ATOM     25  H   UNL     1      -0.491  11.316  22.938  0.00  0.00    +0.000 HD
ENDBRANCH  15  24
ENDBRANCH   1  14
BRANCH   1  29
ATOM     26  C   UNL     1      -4.585  11.627  18.597  0.00  0.00    +0.000 A 
ATOM     27  C   UNL     1      -3.923  12.472  19.500  0.00  0.00    +0.000 A 
ATOM     28  C   UNL     1      -2.528  12.438  19.680  0.00  0.00    +0.000 A 
ATOM     29  C   UNL     1      -1.717  11.563  18.947  0.00  0.00    +0.000 A 
ATOM     30  C   UNL     1      -2.362  10.761  17.997  0.00  0.00    +0.000 A 
ATOM     31  C   UNL     1      -3.757  10.797  17.828  0.00  0.00    +0.000 A 
BRANCH  26  33
ATOM     32  C   UNL     1      -6.740  10.437  18.820  0.00  0.00    +0.000 C 
ATOM     33  N   UNL     1      -5.976  11.622  18.445  0.00  0.00    +0.000 N 
ATOM     34  C   UNL     1      -6.563  12.471  17.409  0.00  0.00    +0.000 C 
ENDBRANCH  26  33
ENDBRANCH   1  29
TORSDOF 5
ENDMDL
MODEL 5
REMARK VINA RESULT:      -7.5      1.237      2.446
REMARK  Name = 
REMARK  7 active torsions:
REMARK  status: ('A' for Active; 'I' for Inactive)
REMARK    1  A    between atoms: C_1  and  N_2
REMARK    2  A    between atoms: N_2  and  C_3
REMARK    3  A    between atoms: N_2  and  C_4
REMARK    4  A    between atoms: C_7  and  C_8
REMARK    5  A    between atoms: C_8  and  N_9
REMARK    6  A    between atoms: C_8  and  C_20
REMARK    7  A    between atoms: C_21  and  O_22
REMARK                            x       y       z     vdW  Elec       q    Type
REMARK                         _______ _______ _______ _____ _____    ______ ____
ROOT
ATOM      1  C   UNL     1      -0.297  11.709  18.553  0.00  0.00    +0.000 C 
ENDROOT
BRANCH   1   2
ATOM      2  N   UNL     1       0.068  12.982  19.205  0.00  0.00    +0.000 N 
ATOM      3  C   UNL     1       1.328  13.500  19.259  0.00  0.00    +0.000 A 
ATOM      4  N   UNL     1       1.649  14.198  20.320  0.00  0.00    +0.000 NA
ATOM      5  C   UNL     1       2.910  14.762  20.205  0.00  0.00    +0.000 A 
ATOM      6  C   UNL     1       3.571  15.618  21.116  0.00  0.00    +0.000 A 
ATOM      7 CL   UNL     1       2.724  16.003  22.553  0.00  0.00    +0.000 Cl
ATOM      8  C   UNL     1       4.841  16.140  20.860  0.00  0.00    +0.000 A 
ATOM      9  C   UNL     1       5.488  15.799  19.678  0.00  0.00    +0.000 A 
ATOM     10  C   UNL     1       4.879  14.939  18.752  0.00  0.00    +0.000 A 
ATOM     11  C   UNL     1       3.584  14.435  19.028  0.00  0.00    +0.000 A 
ATOM     12  S   UNL     1       2.569  13.391  18.082  0.00  0.00    +0.000 S 
ATOM     13  H   UNL     1      -0.271  12.998  20.170  0.00  0.00    +0.000 HD
ENDBRANCH   1   2
BRANCH   1  14
ATOM     14  C   UNL     1       0.398  10.539  19.296  0.00  0.00    +0.000 A 
ATOM     15  C   UNL     1       1.279   9.663  18.616  0.00  0.00    +0.000 A 
ATOM     16  C   UNL     1       1.820   8.540  19.227  0.00  0.00    +0.000 A 
ATOM     17  C   UNL     1       1.512   8.258  20.544  0.00  0.00    +0.000 A 
ATOM     18  C   UNL     1       0.687   9.112  21.288  0.00  0.00    +0.000 A 
ATOM     19  C   UNL     1       0.422   8.784  22.625  0.00  0.00    +0.000 A 
ATOM     20  C   UNL     1      -0.360   9.615  23.421  0.00  0.00    +0.000 A 
ATOM     21  C   UNL     1      -0.867  10.789  22.889  0.00  0.00    +0.000 A 
ATOM     22  C   UNL     1      -0.626  11.113  21.547  0.00  0.00    +0.000 A 
ATOM     23  C   UNL     1       0.139  10.285  20.690  0.00  0.00    +0.000 A 
BRANCH  15  24
ATOM     24  O   UNL     1       1.651   9.820  17.306  0.00  0.00    +0.000 OA
ATOM     25  H   UNL     1       2.621   9.925  17.244  0.00  0.00    +0.000 HD
ENDBRANCH  15  24
ENDBRANCH   1  14
BRANCH   1  29
ATOM     26  C   UNL     1      -4.674  11.166  18.260  0.00  0.00    +0.000 A 
ATOM     27  C   UNL     1      -3.761  10.352  17.573  0.00  0.00    +0.000 A 
ATOM     28  C   UNL     1      -2.369  10.531  17.670  0.00  0.00    +0.000 A 
ATOM     29  C   UNL     1      -1.815  11.529  18.480  0.00  0.00    +0.000 A 
ATOM     30  C   UNL     1      -2.716  12.306  19.220  0.00  0.00    +0.000 A 
ATOM     31  C   UNL     1      -4.106  12.123  19.112  0.00  0.00    +0.000 A 
BRANCH  26  33
ATOM     32  C   UNL     1      -6.852  12.121  17.586  0.00  0.00    +0.000 C 
ATOM     33  N   UNL     1      -6.060  11.025  18.133  0.00  0.00    +0.000 N 
ATOM     34  C   UNL     1      -6.752  10.122  19.053  0.00  0.00    +0.000 C 
ENDBRANCH  26  33
ENDBRANCH   1  29
TORSDOF 5
ENDMDL
MODEL 6
REMARK VINA RESULT:      -7.4      2.881      7.301
REMARK  Name = 
REMARK  7 active torsions:
REMARK  status: ('A' for Active; 'I' for Inactive)
REMARK    1  A    between atoms: C_1  and  N_2
REMARK    2  A    between atoms: N_2  and  C_3
REMARK    3  A    between atoms: N_2  and  C_4
REMARK    4  A    between atoms: C_7  and  C_8
REMARK    5  A    between atoms: C_8  and  N_9
REMARK    6  A    between atoms: C_8  and  C_20
REMARK    7  A    between atoms: C_21  and  O_22
REMARK                            x       y       z     vdW  Elec       q    Type
REMARK                         _______ _______ _______ _____ _____    ______ ____
ROOT
ATOM      1  C   UNL     1      -0.242  12.718  20.777  0.00  0.00    +0.000 C 
ENDROOT
BRANCH   1   2
ATOM      2  N   UNL     1      -1.391  12.808  19.853  0.00  0.00    +0.000 N 
ATOM      3  C   UNL     1      -2.699  12.713  20.222  0.00  0.00    +0.000 A 
ATOM      4  N   UNL     1      -3.531  12.173  19.364  0.00  0.00    +0.000 NA
ATOM      5  C   UNL     1      -4.842  12.237  19.807  0.00  0.00    +0.000 A 
ATOM      6  C   UNL     1      -6.014  11.812  19.136  0.00  0.00    +0.000 A 
ATOM      7 CL   UNL     1      -5.795  11.118  17.587  0.00  0.00    +0.000 Cl
ATOM      8  C   UNL     1      -7.286  11.962  19.692  0.00  0.00    +0.000 A 
ATOM      9  C   UNL     1      -7.411  12.533  20.953  0.00  0.00    +0.000 A 
ATOM     10  C   UNL     1      -6.277  12.953  21.664  0.00  0.00    +0.000 A 
ATOM     11  C   UNL     1      -4.999  12.804  21.072  0.00  0.00    +0.000 A 
ATOM     12  S   UNL     1      -3.432  13.248  21.675  0.00  0.00    +0.000 S 
ATOM     13  H   UNL     1      -1.280  12.146  19.081  0.00  0.00    +0.000 HD
ENDBRANCH   1   2
BRANCH   1  14
ATOM     14  C   UNL     1       0.055  11.226  21.075  0.00  0.00    +0.000 A 
ATOM     15  C   UNL     1      -0.246  10.660  22.337  0.00  0.00    +0.000 A 
ATOM     16  C   UNL     1       0.117   9.362  22.671  0.00  0.00    +0.000 A 
ATOM     17  C   UNL     1       0.784   8.578  21.750  0.00  0.00    +0.000 A 
ATOM     18  C   UNL     1       1.068   9.060  20.466  0.00  0.00    +0.000 A 
ATOM     19  C   UNL     1       1.732   8.213  19.567  0.00  0.00    +0.000 A 
ATOM     20  C   UNL     1       2.006   8.627  18.268  0.00  0.00    +0.000 A 
ATOM     21  C   UNL     1       1.602   9.886  17.853  0.00  0.00    +0.000 A 
ATOM     22  C   UNL     1       0.957  10.747  18.751  0.00  0.00    +0.000 A 
ATOM     23  C   UNL     1       0.683  10.381  20.091  0.00  0.00    +0.000 A 
BRANCH  15  24
ATOM     24  O   UNL     1      -0.888  11.336  23.343  0.00  0.00    +0.000 OA
ATOM     25  H   UNL     1      -0.631  10.968  24.211  0.00  0.00    +0.000 HD
ENDBRANCH  15  24
ENDBRANCH   1  14
BRANCH   1  29
ATOM     26  C   UNL     1       3.260  14.832  19.102  0.00  0.00    +0.000 A 
ATOM     27  C   UNL     1       1.986  14.896  18.520  0.00  0.00    +0.000 A 
ATOM     28  C   UNL     1       0.876  14.220  19.057  0.00  0.00    +0.000 A 
ATOM     29  C   UNL     1       0.981  13.455  20.225  0.00  0.00    +0.000 A 
ATOM     30  C   UNL     1       2.235  13.437  20.850  0.00  0.00    +0.000 A 
ATOM     31  C   UNL     1       3.340  14.111  20.302  0.00  0.00    +0.000 A 
BRANCH  26  33
ATOM     32  C   UNL     1       5.418  14.664  17.909  0.00  0.00    +0.000 C 
ATOM     33  N   UNL     1       4.380  15.463  18.548  0.00  0.00    +0.000 N 
ATOM     34  C   UNL     1       4.803  16.744  19.114  0.00  0.00    +0.000 C 
ENDBRANCH  26  33
ENDBRANCH   1  29
TORSDOF 5
ENDMDL
MODEL 7
REMARK VINA RESULT:      -7.4      0.946      1.274
REMARK  Name = 
REMARK  7 active torsions:
REMARK  status: ('A' for Active; 'I' for Inactive)
REMARK    1  A    between atoms: C_1  and  N_2
REMARK    2  A    between atoms: N_2  and  C_3
REMARK    3  A    between atoms: N_2  and  C_4
REMARK    4  A    between atoms: C_7  and  C_8
REMARK    5  A    between atoms: C_8  and  N_9
REMARK    6  A    between atoms: C_8  and  C_20
REMARK    7  A    between atoms: C_21  and  O_22
REMARK                            x       y       z     vdW  Elec       q    Type
REMARK                         _______ _______ _______ _____ _____    ______ ____
ROOT
ATOM      1  C   UNL     1      -0.433  11.923  19.382  0.00  0.00    +0.000 C 
ENDROOT
BRANCH   1   2
ATOM      2  N   UNL     1      -0.172  13.178  20.115  0.00  0.00    +0.000 N 
ATOM      3  C   UNL     1       0.937  13.955  19.966  0.00  0.00    +0.000 A 
ATOM      4  N   UNL     1       1.367  14.604  21.020  0.00  0.00    +0.000 NA
ATOM      5  C   UNL     1       2.427  15.442  20.713  0.00  0.00    +0.000 A 
ATOM      6  C   UNL     1       3.113  16.335  21.571  0.00  0.00    +0.000 A 
ATOM      7 CL   UNL     1       2.586  16.383  23.199  0.00  0.00    +0.000 Cl
ATOM      8  C   UNL     1       4.155  17.148  21.120  0.00  0.00    +0.000 A 
ATOM      9  C   UNL     1       4.545  17.073  19.789  0.00  0.00    +0.000 A 
ATOM     10  C   UNL     1       3.906  16.190  18.904  0.00  0.00    +0.000 A 
ATOM     11  C   UNL     1       2.842  15.387  19.382  0.00  0.00    +0.000 A 
ATOM     12  S   UNL     1       1.848  14.237  18.542  0.00  0.00    +0.000 S 
ATOM     13  H   UNL     1      -0.261  13.027  21.124  0.00  0.00    +0.000 HD
ENDBRANCH   1   2
BRANCH   1  14
ATOM     14  C   UNL     1       0.046  10.724  20.241  0.00  0.00    +0.000 A 
ATOM     15  C   UNL     1      -0.212  10.673  21.632  0.00  0.00    +0.000 A 
ATOM     16  C   UNL     1       0.306   9.673  22.443  0.00  0.00    +0.000 A 
ATOM     17  C   UNL     1       1.092   8.679  21.892  0.00  0.00    +0.000 A 
ATOM     18  C   UNL     1       1.344   8.643  20.514  0.00  0.00    +0.000 A 
ATOM     19  C   UNL     1       2.133   7.601  20.008  0.00  0.00    +0.000 A 
ATOM     20  C   UNL     1       2.385   7.494  18.644  0.00  0.00    +0.000 A 
ATOM     21  C   UNL     1       1.832   8.421  17.774  0.00  0.00    +0.000 A 
ATOM     22  C   UNL     1       1.060   9.479  18.274  0.00  0.00    +0.000 A 
ATOM     23  C   UNL     1       0.801   9.645  19.657  0.00  0.00    +0.000 A 
BRANCH  15  24
ATOM     24  O   UNL     1      -0.960  11.605  22.304  0.00  0.00    +0.000 OA
ATOM     25  H   UNL     1      -1.796  11.772  21.825  0.00  0.00    +0.000 HD
ENDBRANCH  15  24
ENDBRANCH   1  14
BRANCH   1  29
ATOM     26  C   UNL     1      -4.708  11.571  18.315  0.00  0.00    +0.000 A 
ATOM     27  C   UNL     1      -4.258  12.329  19.406  0.00  0.00    +0.000 A 
ATOM     28  C   UNL     1      -2.896  12.437  19.740  0.00  0.00    +0.000 A 
ATOM     29  C   UNL     1      -1.905  11.800  18.983  0.00  0.00    +0.000 A 
ATOM     30  C   UNL     1      -2.338  11.093  17.854  0.00  0.00    +0.000 A 
ATOM     31  C   UNL     1      -3.703  10.987  17.531  0.00  0.00    +0.000 A 
BRANCH  26  33
ATOM     32  C   UNL     1      -6.803  12.544  17.437  0.00  0.00    +0.000 C 
ATOM     33  N   UNL     1      -6.063  11.422  18.003  0.00  0.00    +0.000 N 
ATOM     34  C   UNL     1      -6.846  10.446  18.761  0.00  0.00    +0.000 C 
ENDBRANCH  26  33
ENDBRANCH   1  29
TORSDOF 5
ENDMDL
MODEL 8
REMARK VINA RESULT:      -7.4      1.767      2.011
REMARK  Name = 
REMARK  7 active torsions:
REMARK  status: ('A' for Active; 'I' for Inactive)
REMARK    1  A    between atoms: C_1  and  N_2
REMARK    2  A    between atoms: N_2  and  C_3
REMARK    3  A    between atoms: N_2  and  C_4
REMARK    4  A    between atoms: C_7  and  C_8
REMARK    5  A    between atoms: C_8  and  N_9
REMARK    6  A    between atoms: C_8  and  C_20
REMARK    7  A    between atoms: C_21  and  O_22
REMARK                            x       y       z     vdW  Elec       q    Type
REMARK                         _______ _______ _______ _____ _____    ______ ____
ROOT
ATOM      1  C   UNL     1      -0.310  11.746  19.711  0.00  0.00    +0.000 C 
ENDROOT
BRANCH   1   2
ATOM      2  N   UNL     1      -0.120  12.840  20.684  0.00  0.00    +0.000 N 
ATOM      3  C   UNL     1       0.317  14.094  20.376  0.00  0.00    +0.000 A 
ATOM      4  N   UNL     1       1.033  14.723  21.276  0.00  0.00    +0.000 NA
ATOM      5  C   UNL     1       1.319  16.023  20.891  0.00  0.00    +0.000 A 
ATOM      6  C   UNL     1       2.016  17.017  21.619  0.00  0.00    +0.000 A 
ATOM      7 CL   UNL     1       2.598  16.563  23.164  0.00  0.00    +0.000 Cl
ATOM      8  C   UNL     1       2.211  18.306  21.119  0.00  0.00    +0.000 A 
ATOM      9  C   UNL     1       1.719  18.626  19.860  0.00  0.00    +0.000 A 
ATOM     10  C   UNL     1       1.036  17.668  19.093  0.00  0.00    +0.000 A 
ATOM     11  C   UNL     1       0.838  16.372  19.629  0.00  0.00    +0.000 A 
ATOM     12  S   UNL     1       0.020  14.999  18.951  0.00  0.00    +0.000 S 
ATOM     13  H   UNL     1       0.475  12.531  21.457  0.00  0.00    +0.000 HD
ENDBRANCH   1   2
BRANCH   1  14
ATOM     14  C   UNL     1       0.122  10.406  20.362  0.00  0.00    +0.000 A 
ATOM     15  C   UNL     1      -0.224  10.101  21.700  0.00  0.00    +0.000 A 
ATOM     16  C   UNL     1       0.248   8.965  22.344  0.00  0.00    +0.000 A 
ATOM     17  C   UNL     1       1.074   8.086  21.669  0.00  0.00    +0.000 A 
ATOM     18  C   UNL     1       1.413   8.304  20.328  0.00  0.00    +0.000 A 
ATOM     19  C   UNL     1       2.240   7.370  19.689  0.00  0.00    +0.000 A 
ATOM     20  C   UNL     1       2.578   7.516  18.348  0.00  0.00    +0.000 A 
ATOM     21  C   UNL     1       2.076   8.591  17.631  0.00  0.00    +0.000 A 
ATOM     22  C   UNL     1       1.267   9.542  18.267  0.00  0.00    +0.000 A 
ATOM     23  C   UNL     1       0.919   9.451  19.638  0.00  0.00    +0.000 A 
BRANCH  15  24
ATOM     24  O   UNL     1      -1.020  10.896  22.484  0.00  0.00    +0.000 OA
ATOM     25  H   UNL     1      -1.962  10.721  22.291  0.00  0.00    +0.000 HD
ENDBRANCH  15  24
ENDBRANCH   1  14
BRANCH   1  29
ATOM     26  C   UNL     1      -4.491  11.618  18.284  0.00  0.00    +0.000 A 
ATOM     27  C   UNL     1      -4.105  12.312  19.440  0.00  0.00    +0.000 A 
ATOM     28  C   UNL     1      -2.773  12.349  19.889  0.00  0.00    +0.000 A 
ATOM     29  C   UNL     1      -1.747  11.701  19.188  0.00  0.00    +0.000 A 
ATOM     30  C   UNL     1      -2.112  11.059  17.998  0.00  0.00    +0.000 A 
ATOM     31  C   UNL     1      -3.448  11.023  17.561  0.00  0.00    +0.000 A 
BRANCH  26  33
ATOM     32  C   UNL     1      -6.430  12.674  17.174  0.00  0.00    +0.000 C 
ATOM     33  N   UNL     1      -5.821  11.538  17.856  0.00  0.00    +0.000 N 
ATOM     34  C   UNL     1      -6.731  10.654  18.584  0.00  0.00    +0.000 C 
ENDBRANCH  26  33
ENDBRANCH   1  29
TORSDOF 5
ENDMDL
MODEL 9
REMARK VINA RESULT:      -7.2      1.241      2.663
REMARK  Name = 
REMARK  7 active torsions:
REMARK  status: ('A' for Active; 'I' for Inactive)
REMARK    1  A    between atoms: C_1  and  N_2
REMARK    2  A    between atoms: N_2  and  C_3
REMARK    3  A    between atoms: N_2  and  C_4
REMARK    4  A    between atoms: C_7  and  C_8
REMARK    5  A    between atoms: C_8  and  N_9
REMARK    6  A    between atoms: C_8  and  C_20
REMARK    7  A    between atoms: C_21  and  O_22
REMARK                            x       y       z     vdW  Elec       q    Type
REMARK                         _______ _______ _______ _____ _____    ______ ____
ROOT
ATOM      1  C   UNL     1      -0.331  11.727  18.582  0.00  0.00    +0.000 C 
ENDROOT
BRANCH   1   2
ATOM      2  N   UNL     1       0.079  12.997  19.214  0.00  0.00    +0.000 N 
ATOM      3  C   UNL     1       1.348  13.492  19.223  0.00  0.00    +0.000 A 
ATOM      4  N   UNL     1       1.718  14.190  20.269  0.00  0.00    +0.000 NA
ATOM      5  C   UNL     1       2.984  14.730  20.107  0.00  0.00    +0.000 A 
ATOM      6  C   UNL     1       3.692  15.580  20.991  0.00  0.00    +0.000 A 
ATOM      7 CL   UNL     1       2.901  15.987  22.454  0.00  0.00    +0.000 Cl
ATOM      8  C   UNL     1       4.961  16.077  20.688  0.00  0.00    +0.000 A 
ATOM      9  C   UNL     1       5.560  15.719  19.488  0.00  0.00    +0.000 A 
ATOM     10  C   UNL     1       4.905  14.865  18.587  0.00  0.00    +0.000 A 
ATOM     11  C   UNL     1       3.612  14.385  18.911  0.00  0.00    +0.000 A 
ATOM     12  S   UNL     1       2.547  13.355  18.006  0.00  0.00    +0.000 S 
ATOM     13  H   UNL     1      -0.227  13.024  20.191  0.00  0.00    +0.000 HD
ENDBRANCH   1   2
BRANCH   1  14
ATOM     14  C   UNL     1       0.361  10.548  19.314  0.00  0.00    +0.000 A 
ATOM     15  C   UNL     1       1.229   9.669  18.622  0.00  0.00    +0.000 A 
ATOM     16  C   UNL     1       1.767   8.539  19.223  0.00  0.00    +0.000 A 
ATOM     17  C   UNL     1       1.467   8.252  20.541  0.00  0.00    +0.000 A 
ATOM     18  C   UNL     1       0.656   9.109  21.296  0.00  0.00    +0.000 A 
ATOM     19  C   UNL     1       0.400   8.777  22.634  0.00  0.00    +0.000 A 
ATOM     20  C   UNL     1      -0.369   9.609  23.440  0.00  0.00    +0.000 A 
ATOM     21  C   UNL     1      -0.872  10.790  22.918  0.00  0.00    +0.000 A 
ATOM     22  C   UNL     1      -0.639  11.119  21.576  0.00  0.00    +0.000 A 
ATOM     23  C   UNL     1       0.112  10.289  20.708  0.00  0.00    +0.000 A 
BRANCH  15  24
ATOM     24  O   UNL     1       1.592   9.830  17.310  0.00  0.00    +0.000 OA
ATOM     25  H   UNL     1       2.214   9.124  17.046  0.00  0.00    +0.000 HD
ENDBRANCH  15  24
ENDBRANCH   1  14
BRANCH   1  29
ATOM     26  C   UNL     1      -4.733  11.326  18.587  0.00  0.00    +0.000 A 
ATOM     27  C   UNL     1      -4.061  12.315  19.319  0.00  0.00    +0.000 A 
ATOM     28  C   UNL     1      -2.660  12.437  19.314  0.00  0.00    +0.000 A 
ATOM     29  C   UNL     1      -1.854  11.579  18.555  0.00  0.00    +0.000 A 
ATOM     30  C   UNL     1      -2.519  10.629  17.770  0.00  0.00    +0.000 A 
ATOM     31  C   UNL     1      -3.920  10.511  17.786  0.00  0.00    +0.000 A 
BRANCH  26  33
ATOM     32  C   UNL     1      -6.695   9.869  18.953  0.00  0.00    +0.000 C 
ATOM     33  N   UNL     1      -6.123  11.169  18.623  0.00  0.00    +0.000 N 
ATOM     34  C   UNL     1      -6.941  12.043  17.782  0.00  0.00    +0.000 C 
ENDBRANCH  26  33
ENDBRANCH   1  29
TORSDOF 5
ENDMDL
