MODEL 1
REMARK VINA RESULT:      -7.9      0.000      0.000
REMARK  Name = 
REMARK  11 active torsions:
REMARK  status: ('A' for Active; 'I' for Inactive)
REMARK    1  A    between atoms: C_1  and  C_2
REMARK    2  A    between atoms: C_2  and  C_3
REMARK    3  A    between atoms: C_2  and  N_16
REMARK    4  A    between atoms: C_3  and  C_4
REMARK    5  A    between atoms: C_4  and  C_5
REMARK    6  A    between atoms: C_5  and  O_6
REMARK    7  A    between atoms: O_6  and  C_7
REMARK    8  A    between atoms: C_12  and  C_13
REMARK    9  A    between atoms: N_16  and  C_17
REMARK   10  A    between atoms: C_17  and  C_18
REMARK   11  A    between atoms: C_17  and  C_26
REMARK                            x       y       z     vdW  Elec       q    Type
REMARK                         _______ _______ _______ _____ _____    ______ ____
ROOT
ATOM      1  C   UNL     1       7.950   5.856  19.444  0.00  0.00    +0.000 C 
ATOM      2  C   UNL     1       7.239   6.222  18.134  0.00  0.00    +0.000 C 
ENDROOT
BRANCH   2   3
ATOM      3  N   UNL     1       7.345   5.181  17.089  0.00  0.00    +0.000 NA
ATOM      4  H   UNL     1       7.874   4.393  17.461  0.00  0.00    +0.000 HD
BRANCH   3   5
ATOM      5  C   UNL     1       6.044   4.665  16.613  0.00  0.00    +0.000 C 
BRANCH   5   6
ATOM      6  C   UNL     1       4.873   5.159  17.442  0.00  0.00    +0.000 A 
ATOM      7  C   UNL     1       4.144   6.309  17.086  0.00  0.00    +0.000 A 
ATOM      8  C   UNL     1       3.243   6.867  17.987  0.00  0.00    +0.000 A 
ATOM      9  F   UNL     1       2.646   8.028  17.687  0.00  0.00    +0.000 F 
ATOM     10  C   UNL     1       2.994   6.268  19.216  0.00  0.00    +0.000 A 
ATOM     11  C   UNL     1       3.629   5.069  19.535  0.00  0.00    +0.000 A 
ATOM     12  C   UNL     1       4.556   4.523  18.647  0.00  0.00    +0.000 A 
ATOM     13  F   UNL     1       5.183   3.389  18.992  0.00  0.00    +0.000 F 
ENDBRANCH   5   6
BRANCH   5  14
ATOM     14  C   UNL     1       5.838   5.033  15.159  0.00  0.00    +0.000 C 
ATOM     15  C   UNL     1       6.892   4.816  14.093  0.00  0.00    +0.000 C 
ATOM     16  C   UNL     1       5.699   3.911  14.150  0.00  0.00    +0.000 C 
ENDBRANCH   5  14
ENDBRANCH   3   5
ENDBRANCH   2   3
BRANCH   2  17
ATOM     17  C   UNL     1       7.802   7.564  17.608  0.00  0.00    +0.000 C 
BRANCH  17  18
ATOM     18  C   UNL     1       8.560   8.431  18.632  0.00  0.00    +0.000 C 
BRANCH  18  19
ATOM     19  C   UNL     1       8.693   9.881  18.174  0.00  0.00    +0.000 C 
BRANCH  19  20
ATOM     20  O   UNL     1       8.779  10.788  19.287  0.00  0.00    +0.000 OA
BRANCH  20  21
ATOM     21  C   UNL     1       9.840  11.673  19.200  0.00  0.00    +0.000 A 
ATOM     22  C   UNL     1      11.136  11.307  19.629  0.00  0.00    +0.000 A 
ATOM     23  C   UNL     1      12.204  12.202  19.578  0.00  0.00    +0.000 A 
ATOM     24  C   UNL     1      12.012  13.471  19.058  0.00  0.00    +0.000 A 
ATOM     25  C   UNL     1      10.752  13.842  18.588  0.00  0.00    +0.000 A 
ATOM     26  C   UNL     1       9.653  12.958  18.652  0.00  0.00    +0.000 A 
BRANCH  26  27
ATOM     27  C   UNL     1       8.365  13.519  18.139  0.00  0.00    +0.000 C 
ATOM     28  N   UNL     1       7.833  12.996  16.996  0.00  0.00    +0.000 N 
ATOM     29  O   UNL     1       7.784  14.440  18.707  0.00  0.00    +0.000 OA
ATOM     30  H   UNL     1       8.275  12.231  16.503  0.00  0.00    +0.000 HD
ATOM     31  H   UNL     1       6.955  13.373  16.669  0.00  0.00    +0.000 HD
ENDBRANCH  26  27
ENDBRANCH  20  21
ENDBRANCH  19  20
ENDBRANCH  18  19
ENDBRANCH  17  18
ENDBRANCH   2  17
TORSDOF 10
ENDMDL
MODEL 2
REMARK VINA RESULT:      -7.8      1.972      2.674
REMARK  Name = 
REMARK  11 active torsions:
REMARK  status: ('A' for Active; 'I' for Inactive)
REMARK    1  A    between atoms: C_1  and  C_2
REMARK    2  A    between atoms: C_2  and  C_3
REMARK    3  A    between atoms: C_2  and  N_16
REMARK    4  A    between atoms: C_3  and  C_4
REMARK    5  A    between atoms: C_4  and  C_5
REMARK    6  A    between atoms: C_5  and  O_6
REMARK    7  A    between atoms: O_6  and  C_7
REMARK    8  A    between atoms: C_12  and  C_13
REMARK    9  A    between atoms: N_16  and  C_17
REMARK   10  A    between atoms: C_17  and  C_18
REMARK   11  A    between atoms: C_17  and  C_26
REMARK                            x       y       z     vdW  Elec       q    Type
REMARK                         _______ _______ _______ _____ _____    ______ ____
ROOT
ATOM      1  C   UNL     1       8.072   4.793  18.280  0.00  0.00    +0.000 C 
ATOM      2  C   UNL     1       7.292   6.027  18.756  0.00  0.00    +0.000 C 
ENDROOT
BRANCH   2   3
ATOM      3  N   UNL     1       5.995   6.210  18.073  0.00  0.00    +0.000 NA
ATOM      4  H   UNL     1       6.068   6.997  17.429  0.00  0.00    +0.000 HD
BRANCH   3   5
ATOM      5  C   UNL     1       5.547   5.034  17.296  0.00  0.00    +0.000 C 
BRANCH   5   6
ATOM      6  C   UNL     1       4.209   4.491  17.764  0.00  0.00    +0.000 A 
ATOM      7  C   UNL     1       4.048   3.151  18.157  0.00  0.00    +0.000 A 
ATOM      8  C   UNL     1       2.772   2.630  18.346  0.00  0.00    +0.000 A 
ATOM      9  F   UNL     1       2.626   1.323  18.600  0.00  0.00    +0.000 F 
ATOM     10  C   UNL     1       1.644   3.433  18.219  0.00  0.00    +0.000 A 
ATOM     11  C   UNL     1       1.798   4.788  17.937  0.00  0.00    +0.000 A 
ATOM     12  C   UNL     1       3.073   5.307  17.716  0.00  0.00    +0.000 A 
ATOM     13  F   UNL     1       3.193   6.606  17.409  0.00  0.00    +0.000 F 
ENDBRANCH   5   6
BRANCH   5  14
ATOM     14  C   UNL     1       5.478   5.378  15.824  0.00  0.00    +0.000 C 
ATOM     15  C   UNL     1       6.649   5.206  14.878  0.00  0.00    +0.000 C 
ATOM     16  C   UNL     1       5.505   4.241  14.822  0.00  0.00    +0.000 C 
ENDBRANCH   5  14
ENDBRANCH   3   5
ENDBRANCH   2   3
BRANCH   2  17
ATOM     17  C   UNL     1       8.174   7.286  18.572  0.00  0.00    +0.000 C 
BRANCH  17  18
ATOM     18  C   UNL     1       7.716   8.284  17.491  0.00  0.00    +0.000 C 
BRANCH  18  19
ATOM     19  C   UNL     1       8.090   9.723  17.839  0.00  0.00    +0.000 C 
BRANCH  19  20
ATOM     20  O   UNL     1       9.000   9.785  18.951  0.00  0.00    +0.000 OA
BRANCH  20  21
ATOM     21  C   UNL     1       9.851  10.877  18.910  0.00  0.00    +0.000 A 
ATOM     22  C   UNL     1      10.675  11.122  17.789  0.00  0.00    +0.000 A 
ATOM     23  C   UNL     1      11.560  12.199  17.752  0.00  0.00    +0.000 A 
ATOM     24  C   UNL     1      11.613  13.081  18.818  0.00  0.00    +0.000 A 
ATOM     25  C   UNL     1      10.778  12.886  19.918  0.00  0.00    +0.000 A 
ATOM     26  C   UNL     1       9.892  11.789  19.984  0.00  0.00    +0.000 A 
BRANCH  26  27
ATOM     27  C   UNL     1       9.091  11.702  21.245  0.00  0.00    +0.000 C 
ATOM     28  N   UNL     1       9.014  10.501  21.888  0.00  0.00    +0.000 N 
ATOM     29  O   UNL     1       8.495  12.672  21.706  0.00  0.00    +0.000 OA
ATOM     30  H   UNL     1       9.497   9.680  21.547  0.00  0.00    +0.000 HD
ATOM     31  H   UNL     1       8.483  10.459  22.747  0.00  0.00    +0.000 HD
ENDBRANCH  26  27
ENDBRANCH  20  21
ENDBRANCH  19  20
ENDBRANCH  18  19
ENDBRANCH  17  18
ENDBRANCH   2  17
TORSDOF 10
ENDMDL
MODEL 3
REMARK VINA RESULT:      -7.6      5.427      8.071
REMARK  Name = 
REMARK  11 active torsions:
REMARK  status: ('A' for Active; 'I' for Inactive)
REMARK    1  A    between atoms: C_1  and  C_2
REMARK    2  A    between atoms: C_2  and  C_3
REMARK    3  A    between atoms: C_2  and  N_16
REMARK    4  A    between atoms: C_3  and  C_4
REMARK    5  A    between atoms: C_4  and  C_5
REMARK    6  A    between atoms: C_5  and  O_6
REMARK    7  A    between atoms: O_6  and  C_7
REMARK    8  A    between atoms: C_12  and  C_13
REMARK    9  A    between atoms: N_16  and  C_17
REMARK   10  A    between atoms: C_17  and  C_18
REMARK   11  A    between atoms: C_17  and  C_26
REMARK                            x       y       z     vdW  Elec       q    Type
REMARK                         _______ _______ _______ _____ _____    ______ ____
ROOT
ATOM      1  C   UNL     1       2.136   7.444  18.325  0.00  0.00    +0.000 C 
ATOM      2  C   UNL     1       2.580   7.242  19.780  0.00  0.00    +0.000 C 
ENDROOT
BRANCH   2   3
ATOM      3  N   UNL     1       3.285   5.964  20.014  0.00  0.00    +0.000 NA
ATOM      4  H   UNL     1       2.815   5.460  20.765  0.00  0.00    +0.000 HD
BRANCH   3   5
ATOM      5  C   UNL     1       3.333   5.073  18.835  0.00  0.00    +0.000 C 
BRANCH   5   6
ATOM      6  C   UNL     1       4.747   4.814  18.347  0.00  0.00    +0.000 A 
ATOM      7  C   UNL     1       5.873   5.157  19.118  0.00  0.00    +0.000 A 
ATOM      8  C   UNL     1       7.141   5.130  18.547  0.00  0.00    +0.000 A 
ATOM      9  F   UNL     1       8.189   5.575  19.251  0.00  0.00    +0.000 F 
ATOM     10  C   UNL     1       7.328   4.700  17.238  0.00  0.00    +0.000 A 
ATOM     11  C   UNL     1       6.233   4.254  16.501  0.00  0.00    +0.000 A 
ATOM     12  C   UNL     1       4.957   4.309  17.059  0.00  0.00    +0.000 A 
ATOM     13  F   UNL     1       3.914   3.910  16.317  0.00  0.00    +0.000 F 
ENDBRANCH   5   6
BRANCH   5  14
ATOM     14  C   UNL     1       2.646   3.761  19.145  0.00  0.00    +0.000 C 
ATOM     15  C   UNL     1       1.324   3.673  19.880  0.00  0.00    +0.000 C 
ATOM     16  C   UNL     1       1.367   3.430  18.402  0.00  0.00    +0.000 C 
ENDBRANCH   5  14
ENDBRANCH   3   5
ENDBRANCH   2   3
BRANCH   2  17
ATOM     17  C   UNL     1       1.344   7.346  20.706  0.00  0.00    +0.000 C 
BRANCH  17  18
ATOM     18  C   UNL     1       0.604   8.697  20.703  0.00  0.00    +0.000 C 
BRANCH  18  19
ATOM     19  C   UNL     1       1.139   9.651  21.769  0.00  0.00    +0.000 C 
BRANCH  19  20
ATOM     20  O   UNL     1       0.996  11.027  21.375  0.00  0.00    +0.000 OA
BRANCH  20  21
ATOM     21  C   UNL     1      -0.276  11.533  21.581  0.00  0.00    +0.000 A 
ATOM     22  C   UNL     1      -0.930  11.389  22.824  0.00  0.00    +0.000 A 
ATOM     23  C   UNL     1      -2.225  11.864  23.031  0.00  0.00    +0.000 A 
ATOM     24  C   UNL     1      -2.881  12.534  22.011  0.00  0.00    +0.000 A 
ATOM     25  C   UNL     1      -2.239  12.728  20.788  0.00  0.00    +0.000 A 
ATOM     26  C   UNL     1      -0.938  12.234  20.552  0.00  0.00    +0.000 A 
BRANCH  26  27
ATOM     27  C   UNL     1      -0.406  12.495  19.179  0.00  0.00    +0.000 C 
ATOM     28  N   UNL     1       0.259  11.492  18.535  0.00  0.00    +0.000 N 
ATOM     29  O   UNL     1      -0.539  13.583  18.625  0.00  0.00    +0.000 OA
ATOM     30  H   UNL     1       0.382  10.579  18.952  0.00  0.00    +0.000 HD
ATOM     31  H   UNL     1       0.600  11.677  17.602  0.00  0.00    +0.000 HD
ENDBRANCH  26  27
ENDBRANCH  20  21
ENDBRANCH  19  20
ENDBRANCH  18  19
ENDBRANCH  17  18
ENDBRANCH   2  17
TORSDOF 10
ENDMDL
MODEL 4
REMARK VINA RESULT:      -7.6      2.108      3.511
REMARK  Name = 
REMARK  11 active torsions:
REMARK  status: ('A' for Active; 'I' for Inactive)
REMARK    1  A    between atoms: C_1  and  C_2
REMARK    2  A    between atoms: C_2  and  C_3
REMARK    3  A    between atoms: C_2  and  N_16
REMARK    4  A    between atoms: C_3  and  C_4
REMARK    5  A    between atoms: C_4  and  C_5
REMARK    6  A    between atoms: C_5  and  O_6
REMARK    7  A    between atoms: O_6  and  C_7
REMARK    8  A    between atoms: C_12  and  C_13
REMARK    9  A    between atoms: N_16  and  C_17
REMARK   10  A    between atoms: C_17  and  C_18
REMARK   11  A    between atoms: C_17  and  C_26
REMARK                            x       y       z     vdW  Elec       q    Type
REMARK                         _______ _______ _______ _____ _____    ______ ____
ROOT
ATOM      1  C   UNL     1       5.920   5.923  15.735  0.00  0.00    +0.000 C 
ATOM      2  C   UNL     1       6.649   6.159  17.065  0.00  0.00    +0.000 C 
ENDROOT
BRANCH   2   3
ATOM      3  N   UNL     1       5.892   5.698  18.248  0.00  0.00    +0.000 NA
ATOM      4  H   UNL     1       5.913   6.428  18.959  0.00  0.00    +0.000 HD
BRANCH   3   5
ATOM      5  C   UNL     1       4.475   5.376  17.974  0.00  0.00    +0.000 C 
BRANCH   5   6
ATOM      6  C   UNL     1       4.076   3.997  18.466  0.00  0.00    +0.000 A 
ATOM      7  C   UNL     1       4.528   3.489  19.698  0.00  0.00    +0.000 A 
ATOM      8  C   UNL     1       4.344   2.145  20.005  0.00  0.00    +0.000 A 
ATOM      9  F   UNL     1       4.885   1.646  21.123  0.00  0.00    +0.000 F 
ATOM     10  C   UNL     1       3.657   1.300  19.141  0.00  0.00    +0.000 A 
ATOM     11  C   UNL     1       3.110   1.817  17.968  0.00  0.00    +0.000 A 
ATOM     12  C   UNL     1       3.319   3.157  17.643  0.00  0.00    +0.000 A 
ATOM     13  F   UNL     1       2.816   3.623  16.491  0.00  0.00    +0.000 F 
ENDBRANCH   5   6
BRANCH   5  14
ATOM     14  C   UNL     1       3.575   6.424  18.591  0.00  0.00    +0.000 C 
ATOM     15  C   UNL     1       3.223   7.725  17.899  0.00  0.00    +0.000 C 
ATOM     16  C   UNL     1       2.201   6.633  17.986  0.00  0.00    +0.000 C 
ENDBRANCH   5  14
ENDBRANCH   3   5
ENDBRANCH   2   3
BRANCH   2  17
ATOM     17  C   UNL     1       6.983   7.664  17.200  0.00  0.00    +0.000 C 
BRANCH  17  18
ATOM     18  C   UNL     1       8.103   8.026  18.195  0.00  0.00    +0.000 C 
BRANCH  18  19
ATOM     19  C   UNL     1       8.473   9.506  18.134  0.00  0.00    +0.000 C 
BRANCH  19  20
ATOM     20  O   UNL     1       9.191   9.926  19.307  0.00  0.00    +0.000 OA
BRANCH  20  21
ATOM     21  C   UNL     1       9.932  11.082  19.119  0.00  0.00    +0.000 A 
ATOM     22  C   UNL     1      10.733  11.260  17.969  0.00  0.00    +0.000 A 
ATOM     23  C   UNL     1      11.509  12.404  17.787  0.00  0.00    +0.000 A 
ATOM     24  C   UNL     1      11.469  13.417  18.730  0.00  0.00    +0.000 A 
ATOM     25  C   UNL     1      10.652  13.284  19.853  0.00  0.00    +0.000 A 
ATOM     26  C   UNL     1       9.877  12.124  20.066  0.00  0.00    +0.000 A 
BRANCH  26  27
ATOM     27  C   UNL     1       9.083  12.123  21.334  0.00  0.00    +0.000 C 
ATOM     28  N   UNL     1       9.001  10.965  22.052  0.00  0.00    +0.000 N 
ATOM     29  O   UNL     1       8.496  13.124  21.736  0.00  0.00    +0.000 OA
ATOM     30  H   UNL     1       9.477  10.121  21.761  0.00  0.00    +0.000 HD
ATOM     31  H   UNL     1       8.474  10.981  22.914  0.00  0.00    +0.000 HD
ENDBRANCH  26  27
ENDBRANCH  20  21
ENDBRANCH  19  20
ENDBRANCH  18  19
ENDBRANCH  17  18
ENDBRANCH   2  17
TORSDOF 10
ENDMDL
MODEL 5
REMARK VINA RESULT:      -7.5      5.528      8.132
REMARK  Name = 
REMARK  11 active torsions:
REMARK  status: ('A' for Active; 'I' for Inactive)
REMARK    1  A    between atoms: C_1  and  C_2
REMARK    2  A    between atoms: C_2  and  C_3
REMARK    3  A    between atoms: C_2  and  N_16
REMARK    4  A    between atoms: C_3  and  C_4
REMARK    5  A    between atoms: C_4  and  C_5
REMARK    6  A    between atoms: C_5  and  O_6
REMARK    7  A    between atoms: O_6  and  C_7
REMARK    8  A    between atoms: C_12  and  C_13
REMARK    9  A    between atoms: N_16  and  C_17
REMARK   10  A    between atoms: C_17  and  C_18
REMARK   11  A    between atoms: C_17  and  C_26
REMARK                            x       y       z     vdW  Elec       q    Type
REMARK                         _______ _______ _______ _____ _____    ______ ____
ROOT
ATOM      1  C   UNL     1       3.922   7.630  17.206  0.00  0.00    +0.000 C 
ATOM      2  C   UNL     1       3.087   6.997  18.327  0.00  0.00    +0.000 C 
ENDROOT
BRANCH   2   3
ATOM      3  N   UNL     1       2.542   5.667  17.985  0.00  0.00    +0.000 NA
ATOM      4  H   UNL     1       2.592   5.539  16.975  0.00  0.00    +0.000 HD
BRANCH   3   5
ATOM      5  C   UNL     1       3.258   4.537  18.616  0.00  0.00    +0.000 C 
BRANCH   5   6
ATOM      6  C   UNL     1       4.747   4.543  18.321  0.00  0.00    +0.000 A 
ATOM      7  C   UNL     1       5.690   4.978  19.270  0.00  0.00    +0.000 A 
ATOM      8  C   UNL     1       7.010   5.198  18.889  0.00  0.00    +0.000 A 
ATOM      9  F   UNL     1       7.869   5.727  19.769  0.00  0.00    +0.000 F 
ATOM     10  C   UNL     1       7.436   4.930  17.593  0.00  0.00    +0.000 A 
ATOM     11  C   UNL     1       6.535   4.396  16.674  0.00  0.00    +0.000 A 
ATOM     12  C   UNL     1       5.204   4.203  17.044  0.00  0.00    +0.000 A 
ATOM     13  F   UNL     1       4.348   3.723  16.131  0.00  0.00    +0.000 F 
ENDBRANCH   5   6
BRANCH   5  14
ATOM     14  C   UNL     1       3.030   4.546  20.112  0.00  0.00    +0.000 C 
ATOM     15  C   UNL     1       1.654   4.658  20.738  0.00  0.00    +0.000 C 
ATOM     16  C   UNL     1       2.364   3.338  20.741  0.00  0.00    +0.000 C 
ENDBRANCH   5  14
ENDBRANCH   3   5
ENDBRANCH   2   3
BRANCH   2  17
ATOM     17  C   UNL     1       1.937   7.961  18.709  0.00  0.00    +0.000 C 
BRANCH  17  18
ATOM     18  C   UNL     1       1.888   9.297  17.942  0.00  0.00    +0.000 C 
BRANCH  18  19
ATOM     19  C   UNL     1       1.180  10.393  18.737  0.00  0.00    +0.000 C 
BRANCH  19  20
ATOM     20  O   UNL     1      -0.155  10.007  19.106  0.00  0.00    +0.000 OA
BRANCH  20  21
ATOM     21  C   UNL     1      -0.703  10.795  20.105  0.00  0.00    +0.000 A 
ATOM     22  C   UNL     1      -0.230  10.726  21.434  0.00  0.00    +0.000 A 
ATOM     23  C   UNL     1      -0.798  11.490  22.454  0.00  0.00    +0.000 A 
ATOM     24  C   UNL     1      -1.825  12.372  22.160  0.00  0.00    +0.000 A 
ATOM     25  C   UNL     1      -2.280  12.490  20.847  0.00  0.00    +0.000 A 
ATOM     26  C   UNL     1      -1.734  11.709  19.805  0.00  0.00    +0.000 A 
BRANCH  26  27
ATOM     27  C   UNL     1      -2.355  11.929  18.463  0.00  0.00    +0.000 C 
ATOM     28  N   UNL     1      -1.551  12.299  17.424  0.00  0.00    +0.000 N 
ATOM     29  O   UNL     1      -3.562  11.801  18.275  0.00  0.00    +0.000 OA
ATOM     30  H   UNL     1      -0.551  12.406  17.534  0.00  0.00    +0.000 HD
ATOM     31  H   UNL     1      -1.981  12.429  16.519  0.00  0.00    +0.000 HD
ENDBRANCH  26  27
ENDBRANCH  20  21
ENDBRANCH  19  20
ENDBRANCH  18  19
ENDBRANCH  17  18
ENDBRANCH   2  17
TORSDOF 10
ENDMDL
MODEL 6
REMARK VINA RESULT:      -7.5      2.023      2.611
REMARK  Name = 
REMARK  11 active torsions:
REMARK  status: ('A' for Active; 'I' for Inactive)
REMARK    1  A    between atoms: C_1  and  C_2
REMARK    2  A    between atoms: C_2  and  C_3
REMARK    3  A    between atoms: C_2  and  N_16
REMARK    4  A    between atoms: C_3  and  C_4
REMARK    5  A    between atoms: C_4  and  C_5
REMARK    6  A    between atoms: C_5  and  O_6
REMARK    7  A    between atoms: O_6  and  C_7
REMARK    8  A    between atoms: C_12  and  C_13
REMARK    9  A    between atoms: N_16  and  C_17
REMARK   10  A    between atoms: C_17  and  C_18
REMARK   11  A    between atoms: C_17  and  C_26
REMARK                            x       y       z     vdW  Elec       q    Type
REMARK                         _______ _______ _______ _____ _____    ______ ____
ROOT
ATOM      1  C   UNL     1       7.375   5.569  18.765  0.00  0.00    +0.000 C 
ATOM      2  C   UNL     1       6.518   6.744  18.274  0.00  0.00    +0.000 C 
ENDROOT
BRANCH   2   3
ATOM      3  N   UNL     1       5.396   6.338  17.402  0.00  0.00    +0.000 NA
ATOM      4  H   UNL     1       5.735   5.658  16.722  0.00  0.00    +0.000 HD
BRANCH   3   5
ATOM      5  C   UNL     1       4.259   5.725  18.122  0.00  0.00    +0.000 C 
BRANCH   5   6
ATOM      6  C   UNL     1       3.198   6.735  18.520  0.00  0.00    +0.000 A 
ATOM      7  C   UNL     1       2.901   7.854  17.721  0.00  0.00    +0.000 A 
ATOM      8  C   UNL     1       2.106   8.878  18.225  0.00  0.00    +0.000 A 
ATOM      9  F   UNL     1       1.931   9.991  17.503  0.00  0.00    +0.000 F 
ATOM     10  C   UNL     1       1.537   8.786  19.491  0.00  0.00    +0.000 A 
ATOM     11  C   UNL     1       1.736   7.634  20.249  0.00  0.00    +0.000 A 
ATOM     12  C   UNL     1       2.557   6.619  19.758  0.00  0.00    +0.000 A 
ATOM     13  F   UNL     1       2.764   5.536  20.522  0.00  0.00    +0.000 F 
ENDBRANCH   5   6
BRANCH   5  14
ATOM     14  C   UNL     1       3.638   4.631  17.281  0.00  0.00    +0.000 C 
ATOM     15  C   UNL     1       4.449   3.540  16.613  0.00  0.00    +0.000 C 
ATOM     16  C   UNL     1       3.638   3.218  17.831  0.00  0.00    +0.000 C 
ENDBRANCH   5  14
ENDBRANCH   3   5
ENDBRANCH   2   3
BRANCH   2  17
ATOM     17  C   UNL     1       7.424   7.760  17.538  0.00  0.00    +0.000 C 
BRANCH  17  18
ATOM     18  C   UNL     1       8.542   8.407  18.378  0.00  0.00    +0.000 C 
BRANCH  18  19
ATOM     19  C   UNL     1       8.520   9.932  18.291  0.00  0.00    +0.000 C 
BRANCH  19  20
ATOM     20  O   UNL     1       9.834  10.495  18.445  0.00  0.00    +0.000 OA
BRANCH  20  21
ATOM     21  C   UNL     1       9.900  11.493  19.404  0.00  0.00    +0.000 A 
ATOM     22  C   UNL     1       9.297  11.331  20.671  0.00  0.00    +0.000 A 
ATOM     23  C   UNL     1       9.328  12.343  21.631  0.00  0.00    +0.000 A 
ATOM     24  C   UNL     1      10.001  13.524  21.362  0.00  0.00    +0.000 A 
ATOM     25  C   UNL     1      10.641  13.690  20.135  0.00  0.00    +0.000 A 
ATOM     26  C   UNL     1      10.601  12.687  19.142  0.00  0.00    +0.000 A 
BRANCH  26  27
ATOM     27  C   UNL     1      11.308  13.034  17.869  0.00  0.00    +0.000 C 
ATOM     28  N   UNL     1      11.936  12.038  17.179  0.00  0.00    +0.000 N 
ATOM     29  O   UNL     1      11.348  14.184  17.440  0.00  0.00    +0.000 OA
ATOM     30  H   UNL     1      11.919  11.077  17.494  0.00  0.00    +0.000 HD
ATOM     31  H   UNL     1      12.397  12.283  16.314  0.00  0.00    +0.000 HD
ENDBRANCH  26  27
ENDBRANCH  20  21
ENDBRANCH  19  20
ENDBRANCH  18  19
ENDBRANCH  17  18
ENDBRANCH   2  17
TORSDOF 10
ENDMDL
MODEL 7
REMARK VINA RESULT:      -7.5      6.116      9.540
REMARK  Name = 
REMARK  11 active torsions:
REMARK  status: ('A' for Active; 'I' for Inactive)
REMARK    1  A    between atoms: C_1  and  C_2
REMARK    2  A    between atoms: C_2  and  C_3
REMARK    3  A    between atoms: C_2  and  N_16
REMARK    4  A    between atoms: C_3  and  C_4
REMARK    5  A    between atoms: C_4  and  C_5
REMARK    6  A    between atoms: C_5  and  O_6
REMARK    7  A    between atoms: O_6  and  C_7
REMARK    8  A    between atoms: C_12  and  C_13
REMARK    9  A    between atoms: N_16  and  C_17
REMARK   10  A    between atoms: C_17  and  C_18
REMARK   11  A    between atoms: C_17  and  C_26
REMARK                            x       y       z     vdW  Elec       q    Type
REMARK                         _______ _______ _______ _____ _____    ______ ____
ROOT
ATOM      1  C   UNL     1      -0.296   8.538  21.665  0.00  0.00    +0.000 C 
ATOM      2  C   UNL     1       0.420   9.706  20.973  0.00  0.00    +0.000 C 
ENDROOT
BRANCH   2   3
ATOM      3  N   UNL     1      -0.490  10.785  20.533  0.00  0.00    +0.000 NA
ATOM      4  H   UNL     1      -0.292  11.625  21.075  0.00  0.00    +0.000 HD
BRANCH   3   5
ATOM      5  C   UNL     1      -0.368  11.134  19.101  0.00  0.00    +0.000 C 
BRANCH   5   6
ATOM      6  C   UNL     1      -1.647  10.888  18.322  0.00  0.00    +0.000 A 
ATOM      7  C   UNL     1      -1.687  10.020  17.216  0.00  0.00    +0.000 A 
ATOM      8  C   UNL     1      -2.803  10.003  16.386  0.00  0.00    +0.000 A 
ATOM      9  F   UNL     1      -2.781   9.264  15.269  0.00  0.00    +0.000 F 
ATOM     10  C   UNL     1      -3.918  10.784  16.667  0.00  0.00    +0.000 A 
ATOM     11  C   UNL     1      -3.932  11.567  17.820  0.00  0.00    +0.000 A 
ATOM     12  C   UNL     1      -2.803  11.610  18.638  0.00  0.00    +0.000 A 
ATOM     13  F   UNL     1      -2.826  12.399  19.722  0.00  0.00    +0.000 F 
ENDBRANCH   5   6
BRANCH   5  14
ATOM     14  C   UNL     1       0.056  12.580  18.952  0.00  0.00    +0.000 C 
ATOM     15  C   UNL     1       1.039  13.254  19.887  0.00  0.00    +0.000 C 
ATOM     16  C   UNL     1       1.477  12.866  18.509  0.00  0.00    +0.000 C 
ENDBRANCH   5  14
ENDBRANCH   3   5
ENDBRANCH   2   3
BRANCH   2  17
ATOM     17  C   UNL     1       1.227   9.164  19.768  0.00  0.00    +0.000 C 
BRANCH  17  18
ATOM     18  C   UNL     1       1.939   7.814  19.979  0.00  0.00    +0.000 C 
BRANCH  18  19
ATOM     19  C   UNL     1       2.538   7.270  18.684  0.00  0.00    +0.000 C 
BRANCH  19  20
ATOM     20  O   UNL     1       3.266   6.049  18.903  0.00  0.00    +0.000 OA
BRANCH  20  21
ATOM     21  C   UNL     1       4.039   5.663  17.821  0.00  0.00    +0.000 A 
ATOM     22  C   UNL     1       4.493   6.605  16.872  0.00  0.00    +0.000 A 
ATOM     23  C   UNL     1       5.243   6.221  15.760  0.00  0.00    +0.000 A 
ATOM     24  C   UNL     1       5.592   4.891  15.594  0.00  0.00    +0.000 A 
ATOM     25  C   UNL     1       5.193   3.948  16.541  0.00  0.00    +0.000 A 
ATOM     26  C   UNL     1       4.414   4.313  17.660  0.00  0.00    +0.000 A 
BRANCH  26  27
ATOM     27  C   UNL     1       4.039   3.180  18.562  0.00  0.00    +0.000 C 
ATOM     28  N   UNL     1       4.957   2.735  19.468  0.00  0.00    +0.000 N 
ATOM     29  O   UNL     1       2.940   2.634  18.498  0.00  0.00    +0.000 OA
ATOM     30  H   UNL     1       5.869   3.163  19.559  0.00  0.00    +0.000 HD
ATOM     31  H   UNL     1       4.685   1.980  20.081  0.00  0.00    +0.000 HD
ENDBRANCH  26  27
ENDBRANCH  20  21
ENDBRANCH  19  20
ENDBRANCH  18  19
ENDBRANCH  17  18
ENDBRANCH   2  17
TORSDOF 10
ENDMDL
MODEL 8
REMARK VINA RESULT:      -7.5      5.880      8.284
REMARK  Name = 
REMARK  11 active torsions:
REMARK  status: ('A' for Active; 'I' for Inactive)
REMARK    1  A    between atoms: C_1  and  C_2
REMARK    2  A    between atoms: C_2  and  C_3
REMARK    3  A    between atoms: C_2  and  N_16
REMARK    4  A    between atoms: C_3  and  C_4
REMARK    5  A    between atoms: C_4  and  C_5
REMARK    6  A    between atoms: C_5  and  O_6
REMARK    7  A    between atoms: O_6  and  C_7
REMARK    8  A    between atoms: C_12  and  C_13
REMARK    9  A    between atoms: N_16  and  C_17
REMARK   10  A    between atoms: C_17  and  C_18
REMARK   11  A    between atoms: C_17  and  C_26
REMARK                            x       y       z     vdW  Elec       q    Type
REMARK                         _______ _______ _______ _____ _____    ______ ____
ROOT
ATOM      1  C   UNL     1       2.214   7.214  18.273  0.00  0.00    +0.000 C 
ATOM      2  C   UNL     1       2.539   7.138  19.772  0.00  0.00    +0.000 C 
ENDROOT
BRANCH   2   3
ATOM      3  N   UNL     1       3.314   5.939  20.152  0.00  0.00    +0.000 NA
ATOM      4  H   UNL     1       3.024   5.639  21.082  0.00  0.00    +0.000 HD
BRANCH   3   5
ATOM      5  C   UNL     1       3.144   4.791  19.236  0.00  0.00    +0.000 C 
BRANCH   5   6
ATOM      6  C   UNL     1       4.383   4.507  18.408  0.00  0.00    +0.000 A 
ATOM      7  C   UNL     1       5.672   4.839  18.863  0.00  0.00    +0.000 A 
ATOM      8  C   UNL     1       6.753   4.788  17.988  0.00  0.00    +0.000 A 
ATOM      9  F   UNL     1       7.951   5.223  18.398  0.00  0.00    +0.000 F 
ATOM     10  C   UNL     1       6.596   4.347  16.679  0.00  0.00    +0.000 A 
ATOM     11  C   UNL     1       5.343   3.912  16.250  0.00  0.00    +0.000 A 
ATOM     12  C   UNL     1       4.252   3.990  17.114  0.00  0.00    +0.000 A 
ATOM     13  F   UNL     1       3.050   3.602  16.666  0.00  0.00    +0.000 F 
ENDBRANCH   5   6
BRANCH   5  14
ATOM     14  C   UNL     1       2.752   3.555  20.017  0.00  0.00    +0.000 C 
ATOM     15  C   UNL     1       2.049   3.612  21.358  0.00  0.00    +0.000 C 
ATOM     16  C   UNL     1       1.278   3.221  20.135  0.00  0.00    +0.000 C 
ENDBRANCH   5  14
ENDBRANCH   3   5
ENDBRANCH   2   3
BRANCH   2  17
ATOM     17  C   UNL     1       1.220   7.199  20.580  0.00  0.00    +0.000 C 
BRANCH  17  18
ATOM     18  C   UNL     1       1.012   8.456  21.447  0.00  0.00    +0.000 C 
BRANCH  18  19
ATOM     19  C   UNL     1       0.864   9.721  20.604  0.00  0.00    +0.000 C 
BRANCH  19  20
ATOM     20  O   UNL     1      -0.515  10.023  20.330  0.00  0.00    +0.000 OA
BRANCH  20  21
ATOM     21  C   UNL     1      -0.919  11.255  20.818  0.00  0.00    +0.000 A 
ATOM     22  C   UNL     1      -0.620  11.654  22.140  0.00  0.00    +0.000 A 
ATOM     23  C   UNL     1      -1.052  12.877  22.651  0.00  0.00    +0.000 A 
ATOM     24  C   UNL     1      -1.757  13.750  21.839  0.00  0.00    +0.000 A 
ATOM     25  C   UNL     1      -2.027  13.398  20.517  0.00  0.00    +0.000 A 
ATOM     26  C   UNL     1      -1.618  12.154  19.988  0.00  0.00    +0.000 A 
BRANCH  26  27
ATOM     27  C   UNL     1      -2.016  11.915  18.565  0.00  0.00    +0.000 C 
ATOM     28  N   UNL     1      -1.282  12.500  17.575  0.00  0.00    +0.000 N 
ATOM     29  O   UNL     1      -2.986  11.222  18.268  0.00  0.00    +0.000 OA
ATOM     30  H   UNL     1      -0.471  13.070  17.777  0.00  0.00    +0.000 HD
ATOM     31  H   UNL     1      -1.551  12.318  16.619  0.00  0.00    +0.000 HD
ENDBRANCH  26  27
ENDBRANCH  20  21
ENDBRANCH  19  20
ENDBRANCH  18  19
ENDBRANCH  17  18
ENDBRANCH   2  17
TORSDOF 10
ENDMDL
MODEL 9
REMARK VINA RESULT:      -7.4      5.046      7.946
REMARK  Name = 
REMARK  11 active torsions:
REMARK  status: ('A' for Active; 'I' for Inactive)
REMARK    1  A    between atoms: C_1  and  C_2
REMARK    2  A    between atoms: C_2  and  C_3
REMARK    3  A    between atoms: C_2  and  N_16
REMARK    4  A    between atoms: C_3  and  C_4
REMARK    5  A    between atoms: C_4  and  C_5
REMARK    6  A    between atoms: C_5  and  O_6
REMARK    7  A    between atoms: O_6  and  C_7
REMARK    8  A    between atoms: C_12  and  C_13
REMARK    9  A    between atoms: N_16  and  C_17
REMARK   10  A    between atoms: C_17  and  C_18
REMARK   11  A    between atoms: C_17  and  C_26
REMARK                            x       y       z     vdW  Elec       q    Type
REMARK                         _______ _______ _______ _____ _____    ______ ____
ROOT
ATOM      1  C   UNL     1       0.960   4.698  20.537  0.00  0.00    +0.000 C 
ATOM      2  C   UNL     1       1.945   5.423  19.610  0.00  0.00    +0.000 C 
ENDROOT
BRANCH   2   3
ATOM      3  N   UNL     1       3.256   4.752  19.494  0.00  0.00    +0.000 NA
ATOM      4  H   UNL     1       3.230   3.882  20.025  0.00  0.00    +0.000 HD
BRANCH   3   5
ATOM      5  C   UNL     1       3.648   4.420  18.108  0.00  0.00    +0.000 C 
BRANCH   5   6
ATOM      6  C   UNL     1       4.984   5.022  17.711  0.00  0.00    +0.000 A 
ATOM      7  C   UNL     1       6.181   4.287  17.784  0.00  0.00    +0.000 A 
ATOM      8  C   UNL     1       7.404   4.934  17.647  0.00  0.00    +0.000 A 
ATOM      9  F   UNL     1       8.537   4.248  17.840  0.00  0.00    +0.000 F 
ATOM     10  C   UNL     1       7.468   6.295  17.368  0.00  0.00    +0.000 A 
ATOM     11  C   UNL     1       6.287   7.012  17.185  0.00  0.00    +0.000 A 
ATOM     12  C   UNL     1       5.058   6.372  17.352  0.00  0.00    +0.000 A 
ATOM     13  F   UNL     1       3.936   7.091  17.209  0.00  0.00    +0.000 F 
ENDBRANCH   5   6
BRANCH   5  14
ATOM     14  C   UNL     1       3.685   2.918  17.922  0.00  0.00    +0.000 C 
ATOM     15  C   UNL     1       3.086   1.947  18.918  0.00  0.00    +0.000 C 
ATOM     16  C   UNL     1       2.383   2.203  17.620  0.00  0.00    +0.000 C 
ENDBRANCH   5  14
ENDBRANCH   3   5
ENDBRANCH   2   3
BRANCH   2  17
ATOM     17  C   UNL     1       2.132   6.877  20.106  0.00  0.00    +0.000 C 
BRANCH  17  18
ATOM     18  C   UNL     1       1.091   7.388  21.121  0.00  0.00    +0.000 C 
BRANCH  18  19
ATOM     19  C   UNL     1       1.326   8.849  21.501  0.00  0.00    +0.000 C 
BRANCH  19  20
ATOM     20  O   UNL     1       0.761   9.751  20.534  0.00  0.00    +0.000 OA
BRANCH  20  21
ATOM     21  C   UNL     1      -0.207  10.591  21.058  0.00  0.00    +0.000 A 
ATOM     22  C   UNL     1      -0.474  10.625  22.445  0.00  0.00    +0.000 A 
ATOM     23  C   UNL     1      -1.470  11.442  22.979  0.00  0.00    +0.000 A 
ATOM     24  C   UNL     1      -2.194  12.277  22.143  0.00  0.00    +0.000 A 
ATOM     25  C   UNL     1      -1.919  12.294  20.776  0.00  0.00    +0.000 A 
ATOM     26  C   UNL     1      -0.930  11.458  20.214  0.00  0.00    +0.000 A 
BRANCH  26  27
ATOM     27  C   UNL     1      -0.782  11.570  18.730  0.00  0.00    +0.000 C 
ATOM     28  N   UNL     1      -0.328  10.487  18.035  0.00  0.00    +0.000 N 
ATOM     29  O   UNL     1      -1.041  12.608  18.126  0.00  0.00    +0.000 OA
ATOM     30  H   UNL     1      -0.112   9.611  18.492  0.00  0.00    +0.000 HD
ATOM     31  H   UNL     1      -0.246  10.571  17.032  0.00  0.00    +0.000 HD
ENDBRANCH  26  27
ENDBRANCH  20  21
ENDBRANCH  19  20
ENDBRANCH  18  19
ENDBRANCH  17  18
ENDBRANCH   2  17
TORSDOF 10
ENDMDL
