MODEL 1
REMARK VINA RESULT:      -8.1      0.000      0.000
REMARK  Name = 
REMARK  6 active torsions:
REMARK  status: ('A' for Active; 'I' for Inactive)
REMARK    1  A    between atoms: C_1  and  C_2
REMARK    2  A    between atoms: C_2  and  C_3
REMARK    3  A    between atoms: C_3  and  C_4
REMARK    4  A    between atoms: C_3  and  C_5
REMARK    5  A    between atoms: C_9  and  C_10
REMARK    6  A    between atoms: C_10  and  C_11
REMARK                            x       y       z     vdW  Elec       q    Type
REMARK                         _______ _______ _______ _____ _____    ______ ____
ROOT
ATOM      1  C   UNL     1       0.467  13.222  20.534  0.00  0.00    +0.000 C 
ATOM      2  N   UNL     1       1.675  12.511  20.150  0.00  0.00    +0.000 N 
ATOM      3  C   UNL     1       1.684  11.942  18.900  0.00  0.00    +0.000 C 
ATOM      4  O   UNL     1       2.591  12.135  18.101  0.00  0.00    +0.000 OA
ATOM      5  C   UNL     1       0.604  10.916  18.690  0.00  0.00    +0.000 C 
ATOM      6  N   UNL     1      -0.720  11.557  19.041  0.00  0.00    +0.000 N 
ATOM      7  C   UNL     1      -0.809  12.515  20.056  0.00  0.00    +0.000 A 
ATOM      8  N   UNL     1      -1.933  12.957  20.531  0.00  0.00    +0.000 NA
ATOM      9  C   UNL     1      -3.134  12.584  19.942  0.00  0.00    +0.000 A 
ATOM     10  C   UNL     1      -4.299  13.235  20.374  0.00  0.00    +0.000 A 
ATOM     11  C   UNL     1      -5.523  12.982  19.751  0.00  0.00    +0.000 A 
ATOM     12 CL   UNL     1      -6.905  13.847  20.324  0.00  0.00    +0.000 Cl
ATOM     13  C   UNL     1      -5.570  12.064  18.692  0.00  0.00    +0.000 A 
ATOM     14 CL   UNL     1      -7.059  11.725  17.866  0.00  0.00    +0.000 Cl
ATOM     15  C   UNL     1      -4.410  11.403  18.270  0.00  0.00    +0.000 A 
ATOM     16  C   UNL     1      -3.175  11.675  18.894  0.00  0.00    +0.000 A 
ATOM     17  C   UNL     1      -1.890  11.054  18.469  0.00  0.00    +0.000 A 
ATOM     18  O   UNL     1      -1.914  10.151  17.645  0.00  0.00    +0.000 OA
ATOM     19  H   UNL     1       2.531  13.024  20.333  0.00  0.00    +0.000 HD
ENDROOT
BRANCH   1  20
ATOM     20  C   UNL     1       0.561  14.729  20.117  0.00  0.00    +0.000 C 
ATOM     21  C   UNL     1       1.989  15.295  20.147  0.00  0.00    +0.000 C 
BRANCH  20  23
ATOM     22  C   UNL     1      -0.229  16.593  18.514  0.00  0.00    +0.000 C 
ATOM     23  C   UNL     1      -0.058  15.102  18.750  0.00  0.00    +0.000 C 
ENDBRANCH  20  23
ENDBRANCH   1  20
BRANCH   5  24
ATOM     24  C   UNL     1       0.961   9.684  19.553  0.00  0.00    +0.000 C 
BRANCH  24  25
ATOM     25  C   UNL     1       1.865   8.539  19.055  0.00  0.00    +0.000 A 
ATOM     26  C   UNL     1       2.419   8.616  17.781  0.00  0.00    +0.000 A 
ATOM     27  N   UNL     1       3.154   7.484  17.581  0.00  0.00    +0.000 N 
ATOM     28  C   UNL     1       2.552   6.489  18.305  0.00  0.00    +0.000 A 
ATOM     29  C   UNL     1       2.467   5.115  18.058  0.00  0.00    +0.000 A 
ATOM     30  C   UNL     1       2.016   4.313  19.100  0.00  0.00    +0.000 A 
ATOM     31  C   UNL     1       1.807   4.872  20.355  0.00  0.00    +0.000 A 
ATOM     32  C   UNL     1       1.828   6.273  20.547  0.00  0.00    +0.000 A 
ATOM     33  C   UNL     1       2.076   7.137  19.453  0.00  0.00    +0.000 A 
ATOM     34  H   UNL     1       4.151   7.494  17.412  0.00  0.00    +0.000 HD
ENDBRANCH  24  25
ENDBRANCH   5  24
TORSDOF 4
ENDMDL
MODEL 2
REMARK VINA RESULT:      -7.8      3.913      7.853
REMARK  Name = 
REMARK  6 active torsions:
REMARK  status: ('A' for Active; 'I' for Inactive)
REMARK    1  A    between atoms: C_1  and  C_2
REMARK    2  A    between atoms: C_2  and  C_3
REMARK    3  A    between atoms: C_3  and  C_4
REMARK    4  A    between atoms: C_3  and  C_5
REMARK    5  A    between atoms: C_9  and  C_10
REMARK    6  A    between atoms: C_10  and  C_11
REMARK                            x       y       z     vdW  Elec       q    Type
REMARK                         _______ _______ _______ _____ _____    ______ ____
ROOT
ATOM      1  C   UNL     1       0.625  13.066  19.644  0.00  0.00    +0.000 C 
ATOM      2  N   UNL     1      -0.217  13.875  20.509  0.00  0.00    +0.000 N 
ATOM      3  C   UNL     1      -0.290  13.498  21.828  0.00  0.00    +0.000 C 
ATOM      4  O   UNL     1      -0.094  14.286  22.744  0.00  0.00    +0.000 OA
ATOM      5  C   UNL     1      -0.825  12.108  22.035  0.00  0.00    +0.000 C 
ATOM      6  N   UNL     1      -0.001  11.161  21.191  0.00  0.00    +0.000 N 
ATOM      7  C   UNL     1       0.524  11.568  19.959  0.00  0.00    +0.000 A 
ATOM      8  N   UNL     1       1.070  10.754  19.108  0.00  0.00    +0.000 NA
ATOM      9  C   UNL     1       1.284   9.426  19.450  0.00  0.00    +0.000 A 
ATOM     10  C   UNL     1       2.044   8.643  18.569  0.00  0.00    +0.000 A 
ATOM     11  C   UNL     1       2.384   7.330  18.903  0.00  0.00    +0.000 A 
ATOM     12 CL   UNL     1       3.346   6.442  17.775  0.00  0.00    +0.000 Cl
ATOM     13  C   UNL     1       1.950   6.806  20.129  0.00  0.00    +0.000 A 
ATOM     14 CL   UNL     1       2.359   5.188  20.607  0.00  0.00    +0.000 Cl
ATOM     15  C   UNL     1       1.179   7.583  21.002  0.00  0.00    +0.000 A 
ATOM     16  C   UNL     1       0.852   8.912  20.665  0.00  0.00    +0.000 A 
ATOM     17  C   UNL     1       0.083   9.818  21.562  0.00  0.00    +0.000 A 
ATOM     18  O   UNL     1      -0.427   9.356  22.573  0.00  0.00    +0.000 OA
ATOM     19  H   UNL     1      -0.067  14.874  20.414  0.00  0.00    +0.000 HD
ENDROOT
BRANCH   1  20
ATOM     20  C   UNL     1       2.090  13.622  19.629  0.00  0.00    +0.000 C 
ATOM     21  C   UNL     1       2.785  13.505  18.264  0.00  0.00    +0.000 C 
BRANCH  20  23
ATOM     22  C   UNL     1       3.097  15.215  21.394  0.00  0.00    +0.000 C 
ATOM     23  C   UNL     1       2.277  15.075  20.123  0.00  0.00    +0.000 C 
ENDBRANCH  20  23
ENDBRANCH   1  20
BRANCH   5  24
ATOM     24  C   UNL     1      -2.328  12.132  21.677  0.00  0.00    +0.000 C 
BRANCH  24  25
ATOM     25  C   UNL     1      -3.410  12.706  22.613  0.00  0.00    +0.000 A 
ATOM     26  C   UNL     1      -3.162  12.765  23.981  0.00  0.00    +0.000 A 
ATOM     27  N   UNL     1      -4.269  13.291  24.579  0.00  0.00    +0.000 N 
ATOM     28  C   UNL     1      -5.344  12.920  23.817  0.00  0.00    +0.000 A 
ATOM     29  C   UNL     1      -6.666  12.648  24.186  0.00  0.00    +0.000 A 
ATOM     30  C   UNL     1      -7.600  12.547  23.162  0.00  0.00    +0.000 A 
ATOM     31  C   UNL     1      -7.223  12.849  21.858  0.00  0.00    +0.000 A 
ATOM     32  C   UNL     1      -5.867  13.042  21.512  0.00  0.00    +0.000 A 
ATOM     33  C   UNL     1      -4.859  12.941  22.501  0.00  0.00    +0.000 A 
ATOM     34  H   UNL     1      -4.258  14.157  25.101  0.00  0.00    +0.000 HD
ENDBRANCH  24  25
ENDBRANCH   5  24
TORSDOF 4
ENDMDL
MODEL 3
REMARK VINA RESULT:      -7.6      3.975      7.952
REMARK  Name = 
REMARK  6 active torsions:
REMARK  status: ('A' for Active; 'I' for Inactive)
REMARK    1  A    between atoms: C_1  and  C_2
REMARK    2  A    between atoms: C_2  and  C_3
REMARK    3  A    between atoms: C_3  and  C_4
REMARK    4  A    between atoms: C_3  and  C_5
REMARK    5  A    between atoms: C_9  and  C_10
REMARK    6  A    between atoms: C_10  and  C_11
REMARK                            x       y       z     vdW  Elec       q    Type
REMARK                         _______ _______ _______ _____ _____    ______ ____
ROOT
ATOM      1  C   UNL     1       0.009  13.467  19.910  0.00  0.00    +0.000 C 
ATOM      2  N   UNL     1      -0.858  14.083  20.900  0.00  0.00    +0.000 N 
ATOM      3  C   UNL     1      -0.784  13.589  22.179  0.00  0.00    +0.000 C 
ATOM      4  O   UNL     1      -0.618  14.314  23.151  0.00  0.00    +0.000 OA
ATOM      5  C   UNL     1      -1.126  12.128  22.289  0.00  0.00    +0.000 C 
ATOM      6  N   UNL     1      -0.257  11.372  21.309  0.00  0.00    +0.000 N 
ATOM      7  C   UNL     1       0.118  11.947  20.089  0.00  0.00    +0.000 A 
ATOM      8  N   UNL     1       0.695  11.286  19.131  0.00  0.00    +0.000 NA
ATOM      9  C   UNL     1       1.096   9.973  19.333  0.00  0.00    +0.000 A 
ATOM     10  C   UNL     1       1.878   9.373  18.335  0.00  0.00    +0.000 A 
ATOM     11  C   UNL     1       2.402   8.092  18.521  0.00  0.00    +0.000 A 
ATOM     12 CL   UNL     1       3.378   7.435  17.255  0.00  0.00    +0.000 Cl
ATOM     13  C   UNL     1       2.130   7.413  19.718  0.00  0.00    +0.000 A 
ATOM     14 CL   UNL     1       2.771   5.827  20.014  0.00  0.00    +0.000 Cl
ATOM     15  C   UNL     1       1.338   8.006  20.708  0.00  0.00    +0.000 A 
ATOM     16  C   UNL     1       0.824   9.306  20.519  0.00  0.00    +0.000 A 
ATOM     17  C   UNL     1       0.020  10.024  21.545  0.00  0.00    +0.000 A 
ATOM     18  O   UNL     1      -0.351   9.416  22.539  0.00  0.00    +0.000 OA
ATOM     19  H   UNL     1      -0.840  15.098  20.890  0.00  0.00    +0.000 HD
ENDROOT
BRANCH   1  20
ATOM     20  C   UNL     1       1.389  14.207  19.853  0.00  0.00    +0.000 C 
ATOM     21  C   UNL     1       2.458  13.602  20.775  0.00  0.00    +0.000 C 
BRANCH  20  23
ATOM     22  C   UNL     1       3.254  13.518  18.206  0.00  0.00    +0.000 C 
ATOM     23  C   UNL     1       2.022  14.371  18.452  0.00  0.00    +0.000 C 
ENDBRANCH  20  23
ENDBRANCH   1  20
BRANCH   5  24
ATOM     24  C   UNL     1      -2.643  11.988  22.032  0.00  0.00    +0.000 C 
BRANCH  24  25
ATOM     25  C   UNL     1      -3.716  12.629  22.934  0.00  0.00    +0.000 A 
ATOM     26  C   UNL     1      -3.605  12.501  24.316  0.00  0.00    +0.000 A 
ATOM     27  N   UNL     1      -4.674  13.136  24.876  0.00  0.00    +0.000 N 
ATOM     28  C   UNL     1      -5.708  13.031  23.985  0.00  0.00    +0.000 A 
ATOM     29  C   UNL     1      -7.088  12.943  24.204  0.00  0.00    +0.000 A 
ATOM     30  C   UNL     1      -7.914  13.107  23.098  0.00  0.00    +0.000 A 
ATOM     31  C   UNL     1      -7.362  13.479  21.878  0.00  0.00    +0.000 A 
ATOM     32  C   UNL     1      -5.963  13.481  21.676  0.00  0.00    +0.000 A 
ATOM     33  C   UNL     1      -5.092  13.111  22.728  0.00  0.00    +0.000 A 
ATOM     34  H   UNL     1      -4.584  13.928  25.499  0.00  0.00    +0.000 HD
ENDBRANCH  24  25
ENDBRANCH   5  24
TORSDOF 4
ENDMDL
MODEL 4
REMARK VINA RESULT:      -7.5      2.943      4.375
REMARK  Name = 
REMARK  6 active torsions:
REMARK  status: ('A' for Active; 'I' for Inactive)
REMARK    1  A    between atoms: C_1  and  C_2
REMARK    2  A    between atoms: C_2  and  C_3
REMARK    3  A    between atoms: C_3  and  C_4
REMARK    4  A    between atoms: C_3  and  C_5
REMARK    5  A    between atoms: C_9  and  C_10
REMARK    6  A    between atoms: C_10  and  C_11
REMARK                            x       y       z     vdW  Elec       q    Type
REMARK                         _______ _______ _______ _____ _____    ______ ____
ROOT
ATOM      1  C   UNL     1      -1.429  11.537  21.660  0.00  0.00    +0.000 C 
ATOM      2  N   UNL     1      -0.777  10.243  21.784  0.00  0.00    +0.000 N 
ATOM      3  C   UNL     1       0.596  10.240  21.766  0.00  0.00    +0.000 C 
ATOM      4  O   UNL     1       1.259   9.678  22.628  0.00  0.00    +0.000 OA
ATOM      5  C   UNL     1       1.189  10.800  20.502  0.00  0.00    +0.000 C 
ATOM      6  N   UNL     1       0.596  12.173  20.278  0.00  0.00    +0.000 N 
ATOM      7  C   UNL     1      -0.721  12.458  20.658  0.00  0.00    +0.000 A 
ATOM      8  N   UNL     1      -1.345  13.545  20.322  0.00  0.00    +0.000 NA
ATOM      9  C   UNL     1      -0.669  14.564  19.664  0.00  0.00    +0.000 A 
ATOM     10  C   UNL     1      -1.339  15.784  19.495  0.00  0.00    +0.000 A 
ATOM     11  C   UNL     1      -0.681  16.881  18.936  0.00  0.00    +0.000 A 
ATOM     12 CL   UNL     1      -1.569  18.357  18.788  0.00  0.00    +0.000 Cl
ATOM     13  C   UNL     1       0.657  16.742  18.541  0.00  0.00    +0.000 A 
ATOM     14 CL   UNL     1       1.534  18.077  17.859  0.00  0.00    +0.000 Cl
ATOM     15  C   UNL     1       1.322  15.520  18.697  0.00  0.00    +0.000 A 
ATOM     16  C   UNL     1       0.656  14.421  19.276  0.00  0.00    +0.000 A 
ATOM     17  C   UNL     1       1.309  13.106  19.523  0.00  0.00    +0.000 A 
ATOM     18  O   UNL     1       2.427  12.906  19.070  0.00  0.00    +0.000 OA
ATOM     19  H   UNL     1      -1.142   9.668  22.537  0.00  0.00    +0.000 HD
ENDROOT
BRANCH   1  20
ATOM     20  C   UNL     1      -1.653  12.176  23.073  0.00  0.00    +0.000 C 
ATOM     21  C   UNL     1      -1.003  13.558  23.240  0.00  0.00    +0.000 C 
BRANCH  20  23
ATOM     22  C   UNL     1      -3.472  13.611  24.212  0.00  0.00    +0.000 C 
ATOM     23  C   UNL     1      -3.120  12.291  23.548  0.00  0.00    +0.000 C 
ENDBRANCH  20  23
ENDBRANCH   1  20
BRANCH   5  24
ATOM     24  C   UNL     1       0.900   9.791  19.368  0.00  0.00    +0.000 C 
BRANCH  24  25
ATOM     25  C   UNL     1       1.845   8.626  19.013  0.00  0.00    +0.000 A 
ATOM     26  C   UNL     1       2.487   8.625  17.778  0.00  0.00    +0.000 A 
ATOM     27  N   UNL     1       3.243   7.492  17.706  0.00  0.00    +0.000 N 
ATOM     28  C   UNL     1       2.599   6.540  18.451  0.00  0.00    +0.000 A 
ATOM     29  C   UNL     1       2.542   5.151  18.292  0.00  0.00    +0.000 A 
ATOM     30  C   UNL     1       2.025   4.415  19.351  0.00  0.00    +0.000 A 
ATOM     31  C   UNL     1       1.723   5.054  20.548  0.00  0.00    +0.000 A 
ATOM     32  C   UNL     1       1.720   6.464  20.646  0.00  0.00    +0.000 A 
ATOM     33  C   UNL     1       2.038   7.256  19.518  0.00  0.00    +0.000 A 
ATOM     34  H   UNL     1       4.249   7.503  17.607  0.00  0.00    +0.000 HD
ENDBRANCH  24  25
ENDBRANCH   5  24
TORSDOF 4
ENDMDL
MODEL 5
REMARK VINA RESULT:      -7.5      3.214      6.386
REMARK  Name = 
REMARK  6 active torsions:
REMARK  status: ('A' for Active; 'I' for Inactive)
REMARK    1  A    between atoms: C_1  and  C_2
REMARK    2  A    between atoms: C_2  and  C_3
REMARK    3  A    between atoms: C_3  and  C_4
REMARK    4  A    between atoms: C_3  and  C_5
REMARK    5  A    between atoms: C_9  and  C_10
REMARK    6  A    between atoms: C_10  and  C_11
REMARK                            x       y       z     vdW  Elec       q    Type
REMARK                         _______ _______ _______ _____ _____    ______ ____
ROOT
ATOM      1  C   UNL     1      -2.027  11.528  17.969  0.00  0.00    +0.000 C 
ATOM      2  N   UNL     1      -0.683  11.183  17.536  0.00  0.00    +0.000 N 
ATOM      3  C   UNL     1       0.092  10.485  18.429  0.00  0.00    +0.000 C 
ATOM      4  O   UNL     1       0.670   9.450  18.124  0.00  0.00    +0.000 OA
ATOM      5  C   UNL     1       0.328  11.209  19.727  0.00  0.00    +0.000 C 
ATOM      6  N   UNL     1      -1.019  11.602  20.291  0.00  0.00    +0.000 N 
ATOM      7  C   UNL     1      -2.082  11.942  19.445  0.00  0.00    +0.000 A 
ATOM      8  N   UNL     1      -3.192  12.468  19.863  0.00  0.00    +0.000 NA
ATOM      9  C   UNL     1      -3.434  12.599  21.224  0.00  0.00    +0.000 A 
ATOM     10  C   UNL     1      -4.719  12.997  21.620  0.00  0.00    +0.000 A 
ATOM     11  C   UNL     1      -5.059  13.047  22.973  0.00  0.00    +0.000 A 
ATOM     12 CL   UNL     1      -6.672  13.521  23.376  0.00  0.00    +0.000 Cl
ATOM     13  C   UNL     1      -4.095  12.698  23.930  0.00  0.00    +0.000 A 
ATOM     14 CL   UNL     1      -4.466  12.720  25.625  0.00  0.00    +0.000 Cl
ATOM     15  C   UNL     1      -2.808  12.313  23.536  0.00  0.00    +0.000 A 
ATOM     16  C   UNL     1      -2.476  12.252  22.167  0.00  0.00    +0.000 A 
ATOM     17  C   UNL     1      -1.148  11.802  21.667  0.00  0.00    +0.000 A 
ATOM     18  O   UNL     1      -0.243  11.623  22.469  0.00  0.00    +0.000 OA
ATOM     19  H   UNL     1      -0.640  10.776  16.607  0.00  0.00    +0.000 HD
ENDROOT
BRANCH   1  20
ATOM     20  C   UNL     1      -3.036  10.393  17.582  0.00  0.00    +0.000 C 
ATOM     21  C   UNL     1      -4.496  10.862  17.495  0.00  0.00    +0.000 C 
BRANCH  20  23
ATOM     22  C   UNL     1      -3.131  10.309  15.003  0.00  0.00    +0.000 C 
ATOM     23  C   UNL     1      -2.722   9.608  16.287  0.00  0.00    +0.000 C 
ENDBRANCH  20  23
ENDBRANCH   1  20
BRANCH   5  24
ATOM     24  C   UNL     1       1.264  12.402  19.428  0.00  0.00    +0.000 C 
BRANCH  24  25
ATOM     25  C   UNL     1       1.321  13.669  20.304  0.00  0.00    +0.000 A 
ATOM     26  C   UNL     1       2.341  13.800  21.243  0.00  0.00    +0.000 A 
ATOM     27  N   UNL     1       2.157  14.987  21.889  0.00  0.00    +0.000 N 
ATOM     28  C   UNL     1       0.809  15.227  21.900  0.00  0.00    +0.000 A 
ATOM     29  C   UNL     1       0.015  15.891  22.842  0.00  0.00    +0.000 A 
ATOM     30  C   UNL     1      -1.284  16.207  22.462  0.00  0.00    +0.000 A 
ATOM     31  C   UNL     1      -1.689  15.983  21.152  0.00  0.00    +0.000 A 
ATOM     32  C   UNL     1      -0.889  15.242  20.253  0.00  0.00    +0.000 A 
ATOM     33  C   UNL     1       0.357  14.718  20.674  0.00  0.00    +0.000 A 
ATOM     34  H   UNL     1       2.834  15.739  21.868  0.00  0.00    +0.000 HD
ENDBRANCH  24  25
ENDBRANCH   5  24
TORSDOF 4
ENDMDL
MODEL 6
REMARK VINA RESULT:      -7.4      3.994      8.065
REMARK  Name = 
REMARK  6 active torsions:
REMARK  status: ('A' for Active; 'I' for Inactive)
REMARK    1  A    between atoms: C_1  and  C_2
REMARK    2  A    between atoms: C_2  and  C_3
REMARK    3  A    between atoms: C_3  and  C_4
REMARK    4  A    between atoms: C_3  and  C_5
REMARK    5  A    between atoms: C_9  and  C_10
REMARK    6  A    between atoms: C_10  and  C_11
REMARK                            x       y       z     vdW  Elec       q    Type
REMARK                         _______ _______ _______ _____ _____    ______ ____
ROOT
ATOM      1  C   UNL     1       0.498  13.204  19.736  0.00  0.00    +0.000 C 
ATOM      2  N   UNL     1      -0.278  14.015  20.660  0.00  0.00    +0.000 N 
ATOM      3  C   UNL     1      -0.232  13.654  21.985  0.00  0.00    +0.000 C 
ATOM      4  O   UNL     1       0.030  14.456  22.872  0.00  0.00    +0.000 OA
ATOM      5  C   UNL     1      -0.730  12.260  22.254  0.00  0.00    +0.000 C 
ATOM      6  N   UNL     1       0.032  11.313  21.354  0.00  0.00    +0.000 N 
ATOM      7  C   UNL     1       0.444  11.709  20.077  0.00  0.00    +0.000 A 
ATOM      8  N   UNL     1       0.926  10.891  19.192  0.00  0.00    +0.000 NA
ATOM      9  C   UNL     1       1.185   9.570  19.531  0.00  0.00    +0.000 A 
ATOM     10  C   UNL     1       1.877   8.784  18.598  0.00  0.00    +0.000 A 
ATOM     11  C   UNL     1       2.262   7.480  18.917  0.00  0.00    +0.000 A 
ATOM     12 CL   UNL     1       3.136   6.588  17.723  0.00  0.00    +0.000 Cl
ATOM     13  C   UNL     1       1.940   6.967  20.183  0.00  0.00    +0.000 A 
ATOM     14 CL   UNL     1       2.410   5.361  20.644  0.00  0.00    +0.000 Cl
ATOM     15  C   UNL     1       1.237   7.746  21.109  0.00  0.00    +0.000 A 
ATOM     16  C   UNL     1       0.866   9.067  20.785  0.00  0.00    +0.000 A 
ATOM     17  C   UNL     1       0.164   9.975  21.733  0.00  0.00    +0.000 A 
ATOM     18  O   UNL     1      -0.252   9.521  22.789  0.00  0.00    +0.000 OA
ATOM     19  H   UNL     1      -0.149  15.014  20.541  0.00  0.00    +0.000 HD
ENDROOT
BRANCH   1  20
ATOM     20  C   UNL     1       1.949  13.777  19.589  0.00  0.00    +0.000 C 
ATOM     21  C   UNL     1       2.604  13.471  18.233  0.00  0.00    +0.000 C 
BRANCH  20  23
ATOM     22  C   UNL     1       1.916  16.179  18.641  0.00  0.00    +0.000 C 
ATOM     23  C   UNL     1       2.119  15.290  19.856  0.00  0.00    +0.000 C 
ENDBRANCH  20  23
ENDBRANCH   1  20
BRANCH   5  24
ATOM     24  C   UNL     1      -2.259  12.262  22.025  0.00  0.00    +0.000 C 
BRANCH  24  25
ATOM     25  C   UNL     1      -3.249  13.007  22.942  0.00  0.00    +0.000 A 
ATOM     26  C   UNL     1      -3.696  12.387  24.104  0.00  0.00    +0.000 A 
ATOM     27  N   UNL     1      -4.565  13.240  24.720  0.00  0.00    +0.000 N 
ATOM     28  C   UNL     1      -5.168  13.970  23.732  0.00  0.00    +0.000 A 
ATOM     29  C   UNL     1      -6.455  14.516  23.666  0.00  0.00    +0.000 A 
ATOM     30  C   UNL     1      -6.702  15.430  22.648  0.00  0.00    +0.000 A 
ATOM     31  C   UNL     1      -5.654  15.861  21.844  0.00  0.00    +0.000 A 
ATOM     32  C   UNL     1      -4.389  15.232  21.887  0.00  0.00    +0.000 A 
ATOM     33  C   UNL     1      -4.163  14.148  22.770  0.00  0.00    +0.000 A 
ATOM     34  H   UNL     1      -4.407  13.618  25.644  0.00  0.00    +0.000 HD
ENDBRANCH  24  25
ENDBRANCH   5  24
TORSDOF 4
ENDMDL
MODEL 7
REMARK VINA RESULT:      -7.3      3.698      6.923
REMARK  Name = 
REMARK  6 active torsions:
REMARK  status: ('A' for Active; 'I' for Inactive)
REMARK    1  A    between atoms: C_1  and  C_2
REMARK    2  A    between atoms: C_2  and  C_3
REMARK    3  A    between atoms: C_3  and  C_4
REMARK    4  A    between atoms: C_3  and  C_5
REMARK    5  A    between atoms: C_9  and  C_10
REMARK    6  A    between atoms: C_10  and  C_11
REMARK                            x       y       z     vdW  Elec       q    Type
REMARK                         _______ _______ _______ _____ _____    ______ ____
ROOT
ATOM      1  C   UNL     1       0.177  13.423  19.857  0.00  0.00    +0.000 C 
ATOM      2  N   UNL     1      -0.594  14.147  20.854  0.00  0.00    +0.000 N 
ATOM      3  C   UNL     1      -0.449  13.744  22.159  0.00  0.00    +0.000 C 
ATOM      4  O   UNL     1      -0.188  14.530  23.060  0.00  0.00    +0.000 OA
ATOM      5  C   UNL     1      -0.840  12.312  22.401  0.00  0.00    +0.000 C 
ATOM      6  N   UNL     1      -0.073  11.449  21.424  0.00  0.00    +0.000 N 
ATOM      7  C   UNL     1       0.238  11.916  20.142  0.00  0.00    +0.000 A 
ATOM      8  N   UNL     1       0.720  11.164  19.200  0.00  0.00    +0.000 NA
ATOM      9  C   UNL     1       1.082   9.852  19.472  0.00  0.00    +0.000 A 
ATOM     10  C   UNL     1       1.768   9.147  18.472  0.00  0.00    +0.000 A 
ATOM     11  C   UNL     1       2.253   7.861  18.719  0.00  0.00    +0.000 A 
ATOM     12 CL   UNL     1       3.112   7.072  17.443  0.00  0.00    +0.000 Cl
ATOM     13  C   UNL     1       2.039   7.284  19.979  0.00  0.00    +0.000 A 
ATOM     14 CL   UNL     1       2.637   5.696  20.350  0.00  0.00    +0.000 Cl
ATOM     15  C   UNL     1       1.343   7.981  20.973  0.00  0.00    +0.000 A 
ATOM     16  C   UNL     1       0.869   9.285  20.722  0.00  0.00    +0.000 A 
ATOM     17  C   UNL     1       0.167  10.111  21.743  0.00  0.00    +0.000 A 
ATOM     18  O   UNL     1      -0.157   9.593  22.802  0.00  0.00    +0.000 OA
ATOM     19  H   UNL     1      -0.537  15.157  20.766  0.00  0.00    +0.000 HD
ENDROOT
BRANCH   1  20
ATOM     20  C   UNL     1       1.576  14.095  19.652  0.00  0.00    +0.000 C 
ATOM     21  C   UNL     1       2.642  13.634  20.658  0.00  0.00    +0.000 C 
BRANCH  20  23
ATOM     22  C   UNL     1       3.208  15.057  17.896  0.00  0.00    +0.000 C 
ATOM     23  C   UNL     1       2.192  13.981  18.238  0.00  0.00    +0.000 C 
ENDBRANCH  20  23
ENDBRANCH   1  20
BRANCH   5  24
ATOM     24  C   UNL     1      -2.376  12.220  22.257  0.00  0.00    +0.000 C 
BRANCH  24  25
ATOM     25  C   UNL     1      -3.139  12.721  21.015  0.00  0.00    +0.000 A 
ATOM     26  C   UNL     1      -4.115  13.702  21.168  0.00  0.00    +0.000 A 
ATOM     27  N   UNL     1      -4.644  13.953  19.936  0.00  0.00    +0.000 N 
ATOM     28  C   UNL     1      -4.563  12.785  19.225  0.00  0.00    +0.000 A 
ATOM     29  C   UNL     1      -5.400  12.272  18.228  0.00  0.00    +0.000 A 
ATOM     30  C   UNL     1      -4.925  11.185  17.504  0.00  0.00    +0.000 A 
ATOM     31  C   UNL     1      -3.620  10.749  17.697  0.00  0.00    +0.000 A 
ATOM     32  C   UNL     1      -2.833  11.239  18.764  0.00  0.00    +0.000 A 
ATOM     33  C   UNL     1      -3.364  12.200  19.657  0.00  0.00    +0.000 A 
ATOM     34  H   UNL     1      -4.594  14.857  19.486  0.00  0.00    +0.000 HD
ENDBRANCH  24  25
ENDBRANCH   5  24
TORSDOF 4
ENDMDL
MODEL 8
REMARK VINA RESULT:      -7.3      8.673     11.857
REMARK  Name = 
REMARK  6 active torsions:
REMARK  status: ('A' for Active; 'I' for Inactive)
REMARK    1  A    between atoms: C_1  and  C_2
REMARK    2  A    between atoms: C_2  and  C_3
REMARK    3  A    between atoms: C_3  and  C_4
REMARK    4  A    between atoms: C_3  and  C_5
REMARK    5  A    between atoms: C_9  and  C_10
REMARK    6  A    between atoms: C_10  and  C_11
REMARK                            x       y       z     vdW  Elec       q    Type
REMARK                         _______ _______ _______ _____ _____    ______ ____
ROOT
ATOM      1  C   UNL     1       9.427  13.281  18.149  0.00  0.00    +0.000 C 
ATOM      2  N   UNL     1      10.090  14.234  17.274  0.00  0.00    +0.000 N 
ATOM      3  C   UNL     1      11.087  14.994  17.833  0.00  0.00    +0.000 C 
ATOM      4  O   UNL     1      12.199  15.087  17.329  0.00  0.00    +0.000 OA
ATOM      5  C   UNL     1      10.629  15.850  18.983  0.00  0.00    +0.000 C 
ATOM      6  N   UNL     1       9.936  14.952  19.983  0.00  0.00    +0.000 N 
ATOM      7  C   UNL     1       9.201  13.837  19.561  0.00  0.00    +0.000 A 
ATOM      8  N   UNL     1       8.432  13.145  20.345  0.00  0.00    +0.000 NA
ATOM      9  C   UNL     1       8.406  13.408  21.707  0.00  0.00    +0.000 A 
ATOM     10  C   UNL     1       7.706  12.513  22.529  0.00  0.00    +0.000 A 
ATOM     11  C   UNL     1       7.727  12.660  23.917  0.00  0.00    +0.000 A 
ATOM     12 CL   UNL     1       6.861  11.499  24.859  0.00  0.00    +0.000 Cl
ATOM     13  C   UNL     1       8.456  13.720  24.477  0.00  0.00    +0.000 A 
ATOM     14 CL   UNL     1       8.537  13.941  26.197  0.00  0.00    +0.000 Cl
ATOM     15  C   UNL     1       9.145  14.622  23.657  0.00  0.00    +0.000 A 
ATOM     16  C   UNL     1       9.130  14.458  22.257  0.00  0.00    +0.000 A 
ATOM     17  C   UNL     1       9.879  15.343  21.322  0.00  0.00    +0.000 A 
ATOM     18  O   UNL     1      10.410  16.352  21.761  0.00  0.00    +0.000 OA
ATOM     19  H   UNL     1      10.373  13.845  16.380  0.00  0.00    +0.000 HD
ENDROOT
BRANCH   1  20
ATOM     20  C   UNL     1      10.165  11.899  18.114  0.00  0.00    +0.000 C 
ATOM     21  C   UNL     1      11.132  11.680  19.287  0.00  0.00    +0.000 C 
BRANCH  20  23
ATOM     22  C   UNL     1       9.167   9.827  19.289  0.00  0.00    +0.000 C 
ATOM     23  C   UNL     1       9.266  10.644  18.012  0.00  0.00    +0.000 C 
ENDBRANCH  20  23
ENDBRANCH   1  20
BRANCH   5  24
ATOM     24  C   UNL     1       9.730  16.964  18.401  0.00  0.00    +0.000 C 
BRANCH  24  25
ATOM     25  C   UNL     1       8.269  17.184  18.839  0.00  0.00    +0.000 A 
ATOM     26  C   UNL     1       7.999  18.049  19.896  0.00  0.00    +0.000 A 
ATOM     27  N   UNL     1       6.649  18.054  20.091  0.00  0.00    +0.000 N 
ATOM     28  C   UNL     1       6.192  16.816  19.727  0.00  0.00    +0.000 A 
ATOM     29  C   UNL     1       5.118  16.067  20.219  0.00  0.00    +0.000 A 
ATOM     30  C   UNL     1       4.734  14.953  19.480  0.00  0.00    +0.000 A 
ATOM     31  C   UNL     1       5.323  14.714  18.245  0.00  0.00    +0.000 A 
ATOM     32  C   UNL     1       6.455  15.444  17.817  0.00  0.00    +0.000 A 
ATOM     33  C   UNL     1       7.007  16.451  18.646  0.00  0.00    +0.000 A 
ATOM     34  H   UNL     1       6.079  18.884  19.995  0.00  0.00    +0.000 HD
ENDBRANCH  24  25
ENDBRANCH   5  24
TORSDOF 4
ENDMDL
MODEL 9
REMARK VINA RESULT:      -7.3      3.081      6.088
REMARK  Name = 
REMARK  6 active torsions:
REMARK  status: ('A' for Active; 'I' for Inactive)
REMARK    1  A    between atoms: C_1  and  C_2
REMARK    2  A    between atoms: C_2  and  C_3
REMARK    3  A    between atoms: C_3  and  C_4
REMARK    4  A    between atoms: C_3  and  C_5
REMARK    5  A    between atoms: C_9  and  C_10
REMARK    6  A    between atoms: C_10  and  C_11
REMARK                            x       y       z     vdW  Elec       q    Type
REMARK                         _______ _______ _______ _____ _____    ______ ____
ROOT
ATOM      1  C   UNL     1      -1.427  11.768  18.284  0.00  0.00    +0.000 C 
ATOM      2  N   UNL     1      -0.083  11.280  18.025  0.00  0.00    +0.000 N 
ATOM      3  C   UNL     1       0.443  10.406  18.943  0.00  0.00    +0.000 C 
ATOM      4  O   UNL     1       0.933   9.332  18.617  0.00  0.00    +0.000 OA
ATOM      5  C   UNL     1       0.548  10.971  20.333  0.00  0.00    +0.000 C 
ATOM      6  N   UNL     1      -0.815  11.495  20.726  0.00  0.00    +0.000 N 
ATOM      7  C   UNL     1      -1.673  12.052  19.772  0.00  0.00    +0.000 A 
ATOM      8  N   UNL     1      -2.765  12.688  20.072  0.00  0.00    +0.000 NA
ATOM      9  C   UNL     1      -3.210  12.729  21.386  0.00  0.00    +0.000 A 
ATOM     10  C   UNL     1      -4.484  13.264  21.624  0.00  0.00    +0.000 A 
ATOM     11  C   UNL     1      -5.034  13.239  22.907  0.00  0.00    +0.000 A 
ATOM     12 CL   UNL     1      -6.621  13.894  23.110  0.00  0.00    +0.000 Cl
ATOM     13  C   UNL     1      -4.291  12.676  23.954  0.00  0.00    +0.000 A 
ATOM     14 CL   UNL     1      -4.931  12.598  25.566  0.00  0.00    +0.000 Cl
ATOM     15  C   UNL     1      -3.013  12.154  23.720  0.00  0.00    +0.000 A 
ATOM     16  C   UNL     1      -2.470  12.170  22.419  0.00  0.00    +0.000 A 
ATOM     17  C   UNL     1      -1.143  11.587  22.080  0.00  0.00    +0.000 A 
ATOM     18  O   UNL     1      -0.412  11.213  22.986  0.00  0.00    +0.000 OA
ATOM     19  H   UNL     1       0.062  10.957  17.074  0.00  0.00    +0.000 HD
ENDROOT
BRANCH   1  20
ATOM     20  C   UNL     1      -2.490  10.823  17.626  0.00  0.00    +0.000 C 
ATOM     21  C   UNL     1      -3.756  11.548  17.146  0.00  0.00    +0.000 C 
BRANCH  20  23
ATOM     22  C   UNL     1      -2.947   9.835  15.285  0.00  0.00    +0.000 C 
ATOM     23  C   UNL     1      -1.991   9.937  16.461  0.00  0.00    +0.000 C 
ENDBRANCH  20  23
ENDBRANCH   1  20
BRANCH   5  24
ATOM     24  C   UNL     1       1.659  12.045  20.313  0.00  0.00    +0.000 C 
BRANCH  24  25
ATOM     25  C   UNL     1       1.761  13.134  19.228  0.00  0.00    +0.000 A 
ATOM     26  C   UNL     1       2.876  13.161  18.395  0.00  0.00    +0.000 A 
ATOM     27  N   UNL     1       2.731  14.217  17.544  0.00  0.00    +0.000 N 
ATOM     28  C   UNL     1       2.016  15.171  18.217  0.00  0.00    +0.000 A 
ATOM     29  C   UNL     1       2.062  16.567  18.129  0.00  0.00    +0.000 A 
ATOM     30  C   UNL     1       1.037  17.273  18.747  0.00  0.00    +0.000 A 
ATOM     31  C   UNL     1      -0.039  16.582  19.293  0.00  0.00    +0.000 A 
ATOM     32  C   UNL     1      -0.013  15.176  19.433  0.00  0.00    +0.000 A 
ATOM     33  C   UNL     1       1.116  14.439  19.004  0.00  0.00    +0.000 A 
ATOM     34  H   UNL     1       2.673  14.115  16.540  0.00  0.00    +0.000 HD
ENDBRANCH  24  25
ENDBRANCH   5  24
TORSDOF 4
ENDMDL
