MODEL 1
REMARK VINA RESULT:      -6.8      0.000      0.000
REMARK  Name = 
REMARK  9 active torsions:
REMARK  status: ('A' for Active; 'I' for Inactive)
REMARK    1  A    between atoms: C_1  and  C_2
REMARK    2  A    between atoms: C_2  and  C_3
REMARK    3  A    between atoms: C_3  and  C_4
REMARK    4  A    between atoms: C_11  and  O_12
REMARK    5  A    between atoms: O_12  and  C_13
REMARK    6  A    between atoms: C_14  and  O_15
REMARK    7  A    between atoms: O_15  and  C_16
REMARK    8  A    between atoms: C_19  and  C_20
REMARK    9  A    between atoms: C_29  and  O_30
REMARK                            x       y       z     vdW  Elec       q    Type
REMARK                         _______ _______ _______ _____ _____    ______ ____
ROOT
ATOM      1  C   UNL     1       1.952  13.511  20.121  0.00  0.00    +0.000 C 
ATOM      2  O   UNL     1       2.796  13.415  19.237  0.00  0.00    +0.000 OA
ATOM      3  N   UNL     1       0.790  12.727  20.150  0.00  0.00    +0.000 N 
ATOM      4  C   UNL     1      -0.261  12.926  21.157  0.00  0.00    +0.000 C 
ATOM      5  C   UNL     1      -1.395  11.899  21.144  0.00  0.00    +0.000 C 
ATOM      6  C   UNL     1      -1.923  11.733  19.751  0.00  0.00    +0.000 A 
ATOM      7  C   UNL     1      -3.268  11.444  19.511  0.00  0.00    +0.000 A 
ATOM      8  C   UNL     1      -3.773  11.338  18.205  0.00  0.00    +0.000 A 
ATOM      9  C   UNL     1      -2.913  11.550  17.114  0.00  0.00    +0.000 A 
ATOM     10  C   UNL     1      -1.551  11.782  17.366  0.00  0.00    +0.000 A 
ATOM     11  C   UNL     1      -1.039  11.852  18.677  0.00  0.00    +0.000 A 
ATOM     12  C   UNL     1       0.473  11.957  18.931  0.00  0.00    +0.000 C 
ENDROOT
BRANCH  12  13
ATOM     13  C   UNL     1       1.102  10.570  18.914  0.00  0.00    +0.000 A 
ATOM     14  C   UNL     1       0.818   9.530  19.812  0.00  0.00    +0.000 A 
ATOM     15  C   UNL     1       1.386   8.250  19.618  0.00  0.00    +0.000 A 
ATOM     16  C   UNL     1       1.339   7.217  20.581  0.00  0.00    +0.000 A 
ATOM     17  C   UNL     1       2.038   6.060  20.298  0.00  0.00    +0.000 A 
ATOM     18  C   UNL     1       2.604   5.841  19.064  0.00  0.00    +0.000 A 
ATOM     19  C   UNL     1       2.601   6.796  18.085  0.00  0.00    +0.000 A 
ATOM     20  C   UNL     1       2.105   8.041  18.406  0.00  0.00    +0.000 A 
ATOM     21  N   UNL     1       2.432   9.031  17.584  0.00  0.00    +0.000 NA
ATOM     22  C   UNL     1       1.989  10.251  17.900  0.00  0.00    +0.000 A 
ATOM     23  O   UNL     1       3.298   4.670  19.007  0.00  0.00    +0.000 OA
ATOM     24  C   UNL     1       3.434   4.436  20.420  0.00  0.00    +0.000 C 
ATOM     25  O   UNL     1       2.371   5.067  21.174  0.00  0.00    +0.000 OA
BRANCH  22  26
ATOM     26  O   UNL     1       2.612  11.208  17.170  0.00  0.00    +0.000 OA
ATOM     27  H   UNL     1       3.361  11.388  17.771  0.00  0.00    +0.000 HD
ENDBRANCH  22  26
ENDBRANCH  12  13
BRANCH   8  28
ATOM     28  O   UNL     1      -5.112  11.040  18.197  0.00  0.00    +0.000 OA
ATOM     29  C   UNL     1      -6.051  12.091  18.031  0.00  0.00    +0.000 C 
ENDBRANCH   8  28
BRANCH   9  30
ATOM     30  O   UNL     1      -3.442  11.510  15.852  0.00  0.00    +0.000 OA
ATOM     31  C   UNL     1      -3.140  10.395  15.025  0.00  0.00    +0.000 C 
ENDBRANCH   9  30
BRANCH   1  32
ATOM     32  C   UNL     1       2.157  14.466  21.280  0.00  0.00    +0.000 C 
BRANCH  32  34
ATOM     33  C   UNL     1       1.429  16.758  20.564  0.00  0.00    +0.000 C 
ATOM     34  C   UNL     1       2.622  15.852  20.829  0.00  0.00    +0.000 C 
ENDBRANCH  32  34
ENDBRANCH   1  32
TORSDOF 6
ENDMDL
MODEL 2
REMARK VINA RESULT:      -6.4      3.107      7.740
REMARK  Name = 
REMARK  9 active torsions:
REMARK  status: ('A' for Active; 'I' for Inactive)
REMARK    1  A    between atoms: C_1  and  C_2
REMARK    2  A    between atoms: C_2  and  C_3
REMARK    3  A    between atoms: C_3  and  C_4
REMARK    4  A    between atoms: C_11  and  O_12
REMARK    5  A    between atoms: O_12  and  C_13
REMARK    6  A    between atoms: C_14  and  O_15
REMARK    7  A    between atoms: O_15  and  C_16
REMARK    8  A    between atoms: C_19  and  C_20
REMARK    9  A    between atoms: C_29  and  O_30
REMARK                            x       y       z     vdW  Elec       q    Type
REMARK                         _______ _______ _______ _____ _____    ______ ____
ROOT
ATOM      1  C   UNL     1       0.098  10.344  18.710  0.00  0.00    +0.000 C 
ATOM      2  O   UNL     1      -0.744  10.141  17.841  0.00  0.00    +0.000 OA
ATOM      3  N   UNL     1       0.123  11.511  19.486  0.00  0.00    +0.000 N 
ATOM      4  C   UNL     1       1.197  11.786  20.450  0.00  0.00    +0.000 C 
ATOM      5  C   UNL     1       1.005  13.029  21.322  0.00  0.00    +0.000 C 
ATOM      6  C   UNL     1       0.651  14.207  20.466  0.00  0.00    +0.000 A 
ATOM      7  C   UNL     1       1.055  15.501  20.804  0.00  0.00    +0.000 A 
ATOM      8  C   UNL     1       0.768  16.598  19.976  0.00  0.00    +0.000 A 
ATOM      9  C   UNL     1       0.079  16.390  18.770  0.00  0.00    +0.000 A 
ATOM     10  C   UNL     1      -0.372  15.095  18.467  0.00  0.00    +0.000 A 
ATOM     11  C   UNL     1      -0.115  14.000  19.317  0.00  0.00    +0.000 A 
ATOM     12  C   UNL     1      -0.742  12.624  19.047  0.00  0.00    +0.000 C 
ENDROOT
BRANCH  12  13
ATOM     13  C   UNL     1      -2.145  12.566  19.637  0.00  0.00    +0.000 A 
ATOM     14  C   UNL     1      -2.477  12.776  20.984  0.00  0.00    +0.000 A 
ATOM     15  C   UNL     1      -3.833  12.808  21.384  0.00  0.00    +0.000 A 
ATOM     16  C   UNL     1      -4.253  12.788  22.733  0.00  0.00    +0.000 A 
ATOM     17  C   UNL     1      -5.611  12.707  22.968  0.00  0.00    +0.000 A 
ATOM     18  C   UNL     1      -6.530  12.822  21.951  0.00  0.00    +0.000 A 
ATOM     19  C   UNL     1      -6.151  12.917  20.641  0.00  0.00    +0.000 A 
ATOM     20  C   UNL     1      -4.811  12.782  20.349  0.00  0.00    +0.000 A 
ATOM     21  N   UNL     1      -4.511  12.521  19.082  0.00  0.00    +0.000 NA
ATOM     22  C   UNL     1      -3.219  12.353  18.789  0.00  0.00    +0.000 A 
ATOM     23  O   UNL     1      -7.812  12.654  22.382  0.00  0.00    +0.000 OA
ATOM     24  C   UNL     1      -7.529  12.022  23.643  0.00  0.00    +0.000 C 
ATOM     25  O   UNL     1      -6.223  12.390  24.147  0.00  0.00    +0.000 OA
BRANCH  22  26
ATOM     26  O   UNL     1      -3.057  11.814  17.556  0.00  0.00    +0.000 OA
ATOM     27  H   UNL     1      -2.820  12.627  17.069  0.00  0.00    +0.000 HD
ENDBRANCH  22  26
ENDBRANCH  12  13
BRANCH   8  28
ATOM     28  O   UNL     1       1.245  17.773  20.501  0.00  0.00    +0.000 OA
ATOM     29  C   UNL     1       2.644  18.010  20.497  0.00  0.00    +0.000 C 
ENDBRANCH   8  28
BRANCH   9  30
ATOM     30  O   UNL     1      -0.130  17.463  17.946  0.00  0.00    +0.000 OA
ATOM     31  C   UNL     1      -1.312  18.233  18.121  0.00  0.00    +0.000 C 
ENDBRANCH   9  30
BRANCH   1  32
ATOM     32  C   UNL     1       1.143   9.293  19.029  0.00  0.00    +0.000 C 
BRANCH  32  34
ATOM     33  C   UNL     1       2.748   7.648  18.024  0.00  0.00    +0.000 C 
ATOM     34  C   UNL     1       2.063   8.994  17.845  0.00  0.00    +0.000 C 
ENDBRANCH  32  34
ENDBRANCH   1  32
TORSDOF 6
ENDMDL
MODEL 3
REMARK VINA RESULT:      -6.4      3.135      6.426
REMARK  Name = 
REMARK  9 active torsions:
REMARK  status: ('A' for Active; 'I' for Inactive)
REMARK    1  A    between atoms: C_1  and  C_2
REMARK    2  A    between atoms: C_2  and  C_3
REMARK    3  A    between atoms: C_3  and  C_4
REMARK    4  A    between atoms: C_11  and  O_12
REMARK    5  A    between atoms: O_12  and  C_13
REMARK    6  A    between atoms: C_14  and  O_15
REMARK    7  A    between atoms: O_15  and  C_16
REMARK    8  A    between atoms: C_19  and  C_20
REMARK    9  A    between atoms: C_29  and  O_30
REMARK                            x       y       z     vdW  Elec       q    Type
REMARK                         _______ _______ _______ _____ _____    ______ ____
ROOT
ATOM      1  C   UNL     1      -0.736  10.629  22.092  0.00  0.00    +0.000 C 
ATOM      2  O   UNL     1      -1.000  11.627  22.754  0.00  0.00    +0.000 OA
ATOM      3  N   UNL     1      -0.826  10.600  20.693  0.00  0.00    +0.000 N 
ATOM      4  C   UNL     1      -0.606   9.369  19.922  0.00  0.00    +0.000 C 
ATOM      5  C   UNL     1      -0.597   9.532  18.400  0.00  0.00    +0.000 C 
ATOM      6  C   UNL     1      -1.800  10.309  17.960  0.00  0.00    +0.000 A 
ATOM      7  C   UNL     1      -2.415  10.065  16.730  0.00  0.00    +0.000 A 
ATOM      8  C   UNL     1      -3.573  10.757  16.339  0.00  0.00    +0.000 A 
ATOM      9  C   UNL     1      -4.139  11.702  17.212  0.00  0.00    +0.000 A 
ATOM     10  C   UNL     1      -3.480  11.982  18.419  0.00  0.00    +0.000 A 
ATOM     11  C   UNL     1      -2.298  11.312  18.795  0.00  0.00    +0.000 A 
ATOM     12  C   UNL     1      -1.511  11.735  20.044  0.00  0.00    +0.000 C 
ENDROOT
BRANCH  12  13
ATOM     13  C   UNL     1      -0.577  12.889  19.706  0.00  0.00    +0.000 A 
ATOM     14  C   UNL     1       0.684  12.774  19.100  0.00  0.00    +0.000 A 
ATOM     15  C   UNL     1       1.404  13.934  18.734  0.00  0.00    +0.000 A 
ATOM     16  C   UNL     1       2.758  13.920  18.331  0.00  0.00    +0.000 A 
ATOM     17  C   UNL     1       3.362  15.143  18.115  0.00  0.00    +0.000 A 
ATOM     18  C   UNL     1       2.643  16.315  18.111  0.00  0.00    +0.000 A 
ATOM     19  C   UNL     1       1.312  16.349  18.425  0.00  0.00    +0.000 A 
ATOM     20  C   UNL     1       0.726  15.180  18.858  0.00  0.00    +0.000 A 
ATOM     21  N   UNL     1      -0.437  15.306  19.487  0.00  0.00    +0.000 NA
ATOM     22  C   UNL     1      -1.002  14.185  19.944  0.00  0.00    +0.000 A 
ATOM     23  O   UNL     1       3.431  17.413  17.939  0.00  0.00    +0.000 OA
ATOM     24  C   UNL     1       4.699  16.815  18.261  0.00  0.00    +0.000 C 
ATOM     25  O   UNL     1       4.701  15.389  18.005  0.00  0.00    +0.000 OA
BRANCH  22  26
ATOM     26  O   UNL     1      -2.014  14.457  20.804  0.00  0.00    +0.000 OA
ATOM     27  H   UNL     1      -1.621  14.086  21.617  0.00  0.00    +0.000 HD
ENDBRANCH  22  26
ENDBRANCH  12  13
BRANCH   8  28
ATOM     28  O   UNL     1      -4.004  10.371  15.095  0.00  0.00    +0.000 OA
ATOM     29  C   UNL     1      -3.042  10.040  14.105  0.00  0.00    +0.000 C 
ENDBRANCH   8  28
BRANCH   9  30
ATOM     30  O   UNL     1      -5.305  12.315  16.839  0.00  0.00    +0.000 OA
ATOM     31  C   UNL     1      -6.430  12.216  17.701  0.00  0.00    +0.000 C 
ENDBRANCH   9  30
BRANCH   1  32
ATOM     32  C   UNL     1      -0.234   9.368  22.767  0.00  0.00    +0.000 C 
BRANCH  32  34
ATOM     33  C   UNL     1       1.674   8.208  21.624  0.00  0.00    +0.000 C 
ATOM     34  C   UNL     1       1.286   9.220  22.691  0.00  0.00    +0.000 C 
ENDBRANCH  32  34
ENDBRANCH   1  32
TORSDOF 6
ENDMDL
MODEL 4
REMARK VINA RESULT:      -6.1      2.555      7.515
REMARK  Name = 
REMARK  9 active torsions:
REMARK  status: ('A' for Active; 'I' for Inactive)
REMARK    1  A    between atoms: C_1  and  C_2
REMARK    2  A    between atoms: C_2  and  C_3
REMARK    3  A    between atoms: C_3  and  C_4
REMARK    4  A    between atoms: C_11  and  O_12
REMARK    5  A    between atoms: O_12  and  C_13
REMARK    6  A    between atoms: C_14  and  O_15
REMARK    7  A    between atoms: O_15  and  C_16
REMARK    8  A    between atoms: C_19  and  C_20
REMARK    9  A    between atoms: C_29  and  O_30
REMARK                            x       y       z     vdW  Elec       q    Type
REMARK                         _______ _______ _______ _____ _____    ______ ____
ROOT
ATOM      1  C   UNL     1       0.636   9.970  18.643  0.00  0.00    +0.000 C 
ATOM      2  O   UNL     1       0.009   9.780  17.606  0.00  0.00    +0.000 OA
ATOM      3  N   UNL     1       0.481  11.123  19.424  0.00  0.00    +0.000 N 
ATOM      4  C   UNL     1       1.314  11.384  20.606  0.00  0.00    +0.000 C 
ATOM      5  C   UNL     1       0.925  12.611  21.434  0.00  0.00    +0.000 C 
ATOM      6  C   UNL     1       0.761  13.803  20.540  0.00  0.00    +0.000 A 
ATOM      7  C   UNL     1       1.071  15.092  20.980  0.00  0.00    +0.000 A 
ATOM      8  C   UNL     1       0.966  16.203  20.127  0.00  0.00    +0.000 A 
ATOM      9  C   UNL     1       0.563  16.013  18.795  0.00  0.00    +0.000 A 
ATOM     10  C   UNL     1       0.198  14.723  18.379  0.00  0.00    +0.000 A 
ATOM     11  C   UNL     1       0.269  13.614  19.247  0.00  0.00    +0.000 A 
ATOM     12  C   UNL     1      -0.273  12.241  18.822  0.00  0.00    +0.000 C 
ENDROOT
BRANCH  12  13
ATOM     13  C   UNL     1      -1.772  12.168  19.087  0.00  0.00    +0.000 A 
ATOM     14  C   UNL     1      -2.406  12.475  20.300  0.00  0.00    +0.000 A 
ATOM     15  C   UNL     1      -3.818  12.478  20.382  0.00  0.00    +0.000 A 
ATOM     16  C   UNL     1      -4.532  12.552  21.599  0.00  0.00    +0.000 A 
ATOM     17  C   UNL     1      -5.905  12.428  21.531  0.00  0.00    +0.000 A 
ATOM     18  C   UNL     1      -6.572  12.416  20.328  0.00  0.00    +0.000 A 
ATOM     19  C   UNL     1      -5.909  12.418  19.132  0.00  0.00    +0.000 A 
ATOM     20  C   UNL     1      -4.534  12.321  19.161  0.00  0.00    +0.000 A 
ATOM     21  N   UNL     1      -3.948  11.968  18.023  0.00  0.00    +0.000 NA
ATOM     22  C   UNL     1      -2.619  11.835  18.044  0.00  0.00    +0.000 A 
ATOM     23  O   UNL     1      -7.913  12.226  20.475  0.00  0.00    +0.000 OA
ATOM     24  C   UNL     1      -7.908  11.715  21.820  0.00  0.00    +0.000 C 
ATOM     25  O   UNL     1      -6.760  12.184  22.568  0.00  0.00    +0.000 OA
BRANCH  22  26
ATOM     26  O   UNL     1      -2.168  11.203  16.932  0.00  0.00    +0.000 OA
ATOM     27  H   UNL     1      -1.602  10.534  17.363  0.00  0.00    +0.000 HD
ENDBRANCH  22  26
ENDBRANCH  12  13
BRANCH   8  28
ATOM     28  O   UNL     1       1.308  17.370  20.763  0.00  0.00    +0.000 OA
ATOM     29  C   UNL     1       1.500  17.357  22.170  0.00  0.00    +0.000 C 
ENDBRANCH   8  28
BRANCH   9  30
ATOM     30  O   UNL     1       0.534  17.100  17.963  0.00  0.00    +0.000 OA
ATOM     31  C   UNL     1      -0.722  17.696  17.669  0.00  0.00    +0.000 C 
ENDBRANCH   9  30
BRANCH   1  32
ATOM     32  C   UNL     1       1.592   8.916  19.168  0.00  0.00    +0.000 C 
BRANCH  32  34
ATOM     33  C   UNL     1       2.588   6.712  18.503  0.00  0.00    +0.000 C 
ATOM     34  C   UNL     1       2.279   8.131  18.050  0.00  0.00    +0.000 C 
ENDBRANCH  32  34
ENDBRANCH   1  32
TORSDOF 6
ENDMDL
MODEL 5
REMARK VINA RESULT:      -6.1      1.280      1.676
REMARK  Name = 
REMARK  9 active torsions:
REMARK  status: ('A' for Active; 'I' for Inactive)
REMARK    1  A    between atoms: C_1  and  C_2
REMARK    2  A    between atoms: C_2  and  C_3
REMARK    3  A    between atoms: C_3  and  C_4
REMARK    4  A    between atoms: C_11  and  O_12
REMARK    5  A    between atoms: O_12  and  C_13
REMARK    6  A    between atoms: C_14  and  O_15
REMARK    7  A    between atoms: O_15  and  C_16
REMARK    8  A    between atoms: C_19  and  C_20
REMARK    9  A    between atoms: C_29  and  O_30
REMARK                            x       y       z     vdW  Elec       q    Type
REMARK                         _______ _______ _______ _____ _____    ______ ____
ROOT
ATOM      1  C   UNL     1       2.769  13.927  19.437  0.00  0.00    +0.000 C 
ATOM      2  O   UNL     1       3.192  13.660  18.317  0.00  0.00    +0.000 OA
ATOM      3  N   UNL     1       1.660  13.283  20.003  0.00  0.00    +0.000 N 
ATOM      4  C   UNL     1       1.102  13.686  21.301  0.00  0.00    +0.000 C 
ATOM      5  C   UNL     1      -0.015  12.795  21.848  0.00  0.00    +0.000 C 
ATOM      6  C   UNL     1      -1.055  12.567  20.793  0.00  0.00    +0.000 A 
ATOM      7  C   UNL     1      -2.404  12.411  21.120  0.00  0.00    +0.000 A 
ATOM      8  C   UNL     1      -3.385  12.249  20.129  0.00  0.00    +0.000 A 
ATOM      9  C   UNL     1      -3.007  12.268  18.776  0.00  0.00    +0.000 A 
ATOM     10  C   UNL     1      -1.642  12.367  18.459  0.00  0.00    +0.000 A 
ATOM     11  C   UNL     1      -0.655  12.493  19.457  0.00  0.00    +0.000 A 
ATOM     12  C   UNL     1       0.839  12.450  19.102  0.00  0.00    +0.000 C 
ENDROOT
BRANCH  12  13
ATOM     13  C   UNL     1       1.314  11.005  19.018  0.00  0.00    +0.000 A 
ATOM     14  C   UNL     1       1.052  10.000  19.962  0.00  0.00    +0.000 A 
ATOM     15  C   UNL     1       1.453   8.668  19.710  0.00  0.00    +0.000 A 
ATOM     16  C   UNL     1       1.434   7.646  20.686  0.00  0.00    +0.000 A 
ATOM     17  C   UNL     1       1.964   6.423  20.326  0.00  0.00    +0.000 A 
ATOM     18  C   UNL     1       2.328   6.146  19.029  0.00  0.00    +0.000 A 
ATOM     19  C   UNL     1       2.287   7.095  18.046  0.00  0.00    +0.000 A 
ATOM     20  C   UNL     1       1.971   8.385  18.414  0.00  0.00    +0.000 A 
ATOM     21  N   UNL     1       2.281   9.336  17.540  0.00  0.00    +0.000 NA
ATOM     22  C   UNL     1       2.014  10.596  17.896  0.00  0.00    +0.000 A 
ATOM     23  O   UNL     1       2.883   4.909  18.894  0.00  0.00    +0.000 OA
ATOM     24  C   UNL     1       3.190   4.663  20.278  0.00  0.00    +0.000 C 
ATOM     25  O   UNL     1       2.311   5.401  21.162  0.00  0.00    +0.000 OA
BRANCH  22  26
ATOM     26  O   UNL     1       2.625  11.483  17.073  0.00  0.00    +0.000 OA
ATOM     27  H   UNL     1       2.881  10.869  16.359  0.00  0.00    +0.000 HD
ENDBRANCH  22  26
ENDBRANCH  12  13
BRANCH   8  28
ATOM     28  O   UNL     1      -4.638  12.103  20.668  0.00  0.00    +0.000 OA
ATOM     29  C   UNL     1      -4.956  12.792  21.868  0.00  0.00    +0.000 C 
ENDBRANCH   8  28
BRANCH   9  30
ATOM     30  O   UNL     1      -3.988  12.177  17.825  0.00  0.00    +0.000 OA
ATOM     31  C   UNL     1      -4.323  10.893  17.315  0.00  0.00    +0.000 C 
ENDBRANCH   9  30
BRANCH   1  32
ATOM     32  C   UNL     1       3.476  14.951  20.302  0.00  0.00    +0.000 C 
BRANCH  32  34
ATOM     33  C   UNL     1       5.632  16.094  20.884  0.00  0.00    +0.000 C 
ATOM     34  C   UNL     1       4.957  15.102  19.950  0.00  0.00    +0.000 C 
ENDBRANCH  32  34
ENDBRANCH   1  32
TORSDOF 6
ENDMDL
MODEL 6
REMARK VINA RESULT:      -5.9      2.297      6.659
REMARK  Name = 
REMARK  9 active torsions:
REMARK  status: ('A' for Active; 'I' for Inactive)
REMARK    1  A    between atoms: C_1  and  C_2
REMARK    2  A    between atoms: C_2  and  C_3
REMARK    3  A    between atoms: C_3  and  C_4
REMARK    4  A    between atoms: C_11  and  O_12
REMARK    5  A    between atoms: O_12  and  C_13
REMARK    6  A    between atoms: C_14  and  O_15
REMARK    7  A    between atoms: O_15  and  C_16
REMARK    8  A    between atoms: C_19  and  C_20
REMARK    9  A    between atoms: C_29  and  O_30
REMARK                            x       y       z     vdW  Elec       q    Type
REMARK                         _______ _______ _______ _____ _____    ______ ____
ROOT
ATOM      1  C   UNL     1       1.193   9.213  21.540  0.00  0.00    +0.000 C 
ATOM      2  O   UNL     1       1.087   9.871  22.570  0.00  0.00    +0.000 OA
ATOM      3  N   UNL     1       0.749   9.677  20.294  0.00  0.00    +0.000 N 
ATOM      4  C   UNL     1       0.789   8.837  19.089  0.00  0.00    +0.000 C 
ATOM      5  C   UNL     1       0.405   9.533  17.782  0.00  0.00    +0.000 C 
ATOM      6  C   UNL     1      -0.886  10.275  17.954  0.00  0.00    +0.000 A 
ATOM      7  C   UNL     1      -1.791  10.418  16.900  0.00  0.00    +0.000 A 
ATOM      8  C   UNL     1      -3.024  11.067  17.074  0.00  0.00    +0.000 A 
ATOM      9  C   UNL     1      -3.366  11.566  18.342  0.00  0.00    +0.000 A 
ATOM     10  C   UNL     1      -2.426  11.468  19.381  0.00  0.00    +0.000 A 
ATOM     11  C   UNL     1      -1.174  10.848  19.195  0.00  0.00    +0.000 A 
ATOM     12  C   UNL     1      -0.103  10.883  20.295  0.00  0.00    +0.000 C 
ENDROOT
BRANCH  12  13
ATOM     13  C   UNL     1       0.691  12.181  20.209  0.00  0.00    +0.000 A 
ATOM     14  C   UNL     1       1.588  12.527  19.187  0.00  0.00    +0.000 A 
ATOM     15  C   UNL     1       2.176  13.813  19.164  0.00  0.00    +0.000 A 
ATOM     16  C   UNL     1       3.248  14.169  18.316  0.00  0.00    +0.000 A 
ATOM     17  C   UNL     1       3.793  15.427  18.486  0.00  0.00    +0.000 A 
ATOM     18  C   UNL     1       3.214  16.361  19.312  0.00  0.00    +0.000 A 
ATOM     19  C   UNL     1       2.129  16.066  20.091  0.00  0.00    +0.000 A 
ATOM     20  C   UNL     1       1.690  14.760  20.111  0.00  0.00    +0.000 A 
ATOM     21  N   UNL     1       0.891  14.426  21.118  0.00  0.00    +0.000 NA
ATOM     22  C   UNL     1       0.486  13.154  21.171  0.00  0.00    +0.000 A 
ATOM     23  O   UNL     1       3.937  17.513  19.389  0.00  0.00    +0.000 OA
ATOM     24  C   UNL     1       5.184  17.014  18.873  0.00  0.00    +0.000 C 
ATOM     25  O   UNL     1       4.987  15.876  17.999  0.00  0.00    +0.000 OA
BRANCH  22  26
ATOM     26  O   UNL     1      -0.073  12.863  22.372  0.00  0.00    +0.000 OA
ATOM     27  H   UNL     1       0.733  12.578  22.845  0.00  0.00    +0.000 HD
ENDBRANCH  22  26
ENDBRANCH  12  13
BRANCH   8  28
ATOM     28  O   UNL     1      -3.751  11.105  15.911  0.00  0.00    +0.000 OA
ATOM     29  C   UNL     1      -3.299  10.357  14.792  0.00  0.00    +0.000 C 
ENDBRANCH   8  28
BRANCH   9  30
ATOM     30  O   UNL     1      -4.601  12.134  18.506  0.00  0.00    +0.000 OA
ATOM     31  C   UNL     1      -5.124  12.255  19.821  0.00  0.00    +0.000 C 
ENDBRANCH   9  30
BRANCH   1  32
ATOM     32  C   UNL     1       1.876   7.860  21.559  0.00  0.00    +0.000 C 
BRANCH  32  34
ATOM     33  C   UNL     1       1.823   5.576  20.522  0.00  0.00    +0.000 C 
ATOM     34  C   UNL     1       0.983   6.739  21.028  0.00  0.00    +0.000 C 
ENDBRANCH  32  34
ENDBRANCH   1  32
TORSDOF 6
ENDMDL
MODEL 7
REMARK VINA RESULT:      -5.8      2.646      5.746
REMARK  Name = 
REMARK  9 active torsions:
REMARK  status: ('A' for Active; 'I' for Inactive)
REMARK    1  A    between atoms: C_1  and  C_2
REMARK    2  A    between atoms: C_2  and  C_3
REMARK    3  A    between atoms: C_3  and  C_4
REMARK    4  A    between atoms: C_11  and  O_12
REMARK    5  A    between atoms: O_12  and  C_13
REMARK    6  A    between atoms: C_14  and  O_15
REMARK    7  A    between atoms: O_15  and  C_16
REMARK    8  A    between atoms: C_19  and  C_20
REMARK    9  A    between atoms: C_29  and  O_30
REMARK                            x       y       z     vdW  Elec       q    Type
REMARK                         _______ _______ _______ _____ _____    ______ ____
ROOT
ATOM      1  C   UNL     1      -2.226  12.400  21.136  0.00  0.00    +0.000 C 
ATOM      2  O   UNL     1      -2.173  11.819  22.215  0.00  0.00    +0.000 OA
ATOM      3  N   UNL     1      -1.106  12.575  20.312  0.00  0.00    +0.000 N 
ATOM      4  C   UNL     1      -1.164  13.362  19.072  0.00  0.00    +0.000 C 
ATOM      5  C   UNL     1       0.101  13.338  18.211  0.00  0.00    +0.000 C 
ATOM      6  C   UNL     1       1.303  13.637  19.056  0.00  0.00    +0.000 A 
ATOM      7  C   UNL     1       2.406  14.319  18.538  0.00  0.00    +0.000 A 
ATOM      8  C   UNL     1       3.511  14.644  19.342  0.00  0.00    +0.000 A 
ATOM      9  C   UNL     1       3.498  14.296  20.703  0.00  0.00    +0.000 A 
ATOM     10  C   UNL     1       2.411  13.560  21.200  0.00  0.00    +0.000 A 
ATOM     11  C   UNL     1       1.319  13.203  20.383  0.00  0.00    +0.000 A 
ATOM     12  C   UNL     1       0.213  12.273  20.903  0.00  0.00    +0.000 C 
ENDROOT
BRANCH  12  13
ATOM     13  C   UNL     1       0.631  10.818  20.730  0.00  0.00    +0.000 A 
ATOM     14  C   UNL     1       1.065  10.226  19.534  0.00  0.00    +0.000 A 
ATOM     15  C   UNL     1       1.535   8.893  19.532  0.00  0.00    +0.000 A 
ATOM     16  C   UNL     1       1.776   8.149  18.356  0.00  0.00    +0.000 A 
ATOM     17  C   UNL     1       2.123   6.821  18.511  0.00  0.00    +0.000 A 
ATOM     18  C   UNL     1       2.401   6.286  19.747  0.00  0.00    +0.000 A 
ATOM     19  C   UNL     1       2.247   7.005  20.899  0.00  0.00    +0.000 A 
ATOM     20  C   UNL     1       1.695   8.264  20.800  0.00  0.00    +0.000 A 
ATOM     21  N   UNL     1       1.230   8.789  21.928  0.00  0.00    +0.000 NA
ATOM     22  C   UNL     1       0.659   9.994  21.843  0.00  0.00    +0.000 A 
ATOM     23  O   UNL     1       2.663   4.950  19.692  0.00  0.00    +0.000 OA
ATOM     24  C   UNL     1       2.107   4.679  18.393  0.00  0.00    +0.000 C 
ATOM     25  O   UNL     1       2.122   5.854  17.547  0.00  0.00    +0.000 OA
BRANCH  22  26
ATOM     26  O   UNL     1      -0.025  10.298  22.973  0.00  0.00    +0.000 OA
ATOM     27  H   UNL     1      -0.115   9.397  23.337  0.00  0.00    +0.000 HD
ENDBRANCH  22  26
ENDBRANCH  12  13
BRANCH   8  28
ATOM     28  O   UNL     1       4.483  15.303  18.633  0.00  0.00    +0.000 OA
ATOM     29  C   UNL     1       5.423  14.545  17.886  0.00  0.00    +0.000 C 
ENDBRANCH   8  28
BRANCH   9  30
ATOM     30  O   UNL     1       4.555  14.683  21.483  0.00  0.00    +0.000 OA
ATOM     31  C   UNL     1       4.407  15.833  22.305  0.00  0.00    +0.000 C 
ENDBRANCH   9  30
BRANCH   1  32
ATOM     32  C   UNL     1      -3.548  12.918  20.606  0.00  0.00    +0.000 C 
BRANCH  32  34
ATOM     33  C   UNL     1      -5.786  12.937  21.740  0.00  0.00    +0.000 C 
ATOM     34  C   UNL     1      -4.405  13.572  21.691  0.00  0.00    +0.000 C 
ENDBRANCH  32  34
ENDBRANCH   1  32
TORSDOF 6
ENDMDL
MODEL 8
REMARK VINA RESULT:      -5.8      3.168      7.658
REMARK  Name = 
REMARK  9 active torsions:
REMARK  status: ('A' for Active; 'I' for Inactive)
REMARK    1  A    between atoms: C_1  and  C_2
REMARK    2  A    between atoms: C_2  and  C_3
REMARK    3  A    between atoms: C_3  and  C_4
REMARK    4  A    between atoms: C_11  and  O_12
REMARK    5  A    between atoms: O_12  and  C_13
REMARK    6  A    between atoms: C_14  and  O_15
REMARK    7  A    between atoms: O_15  and  C_16
REMARK    8  A    between atoms: C_19  and  C_20
REMARK    9  A    between atoms: C_29  and  O_30
REMARK                            x       y       z     vdW  Elec       q    Type
REMARK                         _______ _______ _______ _____ _____    ______ ____
ROOT
ATOM      1  C   UNL     1       0.335  10.424  19.245  0.00  0.00    +0.000 C 
ATOM      2  O   UNL     1      -0.441  10.065  18.365  0.00  0.00    +0.000 OA
ATOM      3  N   UNL     1       0.237  11.668  19.884  0.00  0.00    +0.000 N 
ATOM      4  C   UNL     1       1.234  12.124  20.861  0.00  0.00    +0.000 C 
ATOM      5  C   UNL     1       0.910  13.438  21.575  0.00  0.00    +0.000 C 
ATOM      6  C   UNL     1       0.527  14.486  20.575  0.00  0.00    +0.000 A 
ATOM      7  C   UNL     1       0.822  15.835  20.783  0.00  0.00    +0.000 A 
ATOM      8  C   UNL     1       0.509  16.811  19.822  0.00  0.00    +0.000 A 
ATOM      9  C   UNL     1      -0.094  16.421  18.615  0.00  0.00    +0.000 A 
ATOM     10  C   UNL     1      -0.440  15.071  18.441  0.00  0.00    +0.000 A 
ATOM     11  C   UNL     1      -0.158  14.099  19.421  0.00  0.00    +0.000 A 
ATOM     12  C   UNL     1      -0.675  12.659  19.279  0.00  0.00    +0.000 C 
ENDROOT
BRANCH  12  13
ATOM     13  C   UNL     1      -2.102  12.564  19.803  0.00  0.00    +0.000 A 
ATOM     14  C   UNL     1      -2.536  12.964  21.076  0.00  0.00    +0.000 A 
ATOM     15  C   UNL     1      -3.912  12.930  21.400  0.00  0.00    +0.000 A 
ATOM     16  C   UNL     1      -4.413  13.096  22.710  0.00  0.00    +0.000 A 
ATOM     17  C   UNL     1      -5.771  12.923  22.891  0.00  0.00    +0.000 A 
ATOM     18  C   UNL     1      -6.630  12.774  21.828  0.00  0.00    +0.000 A 
ATOM     19  C   UNL     1      -6.179  12.683  20.540  0.00  0.00    +0.000 A 
ATOM     20  C   UNL     1      -4.816  12.634  20.340  0.00  0.00    +0.000 A 
ATOM     21  N   UNL     1      -4.414  12.193  19.153  0.00  0.00    +0.000 NA
ATOM     22  C   UNL     1      -3.096  12.106  18.956  0.00  0.00    +0.000 A 
ATOM     23  O   UNL     1      -7.917  12.556  22.219  0.00  0.00    +0.000 OA
ATOM     24  C   UNL     1      -7.660  12.177  23.583  0.00  0.00    +0.000 C 
ATOM     25  O   UNL     1      -6.426  12.751  24.077  0.00  0.00    +0.000 OA
BRANCH  22  26
ATOM     26  O   UNL     1      -2.809  11.385  17.844  0.00  0.00    +0.000 OA
ATOM     27  H   UNL     1      -1.982  11.835  17.585  0.00  0.00    +0.000 HD
ENDBRANCH  22  26
ENDBRANCH  12  13
BRANCH   8  28
ATOM     28  O   UNL     1       0.876  18.068  20.233  0.00  0.00    +0.000 OA
ATOM     29  C   UNL     1       0.621  18.457  21.574  0.00  0.00    +0.000 C 
ENDBRANCH   8  28
BRANCH   9  30
ATOM     30  O   UNL     1      -0.328  17.379  17.666  0.00  0.00    +0.000 OA
ATOM     31  C   UNL     1      -1.397  18.292  17.872  0.00  0.00    +0.000 C 
ENDBRANCH   9  30
BRANCH   1  32
ATOM     32  C   UNL     1       1.428   9.493  19.732  0.00  0.00    +0.000 C 
BRANCH  32  34
ATOM     33  C   UNL     1      -0.056   8.806  21.635  0.00  0.00    +0.000 C 
ATOM     34  C   UNL     1       0.885   8.316  20.545  0.00  0.00    +0.000 C 
ENDBRANCH  32  34
ENDBRANCH   1  32
TORSDOF 6
ENDMDL
MODEL 9
REMARK VINA RESULT:      -5.8      6.442     10.903
REMARK  Name = 
REMARK  9 active torsions:
REMARK  status: ('A' for Active; 'I' for Inactive)
REMARK    1  A    between atoms: C_1  and  C_2
REMARK    2  A    between atoms: C_2  and  C_3
REMARK    3  A    between atoms: C_3  and  C_4
REMARK    4  A    between atoms: C_11  and  O_12
REMARK    5  A    between atoms: O_12  and  C_13
REMARK    6  A    between atoms: C_14  and  O_15
REMARK    7  A    between atoms: O_15  and  C_16
REMARK    8  A    between atoms: C_19  and  C_20
REMARK    9  A    between atoms: C_29  and  O_30
REMARK                            x       y       z     vdW  Elec       q    Type
REMARK                         _______ _______ _______ _____ _____    ______ ____
ROOT
ATOM      1  C   UNL     1       8.281  14.594  25.353  0.00  0.00    +0.000 C 
ATOM      2  O   UNL     1       7.369  13.858  25.716  0.00  0.00    +0.000 OA
ATOM      3  N   UNL     1       8.667  14.720  24.011  0.00  0.00    +0.000 N 
ATOM      4  C   UNL     1       9.827  15.525  23.605  0.00  0.00    +0.000 C 
ATOM      5  C   UNL     1      10.031  15.680  22.096  0.00  0.00    +0.000 C 
ATOM      6  C   UNL     1       9.967  14.340  21.428  0.00  0.00    +0.000 A 
ATOM      7  C   UNL     1      10.728  14.054  20.292  0.00  0.00    +0.000 A 
ATOM      8  C   UNL     1      10.708  12.783  19.697  0.00  0.00    +0.000 A 
ATOM      9  C   UNL     1       9.923  11.767  20.268  0.00  0.00    +0.000 A 
ATOM     10  C   UNL     1       9.118  12.080  21.375  0.00  0.00    +0.000 A 
ATOM     11  C   UNL     1       9.112  13.366  21.950  0.00  0.00    +0.000 A 
ATOM     12  C   UNL     1       8.118  13.731  23.062  0.00  0.00    +0.000 C 
ENDROOT
BRANCH  12  13
ATOM     13  C   UNL     1       6.787  14.155  22.454  0.00  0.00    +0.000 A 
ATOM     14  C   UNL     1       6.612  15.140  21.470  0.00  0.00    +0.000 A 
ATOM     15  C   UNL     1       5.334  15.359  20.904  0.00  0.00    +0.000 A 
ATOM     16  C   UNL     1       5.020  16.465  20.083  0.00  0.00    +0.000 A 
ATOM     17  C   UNL     1       3.702  16.608  19.698  0.00  0.00    +0.000 A 
ATOM     18  C   UNL     1       2.766  15.632  19.945  0.00  0.00    +0.000 A 
ATOM     19  C   UNL     1       3.060  14.513  20.675  0.00  0.00    +0.000 A 
ATOM     20  C   UNL     1       4.306  14.440  21.260  0.00  0.00    +0.000 A 
ATOM     21  N   UNL     1       4.444  13.547  22.234  0.00  0.00    +0.000 NA
ATOM     22  C   UNL     1       5.635  13.488  22.835  0.00  0.00    +0.000 A 
ATOM     23  O   UNL     1       1.515  15.991  19.541  0.00  0.00    +0.000 OA
ATOM     24  C   UNL     1       1.730  17.408  19.425  0.00  0.00    +0.000 C 
ATOM     25  O   UNL     1       3.120  17.721  19.163  0.00  0.00    +0.000 OA
BRANCH  22  26
ATOM     26  O   UNL     1       5.575  12.765  23.981  0.00  0.00    +0.000 OA
ATOM     27  H   UNL     1       6.533  12.672  24.146  0.00  0.00    +0.000 HD
ENDBRANCH  22  26
ENDBRANCH  12  13
BRANCH   8  28
ATOM     28  O   UNL     1      11.517  12.724  18.590  0.00  0.00    +0.000 OA
ATOM     29  C   UNL     1      10.951  12.960  17.310  0.00  0.00    +0.000 C 
ENDBRANCH   8  28
BRANCH   9  30
ATOM     30  O   UNL     1       9.972  10.517  19.711  0.00  0.00    +0.000 OA
ATOM     31  C   UNL     1       8.940  10.133  18.812  0.00  0.00    +0.000 C 
ENDBRANCH   9  30
BRANCH   1  32
ATOM     32  C   UNL     1       9.013  15.463  26.356  0.00  0.00    +0.000 C 
BRANCH  32  34
ATOM     33  C   UNL     1       7.683  17.559  25.988  0.00  0.00    +0.000 C 
ATOM     34  C   UNL     1       8.106  16.510  27.005  0.00  0.00    +0.000 C 
ENDBRANCH  32  34
ENDBRANCH   1  32
TORSDOF 6
ENDMDL
