MODEL 1
REMARK VINA RESULT:      -7.8      0.000      0.000
REMARK  Name = 
REMARK  5 active torsions:
REMARK  status: ('A' for Active; 'I' for Inactive)
REMARK    1  A    between atoms: C_2  and  C_4
REMARK    2  A    between atoms: C_4  and  N_5
REMARK    3  A    between atoms: C_6  and  C_8
REMARK    4  A    between atoms: C_14  and  O_15
REMARK    5  A    between atoms: O_15  and  C_16
REMARK                            x       y       z     vdW  Elec       q    Type
REMARK                         _______ _______ _______ _____ _____    ______ ____
ROOT
ATOM      1  C   UNL     1       3.753   6.559  17.930  0.00  0.00    +0.000 A 
ATOM      2  C   UNL     1       3.041   7.744  17.631  0.00  0.00    +0.000 A 
ATOM      3  C   UNL     1       2.133   8.291  18.536  0.00  0.00    +0.000 A 
ATOM      4 CL   UNL     1       1.246   9.701  18.107  0.00  0.00    +0.000 Cl
ATOM      5  C   UNL     1       1.912   7.675  19.756  0.00  0.00    +0.000 A 
ATOM      6  C   UNL     1       2.603   6.503  20.059  0.00  0.00    +0.000 A 
ATOM      7  C   UNL     1       3.530   5.926  19.162  0.00  0.00    +0.000 A 
ENDROOT
BRANCH   1   9
ATOM      8  N   UNL     1       4.854   4.636  16.910  0.00  0.00    +0.000 N 
ATOM      9  C   UNL     1       4.538   5.974  16.802  0.00  0.00    +0.000 C 
ATOM     10  O   UNL     1       4.970   6.678  15.900  0.00  0.00    +0.000 OA
ATOM     11  H   UNL     1       4.542   4.085  17.701  0.00  0.00    +0.000 HD
BRANCH   8  12
ATOM     12  C   UNL     1       5.790   3.986  15.997  0.00  0.00    +0.000 C 
BRANCH  12  14
ATOM     13  N   UNL     1       7.600   5.307  14.989  0.00  0.00    +0.000 N 
ATOM     14  C   UNL     1       7.202   4.581  16.074  0.00  0.00    +0.000 C 
ATOM     15  O   UNL     1       7.975   4.364  17.003  0.00  0.00    +0.000 OA
ATOM     16  H   UNL     1       8.556   5.628  14.936  0.00  0.00    +0.000 HD
ATOM     17  H   UNL     1       7.028   5.324  14.143  0.00  0.00    +0.000 HD
ENDBRANCH  12  14
ENDBRANCH   8  12
ENDBRANCH   1   9
BRANCH   7  18
ATOM     18  O   UNL     1       3.971   4.724  19.624  0.00  0.00    +0.000 OA
BRANCH  18  19
ATOM     19  C   UNL     1       3.136   3.583  19.791  0.00  0.00    +0.000 C 
ATOM     20  C   UNL     1       2.514   3.434  21.177  0.00  0.00    +0.000 C 
ATOM     21  C   UNL     1       1.105   2.879  20.965  0.00  0.00    +0.000 C 
ATOM     22  C   UNL     1       0.784   3.016  19.482  0.00  0.00    +0.000 C 
ATOM     23  C   UNL     1       1.923   3.819  18.883  0.00  0.00    +0.000 C 
ENDBRANCH  18  19
ENDBRANCH   7  18
TORSDOF 5
ENDMDL
MODEL 2
REMARK VINA RESULT:      -7.7      0.891      1.345
REMARK  Name = 
REMARK  5 active torsions:
REMARK  status: ('A' for Active; 'I' for Inactive)
REMARK    1  A    between atoms: C_2  and  C_4
REMARK    2  A    between atoms: C_4  and  N_5
REMARK    3  A    between atoms: C_6  and  C_8
REMARK    4  A    between atoms: C_14  and  O_15
REMARK    5  A    between atoms: O_15  and  C_16
REMARK                            x       y       z     vdW  Elec       q    Type
REMARK                         _______ _______ _______ _____ _____    ______ ____
ROOT
ATOM      1  C   UNL     1       3.815   6.737  17.760  0.00  0.00    +0.000 A 
ATOM      2  C   UNL     1       3.088   7.917  17.478  0.00  0.00    +0.000 A 
ATOM      3  C   UNL     1       2.157   8.427  18.380  0.00  0.00    +0.000 A 
ATOM      4 CL   UNL     1       1.253   9.831  17.969  0.00  0.00    +0.000 Cl
ATOM      5  C   UNL     1       1.926   7.779  19.581  0.00  0.00    +0.000 A 
ATOM      6  C   UNL     1       2.632   6.611  19.869  0.00  0.00    +0.000 A 
ATOM      7  C   UNL     1       3.583   6.071  18.973  0.00  0.00    +0.000 A 
ENDROOT
BRANCH   1   9
ATOM      8  N   UNL     1       4.826   4.827  16.628  0.00  0.00    +0.000 N 
ATOM      9  C   UNL     1       4.628   6.192  16.633  0.00  0.00    +0.000 C 
ATOM     10  O   UNL     1       5.179   6.936  15.833  0.00  0.00    +0.000 OA
ATOM     11  H   UNL     1       4.415   4.235  17.340  0.00  0.00    +0.000 HD
BRANCH   8  12
ATOM     12  C   UNL     1       5.769   4.185  15.717  0.00  0.00    +0.000 C 
BRANCH  12  14
ATOM     13  N   UNL     1       7.713   5.427  14.870  0.00  0.00    +0.000 N 
ATOM     14  C   UNL     1       7.207   4.688  15.900  0.00  0.00    +0.000 C 
ATOM     15  O   UNL     1       7.907   4.390  16.864  0.00  0.00    +0.000 OA
ATOM     16  H   UNL     1       8.688   5.690  14.887  0.00  0.00    +0.000 HD
ATOM     17  H   UNL     1       7.196   5.510  13.994  0.00  0.00    +0.000 HD
ENDBRANCH  12  14
ENDBRANCH   8  12
ENDBRANCH   1   9
BRANCH   7  18
ATOM     18  O   UNL     1       4.037   4.867  19.415  0.00  0.00    +0.000 OA
BRANCH  18  19
ATOM     19  C   UNL     1       3.238   3.690  19.471  0.00  0.00    +0.000 C 
ATOM     20  C   UNL     1       2.180   3.573  18.378  0.00  0.00    +0.000 C 
ATOM     21  C   UNL     1       2.111   2.094  17.994  0.00  0.00    +0.000 C 
ATOM     22  C   UNL     1       3.328   1.412  18.604  0.00  0.00    +0.000 C 
ATOM     23  C   UNL     1       4.189   2.526  19.168  0.00  0.00    +0.000 C 
ENDBRANCH  18  19
ENDBRANCH   7  18
TORSDOF 5
ENDMDL
MODEL 3
REMARK VINA RESULT:      -7.6      3.027      5.533
REMARK  Name = 
REMARK  5 active torsions:
REMARK  status: ('A' for Active; 'I' for Inactive)
REMARK    1  A    between atoms: C_2  and  C_4
REMARK    2  A    between atoms: C_4  and  N_5
REMARK    3  A    between atoms: C_6  and  C_8
REMARK    4  A    between atoms: C_14  and  O_15
REMARK    5  A    between atoms: O_15  and  C_16
REMARK                            x       y       z     vdW  Elec       q    Type
REMARK                         _______ _______ _______ _____ _____    ______ ____
ROOT
ATOM      1  C   UNL     1       4.103   4.333  17.167  0.00  0.00    +0.000 A 
ATOM      2  C   UNL     1       4.672   3.823  15.976  0.00  0.00    +0.000 A 
ATOM      3  C   UNL     1       5.545   4.587  15.206  0.00  0.00    +0.000 A 
ATOM      4 CL   UNL     1       6.167   3.947  13.735  0.00  0.00    +0.000 Cl
ATOM      5  C   UNL     1       5.873   5.873  15.597  0.00  0.00    +0.000 A 
ATOM      6  C   UNL     1       5.315   6.390  16.766  0.00  0.00    +0.000 A 
ATOM      7  C   UNL     1       4.426   5.638  17.567  0.00  0.00    +0.000 A 
ENDROOT
BRANCH   1   9
ATOM      8  N   UNL     1       3.164   3.243  19.137  0.00  0.00    +0.000 N 
ATOM      9  C   UNL     1       3.036   3.493  17.786  0.00  0.00    +0.000 C 
ATOM     10  O   UNL     1       2.170   2.965  17.102  0.00  0.00    +0.000 OA
ATOM     11  H   UNL     1       3.929   3.636  19.673  0.00  0.00    +0.000 HD
BRANCH   8  12
ATOM     12  C   UNL     1       2.322   2.270  19.827  0.00  0.00    +0.000 C 
BRANCH  12  14
ATOM     13  N   UNL     1       0.577   3.881  20.459  0.00  0.00    +0.000 N 
ATOM     14  C   UNL     1       1.431   2.911  20.899  0.00  0.00    +0.000 C 
ATOM     15  O   UNL     1       1.519   2.645  22.095  0.00  0.00    +0.000 OA
ATOM     16  H   UNL     1       0.048   4.413  21.135  0.00  0.00    +0.000 HD
ATOM     17  H   UNL     1       0.644   4.229  19.502  0.00  0.00    +0.000 HD
ENDBRANCH  12  14
ENDBRANCH   8  12
ENDBRANCH   1   9
BRANCH   7  18
ATOM     18  O   UNL     1       3.916   6.400  18.573  0.00  0.00    +0.000 OA
BRANCH  18  19
ATOM     19  C   UNL     1       2.607   6.959  18.559  0.00  0.00    +0.000 C 
ATOM     20  C   UNL     1       2.091   7.434  19.914  0.00  0.00    +0.000 C 
ATOM     21  C   UNL     1       1.282   8.705  19.651  0.00  0.00    +0.000 C 
ATOM     22  C   UNL     1       1.593   9.152  18.230  0.00  0.00    +0.000 C 
ATOM     23  C   UNL     1       2.718   8.256  17.748  0.00  0.00    +0.000 C 
ENDBRANCH  18  19
ENDBRANCH   7  18
TORSDOF 5
ENDMDL
MODEL 4
REMARK VINA RESULT:      -7.5      3.069      3.818
REMARK  Name = 
REMARK  5 active torsions:
REMARK  status: ('A' for Active; 'I' for Inactive)
REMARK    1  A    between atoms: C_2  and  C_4
REMARK    2  A    between atoms: C_4  and  N_5
REMARK    3  A    between atoms: C_6  and  C_8
REMARK    4  A    between atoms: C_14  and  O_15
REMARK    5  A    between atoms: O_15  and  C_16
REMARK                            x       y       z     vdW  Elec       q    Type
REMARK                         _______ _______ _______ _____ _____    ______ ____
ROOT
ATOM      1  C   UNL     1       6.312   5.419  16.706  0.00  0.00    +0.000 A 
ATOM      2  C   UNL     1       7.138   6.539  16.965  0.00  0.00    +0.000 A 
ATOM      3  C   UNL     1       7.634   6.792  18.242  0.00  0.00    +0.000 A 
ATOM      4 CL   UNL     1       8.586   8.197  18.522  0.00  0.00    +0.000 Cl
ATOM      5  C   UNL     1       7.322   5.944  19.289  0.00  0.00    +0.000 A 
ATOM      6  C   UNL     1       6.504   4.840  19.049  0.00  0.00    +0.000 A 
ATOM      7  C   UNL     1       5.987   4.558  17.764  0.00  0.00    +0.000 A 
ENDROOT
BRANCH   1   9
ATOM      8  N   UNL     1       5.659   4.140  14.734  0.00  0.00    +0.000 N 
ATOM      9  C   UNL     1       5.690   5.374  15.350  0.00  0.00    +0.000 C 
ATOM     10  O   UNL     1       5.339   6.398  14.781  0.00  0.00    +0.000 OA
ATOM     11  H   UNL     1       6.018   3.313  15.198  0.00  0.00    +0.000 HD
BRANCH   8  12
ATOM     12  C   UNL     1       5.279   3.983  13.333  0.00  0.00    +0.000 C 
BRANCH  12  14
ATOM     13  N   UNL     1       6.528   2.371  11.962  0.00  0.00    +0.000 N 
ATOM     14  C   UNL     1       6.473   3.652  12.428  0.00  0.00    +0.000 C 
ATOM     15  O   UNL     1       7.378   4.447  12.189  0.00  0.00    +0.000 OA
ATOM     16  H   UNL     1       7.346   2.066  11.454  0.00  0.00    +0.000 HD
ATOM     17  H   UNL     1       5.879   1.666  12.316  0.00  0.00    +0.000 HD
ENDBRANCH  12  14
ENDBRANCH   8  12
ENDBRANCH   1   9
BRANCH   7  18
ATOM     18  O   UNL     1       5.116   3.513  17.810  0.00  0.00    +0.000 OA
BRANCH  18  19
ATOM     19  C   UNL     1       3.854   3.561  18.469  0.00  0.00    +0.000 C 
ATOM     20  C   UNL     1       2.865   4.573  17.898  0.00  0.00    +0.000 C 
ATOM     21  C   UNL     1       1.481   3.927  17.989  0.00  0.00    +0.000 C 
ATOM     22  C   UNL     1       1.691   2.450  18.292  0.00  0.00    +0.000 C 
ATOM     23  C   UNL     1       3.185   2.212  18.183  0.00  0.00    +0.000 C 
ENDBRANCH  18  19
ENDBRANCH   7  18
TORSDOF 5
ENDMDL
MODEL 5
REMARK VINA RESULT:      -7.5      3.068      5.511
REMARK  Name = 
REMARK  5 active torsions:
REMARK  status: ('A' for Active; 'I' for Inactive)
REMARK    1  A    between atoms: C_2  and  C_4
REMARK    2  A    between atoms: C_4  and  N_5
REMARK    3  A    between atoms: C_6  and  C_8
REMARK    4  A    between atoms: C_14  and  O_15
REMARK    5  A    between atoms: O_15  and  C_16
REMARK                            x       y       z     vdW  Elec       q    Type
REMARK                         _______ _______ _______ _____ _____    ______ ____
ROOT
ATOM      1  C   UNL     1       4.252   4.549  17.655  0.00  0.00    +0.000 A 
ATOM      2  C   UNL     1       5.344   4.240  16.810  0.00  0.00    +0.000 A 
ATOM      3  C   UNL     1       5.874   5.188  15.937  0.00  0.00    +0.000 A 
ATOM      4 CL   UNL     1       7.164   4.751  14.886  0.00  0.00    +0.000 Cl
ATOM      5  C   UNL     1       5.334   6.461  15.882  0.00  0.00    +0.000 A 
ATOM      6  C   UNL     1       4.254   6.776  16.706  0.00  0.00    +0.000 A 
ATOM      7  C   UNL     1       3.696   5.836  17.601  0.00  0.00    +0.000 A 
ENDROOT
BRANCH   1   9
ATOM      8  N   UNL     1       3.320   3.620  19.709  0.00  0.00    +0.000 N 
ATOM      9  C   UNL     1       3.656   3.395  18.390  0.00  0.00    +0.000 C 
ATOM     10  O   UNL     1       3.585   2.287  17.877  0.00  0.00    +0.000 OA
ATOM     11  H   UNL     1       3.449   4.531  20.135  0.00  0.00    +0.000 HD
BRANCH   8  12
ATOM     12  C   UNL     1       2.931   2.535  20.605  0.00  0.00    +0.000 C 
BRANCH  12  14
ATOM     13  N   UNL     1       0.592   3.255  20.380  0.00  0.00    +0.000 N 
ATOM     14  C   UNL     1       1.539   2.741  21.217  0.00  0.00    +0.000 C 
ATOM     15  O   UNL     1       1.289   2.542  22.403  0.00  0.00    +0.000 OA
ATOM     16  H   UNL     1      -0.309   3.514  20.756  0.00  0.00    +0.000 HD
ATOM     17  H   UNL     1       0.854   3.595  19.453  0.00  0.00    +0.000 HD
ENDBRANCH  12  14
ENDBRANCH   8  12
ENDBRANCH   1   9
BRANCH   7  18
ATOM     18  O   UNL     1       2.576   6.334  18.192  0.00  0.00    +0.000 OA
BRANCH  18  19
ATOM     19  C   UNL     1       2.572   7.462  19.061  0.00  0.00    +0.000 C 
ATOM     20  C   UNL     1       1.712   8.633  18.596  0.00  0.00    +0.000 C 
ATOM     21  C   UNL     1       1.083   9.237  19.853  0.00  0.00    +0.000 C 
ATOM     22  C   UNL     1       1.298   8.244  20.987  0.00  0.00    +0.000 C 
ATOM     23  C   UNL     1       1.874   6.997  20.344  0.00  0.00    +0.000 C 
ENDBRANCH  18  19
ENDBRANCH   7  18
TORSDOF 5
ENDMDL
MODEL 6
REMARK VINA RESULT:      -7.4      1.082      1.343
REMARK  Name = 
REMARK  5 active torsions:
REMARK  status: ('A' for Active; 'I' for Inactive)
REMARK    1  A    between atoms: C_2  and  C_4
REMARK    2  A    between atoms: C_4  and  N_5
REMARK    3  A    between atoms: C_6  and  C_8
REMARK    4  A    between atoms: C_14  and  O_15
REMARK    5  A    between atoms: O_15  and  C_16
REMARK                            x       y       z     vdW  Elec       q    Type
REMARK                         _______ _______ _______ _____ _____    ______ ____
ROOT
ATOM      1  C   UNL     1       3.464   6.840  18.107  0.00  0.00    +0.000 A 
ATOM      2  C   UNL     1       2.922   8.098  17.753  0.00  0.00    +0.000 A 
ATOM      3  C   UNL     1       2.017   8.756  18.584  0.00  0.00    +0.000 A 
ATOM      4 CL   UNL     1       1.339  10.256  18.086  0.00  0.00    +0.000 Cl
ATOM      5  C   UNL     1       1.631   8.182  19.782  0.00  0.00    +0.000 A 
ATOM      6  C   UNL     1       2.154   6.940  20.140  0.00  0.00    +0.000 A 
ATOM      7  C   UNL     1       3.073   6.250  19.318  0.00  0.00    +0.000 A 
ENDROOT
BRANCH   1   9
ATOM      8  N   UNL     1       4.564   4.830  17.270  0.00  0.00    +0.000 N 
ATOM      9  C   UNL     1       4.260   6.156  17.045  0.00  0.00    +0.000 C 
ATOM     10  O   UNL     1       4.709   6.778  16.093  0.00  0.00    +0.000 OA
ATOM     11  H   UNL     1       4.237   4.351  18.101  0.00  0.00    +0.000 HD
BRANCH   8  12
ATOM     12  C   UNL     1       5.508   4.099  16.430  0.00  0.00    +0.000 C 
BRANCH  12  14
ATOM     13  N   UNL     1       7.362   4.339  18.025  0.00  0.00    +0.000 N 
ATOM     14  C   UNL     1       6.969   4.463  16.724  0.00  0.00    +0.000 C 
ATOM     15  O   UNL     1       7.734   4.916  15.877  0.00  0.00    +0.000 OA
ATOM     16  H   UNL     1       8.277   4.668  18.296  0.00  0.00    +0.000 HD
ATOM     17  H   UNL     1       6.673   4.145  18.754  0.00  0.00    +0.000 HD
ENDBRANCH  12  14
ENDBRANCH   8  12
ENDBRANCH   1   9
BRANCH   7  18
ATOM     18  O   UNL     1       3.332   5.009  19.814  0.00  0.00    +0.000 OA
BRANCH  18  19
ATOM     19  C   UNL     1       2.341   4.002  19.990  0.00  0.00    +0.000 C 
ATOM     20  C   UNL     1       1.301   3.917  18.877  0.00  0.00    +0.000 C 
ATOM     21  C   UNL     1       0.985   2.432  18.688  0.00  0.00    +0.000 C 
ATOM     22  C   UNL     1       2.055   1.645  19.433  0.00  0.00    +0.000 C 
ATOM     23  C   UNL     1       3.084   2.665  19.882  0.00  0.00    +0.000 C 
ENDBRANCH  18  19
ENDBRANCH   7  18
TORSDOF 5
ENDMDL
MODEL 7
REMARK VINA RESULT:      -7.4      3.485      6.038
REMARK  Name = 
REMARK  5 active torsions:
REMARK  status: ('A' for Active; 'I' for Inactive)
REMARK    1  A    between atoms: C_2  and  C_4
REMARK    2  A    between atoms: C_4  and  N_5
REMARK    3  A    between atoms: C_6  and  C_8
REMARK    4  A    between atoms: C_14  and  O_15
REMARK    5  A    between atoms: O_15  and  C_16
REMARK                            x       y       z     vdW  Elec       q    Type
REMARK                         _______ _______ _______ _____ _____    ______ ____
ROOT
ATOM      1  C   UNL     1       2.700   5.642  18.421  0.00  0.00    +0.000 A 
ATOM      2  C   UNL     1       1.722   4.675  18.755  0.00  0.00    +0.000 A 
ATOM      3  C   UNL     1       1.808   3.367  18.283  0.00  0.00    +0.000 A 
ATOM      4 CL   UNL     1       0.565   2.241  18.666  0.00  0.00    +0.000 Cl
ATOM      5  C   UNL     1       2.862   2.989  17.472  0.00  0.00    +0.000 A 
ATOM      6  C   UNL     1       3.829   3.934  17.131  0.00  0.00    +0.000 A 
ATOM      7  C   UNL     1       3.769   5.267  17.594  0.00  0.00    +0.000 A 
ENDROOT
BRANCH   1   9
ATOM      8  N   UNL     1       2.204   7.947  17.795  0.00  0.00    +0.000 N 
ATOM      9  C   UNL     1       2.386   7.045  18.823  0.00  0.00    +0.000 C 
ATOM     10  O   UNL     1       2.409   7.387  19.997  0.00  0.00    +0.000 OA
ATOM     11  H   UNL     1       2.256   7.656  16.826  0.00  0.00    +0.000 HD
BRANCH   8  12
ATOM     12  C   UNL     1       2.105   9.384  18.035  0.00  0.00    +0.000 C 
BRANCH  12  14
ATOM     13  N   UNL     1      -0.216  10.059  17.593  0.00  0.00    +0.000 N 
ATOM     14  C   UNL     1       0.722   9.805  18.551  0.00  0.00    +0.000 C 
ATOM     15  O   UNL     1       0.474   9.989  19.739  0.00  0.00    +0.000 OA
ATOM     16  H   UNL     1      -1.108  10.445  17.869  0.00  0.00    +0.000 HD
ATOM     17  H   UNL     1       0.049  10.089  16.607  0.00  0.00    +0.000 HD
ENDBRANCH  12  14
ENDBRANCH   8  12
ENDBRANCH   1   9
BRANCH   7  18
ATOM     18  O   UNL     1       4.744   6.025  17.021  0.00  0.00    +0.000 OA
BRANCH  18  19
ATOM     19  C   UNL     1       6.133   5.864  17.288  0.00  0.00    +0.000 C 
ATOM     20  C   UNL     1       6.949   7.153  17.266  0.00  0.00    +0.000 C 
ATOM     21  C   UNL     1       8.000   7.023  18.371  0.00  0.00    +0.000 C 
ATOM     22  C   UNL     1       7.598   5.837  19.237  0.00  0.00    +0.000 C 
ATOM     23  C   UNL     1       6.226   5.412  18.750  0.00  0.00    +0.000 C 
ENDBRANCH  18  19
ENDBRANCH   7  18
TORSDOF 5
ENDMDL
MODEL 8
REMARK VINA RESULT:      -7.3      1.383      1.471
REMARK  Name = 
REMARK  5 active torsions:
REMARK  status: ('A' for Active; 'I' for Inactive)
REMARK    1  A    between atoms: C_2  and  C_4
REMARK    2  A    between atoms: C_4  and  N_5
REMARK    3  A    between atoms: C_6  and  C_8
REMARK    4  A    between atoms: C_14  and  O_15
REMARK    5  A    between atoms: O_15  and  C_16
REMARK                            x       y       z     vdW  Elec       q    Type
REMARK                         _______ _______ _______ _____ _____    ______ ____
ROOT
ATOM      1  C   UNL     1       4.521   6.440  17.950  0.00  0.00    +0.000 A 
ATOM      2  C   UNL     1       3.700   7.539  17.602  0.00  0.00    +0.000 A 
ATOM      3  C   UNL     1       2.510   7.797  18.280  0.00  0.00    +0.000 A 
ATOM      4 CL   UNL     1       1.514   9.108  17.785  0.00  0.00    +0.000 Cl
ATOM      5  C   UNL     1       2.108   6.972  19.316  0.00  0.00    +0.000 A 
ATOM      6  C   UNL     1       2.906   5.882  19.664  0.00  0.00    +0.000 A 
ATOM      7  C   UNL     1       4.117   5.597  18.995  0.00  0.00    +0.000 A 
ENDROOT
BRANCH   1   9
ATOM      8  N   UNL     1       5.952   4.833  16.802  0.00  0.00    +0.000 N 
ATOM      9  C   UNL     1       5.657   6.162  17.022  0.00  0.00    +0.000 C 
ATOM     10  O   UNL     1       6.351   7.068  16.582  0.00  0.00    +0.000 OA
ATOM     11  H   UNL     1       5.405   4.096  17.230  0.00  0.00    +0.000 HD
BRANCH   8  12
ATOM     12  C   UNL     1       7.159   4.415  16.095  0.00  0.00    +0.000 C 
BRANCH  12  14
ATOM     13  N   UNL     1       6.286   3.651  13.928  0.00  0.00    +0.000 N 
ATOM     14  C   UNL     1       7.045   4.585  14.574  0.00  0.00    +0.000 C 
ATOM     15  O   UNL     1       7.652   5.446  13.944  0.00  0.00    +0.000 OA
ATOM     16  H   UNL     1       6.265   3.648  12.918  0.00  0.00    +0.000 HD
ATOM     17  H   UNL     1       5.941   2.831  14.430  0.00  0.00    +0.000 HD
ENDBRANCH  12  14
ENDBRANCH   8  12
ENDBRANCH   1   9
BRANCH   7  18
ATOM     18  O   UNL     1       4.643   4.417  19.424  0.00  0.00    +0.000 OA
BRANCH  18  19
ATOM     19  C   UNL     1       4.006   3.155  19.249  0.00  0.00    +0.000 C 
ATOM     20  C   UNL     1       2.923   2.830  20.274  0.00  0.00    +0.000 C 
ATOM     21  C   UNL     1       1.821   2.083  19.521  0.00  0.00    +0.000 C 
ATOM     22  C   UNL     1       2.092   2.260  18.033  0.00  0.00    +0.000 C 
ATOM     23  C   UNL     1       3.227   3.261  17.933  0.00  0.00    +0.000 C 
ENDBRANCH  18  19
ENDBRANCH   7  18
TORSDOF 5
ENDMDL
MODEL 9
REMARK VINA RESULT:      -7.3      3.139      5.051
REMARK  Name = 
REMARK  5 active torsions:
REMARK  status: ('A' for Active; 'I' for Inactive)
REMARK    1  A    between atoms: C_2  and  C_4
REMARK    2  A    between atoms: C_4  and  N_5
REMARK    3  A    between atoms: C_6  and  C_8
REMARK    4  A    between atoms: C_14  and  O_15
REMARK    5  A    between atoms: O_15  and  C_16
REMARK                            x       y       z     vdW  Elec       q    Type
REMARK                         _______ _______ _______ _____ _____    ______ ____
ROOT
ATOM      1  C   UNL     1       3.479   5.809  17.971  0.00  0.00    +0.000 A 
ATOM      2  C   UNL     1       4.751   6.341  17.652  0.00  0.00    +0.000 A 
ATOM      3  C   UNL     1       5.710   5.576  16.989  0.00  0.00    +0.000 A 
ATOM      4 CL   UNL     1       7.263   6.244  16.674  0.00  0.00    +0.000 Cl
ATOM      5  C   UNL     1       5.429   4.270  16.629  0.00  0.00    +0.000 A 
ATOM      6  C   UNL     1       4.181   3.732  16.944  0.00  0.00    +0.000 A 
ATOM      7  C   UNL     1       3.190   4.484  17.614  0.00  0.00    +0.000 A 
ENDROOT
BRANCH   1   9
ATOM      8  N   UNL     1       2.223   7.869  18.326  0.00  0.00    +0.000 N 
ATOM      9  C   UNL     1       2.625   6.659  18.852  0.00  0.00    +0.000 C 
ATOM     10  O   UNL     1       2.401   6.343  20.012  0.00  0.00    +0.000 OA
ATOM     11  H   UNL     1       2.477   8.142  17.384  0.00  0.00    +0.000 HD
BRANCH   8  12
ATOM     12  C   UNL     1       1.570   8.889  19.142  0.00  0.00    +0.000 C 
BRANCH  12  14
ATOM     13  N   UNL     1       1.774  11.028  17.951  0.00  0.00    +0.000 N 
ATOM     14  C   UNL     1       0.939  10.007  18.302  0.00  0.00    +0.000 C 
ATOM     15  O   UNL     1      -0.255  10.045  18.020  0.00  0.00    +0.000 OA
ATOM     16  H   UNL     1       1.389  11.843  17.494  0.00  0.00    +0.000 HD
ATOM     17  H   UNL     1       2.713  11.085  18.348  0.00  0.00    +0.000 HD
ENDBRANCH  12  14
ENDBRANCH   8  12
ENDBRANCH   1   9
BRANCH   7  18
ATOM     18  O   UNL     1       2.117   3.705  17.924  0.00  0.00    +0.000 OA
BRANCH  18  19
ATOM     19  C   UNL     1       2.075   2.820  19.038  0.00  0.00    +0.000 C 
ATOM     20  C   UNL     1       3.265   2.918  19.988  0.00  0.00    +0.000 C 
ATOM     21  C   UNL     1       2.713   2.717  21.401  0.00  0.00    +0.000 C 
ATOM     22  C   UNL     1       1.197   2.833  21.313  0.00  0.00    +0.000 C 
ATOM     23  C   UNL     1       0.896   3.290  19.898  0.00  0.00    +0.000 C 
ENDBRANCH  18  19
ENDBRANCH   7  18
TORSDOF 5
ENDMDL
