MODEL 1
REMARK VINA RESULT:      -8.4      0.000      0.000
REMARK  Name = 
REMARK  4 active torsions:
REMARK  status: ('A' for Active; 'I' for Inactive)
REMARK    1  A    between atoms: C_6  and  C_7
REMARK    2  A    between atoms: C_7  and  N_8
REMARK    3  A    between atoms: N_8  and  C_9
REMARK    4  A    between atoms: C_9  and  C_10
REMARK                            x       y       z     vdW  Elec       q    Type
REMARK                         _______ _______ _______ _____ _____    ______ ____
ROOT
ATOM      1  C   UNL     1       6.164   4.716  17.025  0.00  0.00    +0.000 C 
ATOM      2  C   UNL     1       5.993   6.162  16.466  0.00  0.00    +0.000 C 
ATOM      3  C   UNL     1       6.320   7.288  17.446  0.00  0.00    +0.000 C 
ATOM      4  C   UNL     1       7.694   7.093  18.068  0.00  0.00    +0.000 C 
ATOM      5  C   UNL     1       7.783   5.745  18.769  0.00  0.00    +0.000 C 
ATOM      6  C   UNL     1       7.508   4.589  17.801  0.00  0.00    +0.000 C 
ENDROOT
BRANCH   1  12
ATOM      7  C   UNL     1       1.995   2.917  21.431  0.00  0.00    +0.000 A 
ATOM      8  C   UNL     1       1.102   3.799  20.844  0.00  0.00    +0.000 A 
ATOM      9  C   UNL     1       1.465   4.511  19.696  0.00  0.00    +0.000 A 
ATOM     10  C   UNL     1       2.757   4.320  19.152  0.00  0.00    +0.000 A 
ATOM     11  S   UNL     1       3.422   5.070  17.754  0.00  0.00    +0.000 S 
ATOM     12  C   UNL     1       4.969   4.315  17.946  0.00  0.00    +0.000 A 
ATOM     13  C   UNL     1       4.931   3.466  19.040  0.00  0.00    +0.000 A 
ATOM     14  C   UNL     1       3.675   3.451  19.736  0.00  0.00    +0.000 A 
ATOM     15  C   UNL     1       3.273   2.740  20.895  0.00  0.00    +0.000 A 
ENDBRANCH   1  12
BRANCH   1  16
ATOM     16  N   UNL     1       6.089   3.760  15.898  0.00  0.00    +0.000 NA
ATOM     17  H   UNL     1       5.575   2.939  16.220  0.00  0.00    +0.000 HD
BRANCH  16  18
ATOM     18  C   UNL     1       5.522   4.196  14.622  0.00  0.00    +0.000 C 
BRANCH  18  19
ATOM     19  C   UNL     1       6.405   3.646  13.508  0.00  0.00    +0.000 C 
ATOM     20  C   UNL     1       5.748   3.273  12.153  0.00  0.00    +0.000 C 
ATOM     21  C   UNL     1       7.049   3.776  11.485  0.00  0.00    +0.000 C 
ATOM     22  C   UNL     1       7.235   4.688  12.715  0.00  0.00    +0.000 C 
ENDBRANCH  18  19
ENDBRANCH  16  18
ENDBRANCH   1  16
TORSDOF 4
ENDMDL
MODEL 2
REMARK VINA RESULT:      -8.3      0.792      1.356
REMARK  Name = 
REMARK  4 active torsions:
REMARK  status: ('A' for Active; 'I' for Inactive)
REMARK    1  A    between atoms: C_6  and  C_7
REMARK    2  A    between atoms: C_7  and  N_8
REMARK    3  A    between atoms: N_8  and  C_9
REMARK    4  A    between atoms: C_9  and  C_10
REMARK                            x       y       z     vdW  Elec       q    Type
REMARK                         _______ _______ _______ _____ _____    ______ ____
ROOT
ATOM      1  C   UNL     1       6.148   4.827  17.192  0.00  0.00    +0.000 C 
ATOM      2  C   UNL     1       6.016   6.215  16.494  0.00  0.00    +0.000 C 
ATOM      3  C   UNL     1       6.403   7.420  17.352  0.00  0.00    +0.000 C 
ATOM      4  C   UNL     1       7.781   7.237  17.967  0.00  0.00    +0.000 C 
ATOM      5  C   UNL     1       7.837   5.963  18.797  0.00  0.00    +0.000 C 
ATOM      6  C   UNL     1       7.503   4.728  17.954  0.00  0.00    +0.000 C 
ENDROOT
BRANCH   1  12
ATOM      7  C   UNL     1       0.761   4.036  20.415  0.00  0.00    +0.000 A 
ATOM      8  C   UNL     1       1.402   3.010  21.092  0.00  0.00    +0.000 A 
ATOM      9  C   UNL     1       2.745   2.720  20.830  0.00  0.00    +0.000 A 
ATOM     10  C   UNL     1       3.433   3.488  19.861  0.00  0.00    +0.000 A 
ATOM     11  S   UNL     1       5.076   3.327  19.378  0.00  0.00    +0.000 S 
ATOM     12  C   UNL     1       4.960   4.562  18.168  0.00  0.00    +0.000 A 
ATOM     13  C   UNL     1       3.687   5.108  18.194  0.00  0.00    +0.000 A 
ATOM     14  C   UNL     1       2.804   4.512  19.158  0.00  0.00    +0.000 A 
ATOM     15  C   UNL     1       1.444   4.783  19.452  0.00  0.00    +0.000 A 
ENDBRANCH   1  12
BRANCH   1  16
ATOM     16  N   UNL     1       6.017   3.766  16.167  0.00  0.00    +0.000 NA
ATOM     17  H   UNL     1       5.522   2.982  16.592  0.00  0.00    +0.000 HD
BRANCH  16  18
ATOM     18  C   UNL     1       5.384   4.080  14.887  0.00  0.00    +0.000 C 
BRANCH  18  19
ATOM     19  C   UNL     1       6.354   3.684  13.778  0.00  0.00    +0.000 C 
ATOM     20  C   UNL     1       5.796   3.451  12.350  0.00  0.00    +0.000 C 
ATOM     21  C   UNL     1       7.119   4.060  11.830  0.00  0.00    +0.000 C 
ATOM     22  C   UNL     1       7.196   4.831  13.164  0.00  0.00    +0.000 C 
ENDBRANCH  18  19
ENDBRANCH  16  18
ENDBRANCH   1  16
TORSDOF 4
ENDMDL
MODEL 3
REMARK VINA RESULT:      -8.2      1.016      1.172
REMARK  Name = 
REMARK  4 active torsions:
REMARK  status: ('A' for Active; 'I' for Inactive)
REMARK    1  A    between atoms: C_6  and  C_7
REMARK    2  A    between atoms: C_7  and  N_8
REMARK    3  A    between atoms: N_8  and  C_9
REMARK    4  A    between atoms: C_9  and  C_10
REMARK                            x       y       z     vdW  Elec       q    Type
REMARK                         _______ _______ _______ _____ _____    ______ ____
ROOT
ATOM      1  C   UNL     1       6.303   4.897  16.979  0.00  0.00    +0.000 C 
ATOM      2  C   UNL     1       6.220   6.380  16.499  0.00  0.00    +0.000 C 
ATOM      3  C   UNL     1       6.552   7.431  17.558  0.00  0.00    +0.000 C 
ATOM      4  C   UNL     1       7.888   7.138  18.223  0.00  0.00    +0.000 C 
ATOM      5  C   UNL     1       7.888   5.749  18.845  0.00  0.00    +0.000 C 
ATOM      6  C   UNL     1       7.606   4.665  17.800  0.00  0.00    +0.000 C 
ENDROOT
BRANCH   1  12
ATOM      7  C   UNL     1       1.234   4.202  20.699  0.00  0.00    +0.000 A 
ATOM      8  C   UNL     1       0.795   3.243  19.800  0.00  0.00    +0.000 A 
ATOM      9  C   UNL     1       1.586   2.889  18.702  0.00  0.00    +0.000 A 
ATOM     10  C   UNL     1       2.834   3.532  18.523  0.00  0.00    +0.000 A 
ATOM     11  S   UNL     1       3.975   3.263  17.265  0.00  0.00    +0.000 S 
ATOM     12  C   UNL     1       5.054   4.498  17.824  0.00  0.00    +0.000 A 
ATOM     13  C   UNL     1       4.548   5.054  18.987  0.00  0.00    +0.000 A 
ATOM     14  C   UNL     1       3.286   4.511  19.405  0.00  0.00    +0.000 A 
ATOM     15  C   UNL     1       2.462   4.840  20.511  0.00  0.00    +0.000 A 
ENDBRANCH   1  12
BRANCH   1  16
ATOM     16  N   UNL     1       6.237   4.012  15.794  0.00  0.00    +0.000 NA
ATOM     17  H   UNL     1       5.433   3.395  15.912  0.00  0.00    +0.000 HD
BRANCH  16  18
ATOM     18  C   UNL     1       6.181   4.603  14.458  0.00  0.00    +0.000 C 
BRANCH  18  19
ATOM     19  C   UNL     1       6.012   3.468  13.453  0.00  0.00    +0.000 C 
ATOM     20  C   UNL     1       4.762   3.468  12.534  0.00  0.00    +0.000 C 
ATOM     21  C   UNL     1       5.679   2.877  11.438  0.00  0.00    +0.000 C 
ATOM     22  C   UNL     1       6.854   3.572  12.156  0.00  0.00    +0.000 C 
ENDBRANCH  18  19
ENDBRANCH  16  18
ENDBRANCH   1  16
TORSDOF 4
ENDMDL
MODEL 4
REMARK VINA RESULT:      -8.2      2.639      5.104
REMARK  Name = 
REMARK  4 active torsions:
REMARK  status: ('A' for Active; 'I' for Inactive)
REMARK    1  A    between atoms: C_6  and  C_7
REMARK    2  A    between atoms: C_7  and  N_8
REMARK    3  A    between atoms: N_8  and  C_9
REMARK    4  A    between atoms: C_9  and  C_10
REMARK                            x       y       z     vdW  Elec       q    Type
REMARK                         _______ _______ _______ _____ _____    ______ ____
ROOT
ATOM      1  C   UNL     1       4.963   4.338  17.742  0.00  0.00    +0.000 C 
ATOM      2  C   UNL     1       4.768   4.024  16.226  0.00  0.00    +0.000 C 
ATOM      3  C   UNL     1       5.541   4.927  15.265  0.00  0.00    +0.000 C 
ATOM      4  C   UNL     1       7.015   4.988  15.633  0.00  0.00    +0.000 C 
ATOM      5  C   UNL     1       7.194   5.472  17.065  0.00  0.00    +0.000 C 
ATOM      6  C   UNL     1       6.471   4.559  18.061  0.00  0.00    +0.000 C 
ENDROOT
BRANCH   1  12
ATOM      7  C   UNL     1       1.301   9.426  18.593  0.00  0.00    +0.000 A 
ATOM      8  C   UNL     1       1.084   8.965  19.882  0.00  0.00    +0.000 A 
ATOM      9  C   UNL     1       1.727   7.809  20.336  0.00  0.00    +0.000 A 
ATOM     10  C   UNL     1       2.594   7.118  19.457  0.00  0.00    +0.000 A 
ATOM     11  S   UNL     1       3.495   5.691  19.788  0.00  0.00    +0.000 S 
ATOM     12  C   UNL     1       4.130   5.583  18.180  0.00  0.00    +0.000 A 
ATOM     13  C   UNL     1       3.685   6.665  17.439  0.00  0.00    +0.000 A 
ATOM     14  C   UNL     1       2.813   7.555  18.153  0.00  0.00    +0.000 A 
ATOM     15  C   UNL     1       2.150   8.734  17.727  0.00  0.00    +0.000 A 
ENDBRANCH   1  12
BRANCH   1  16
ATOM     16  N   UNL     1       4.393   3.224  18.533  0.00  0.00    +0.000 NA
ATOM     17  H   UNL     1       3.811   3.630  19.267  0.00  0.00    +0.000 HD
BRANCH  16  18
ATOM     18  C   UNL     1       3.628   2.179  17.854  0.00  0.00    +0.000 C 
BRANCH  18  19
ATOM     19  C   UNL     1       2.277   2.063  18.552  0.00  0.00    +0.000 C 
ATOM     20  C   UNL     1       2.183   2.427  20.057  0.00  0.00    +0.000 C 
ATOM     21  C   UNL     1       0.776   2.985  19.743  0.00  0.00    +0.000 C 
ATOM     22  C   UNL     1       1.276   3.221  18.303  0.00  0.00    +0.000 C 
ENDBRANCH  18  19
ENDBRANCH  16  18
ENDBRANCH   1  16
TORSDOF 4
ENDMDL
MODEL 5
REMARK VINA RESULT:      -8.1      1.052      1.566
REMARK  Name = 
REMARK  4 active torsions:
REMARK  status: ('A' for Active; 'I' for Inactive)
REMARK    1  A    between atoms: C_6  and  C_7
REMARK    2  A    between atoms: C_7  and  N_8
REMARK    3  A    between atoms: N_8  and  C_9
REMARK    4  A    between atoms: C_9  and  C_10
REMARK                            x       y       z     vdW  Elec       q    Type
REMARK                         _______ _______ _______ _____ _____    ______ ____
ROOT
ATOM      1  C   UNL     1       6.321   4.807  16.886  0.00  0.00    +0.000 C 
ATOM      2  C   UNL     1       6.252   6.261  16.323  0.00  0.00    +0.000 C 
ATOM      3  C   UNL     1       6.503   7.372  17.343  0.00  0.00    +0.000 C 
ATOM      4  C   UNL     1       7.795   7.134  18.108  0.00  0.00    +0.000 C 
ATOM      5  C   UNL     1       7.770   5.780  18.803  0.00  0.00    +0.000 C 
ATOM      6  C   UNL     1       7.570   4.638  17.801  0.00  0.00    +0.000 C 
ENDROOT
BRANCH   1  12
ATOM      7  C   UNL     1       0.704   3.033  19.195  0.00  0.00    +0.000 A 
ATOM      8  C   UNL     1       1.373   2.689  20.360  0.00  0.00    +0.000 A 
ATOM      9  C   UNL     1       2.747   2.920  20.480  0.00  0.00    +0.000 A 
ATOM     10  C   UNL     1       3.440   3.503  19.393  0.00  0.00    +0.000 A 
ATOM     11  S   UNL     1       5.114   3.887  19.309  0.00  0.00    +0.000 S 
ATOM     12  C   UNL     1       5.023   4.435  17.668  0.00  0.00    +0.000 A 
ATOM     13  C   UNL     1       3.709   4.363  17.235  0.00  0.00    +0.000 A 
ATOM     14  C   UNL     1       2.791   3.840  18.208  0.00  0.00    +0.000 A 
ATOM     15  C   UNL     1       1.397   3.598  18.122  0.00  0.00    +0.000 A 
ENDBRANCH   1  12
BRANCH   1  16
ATOM     16  N   UNL     1       6.342   3.859  15.749  0.00  0.00    +0.000 NA
ATOM     17  H   UNL     1       5.465   3.338  15.763  0.00  0.00    +0.000 HD
BRANCH  16  18
ATOM     18  C   UNL     1       6.563   4.367  14.395  0.00  0.00    +0.000 C 
BRANCH  18  19
ATOM     19  C   UNL     1       6.012   3.335  13.416  0.00  0.00    +0.000 C 
ATOM     20  C   UNL     1       4.707   3.665  12.645  0.00  0.00    +0.000 C 
ATOM     21  C   UNL     1       5.324   2.901  11.451  0.00  0.00    +0.000 C 
ATOM     22  C   UNL     1       6.705   3.269  12.031  0.00  0.00    +0.000 C 
ENDBRANCH  18  19
ENDBRANCH  16  18
ENDBRANCH   1  16
TORSDOF 4
ENDMDL
MODEL 6
REMARK VINA RESULT:      -8.0      2.950      5.586
REMARK  Name = 
REMARK  4 active torsions:
REMARK  status: ('A' for Active; 'I' for Inactive)
REMARK    1  A    between atoms: C_6  and  C_7
REMARK    2  A    between atoms: C_7  and  N_8
REMARK    3  A    between atoms: N_8  and  C_9
REMARK    4  A    between atoms: C_9  and  C_10
REMARK                            x       y       z     vdW  Elec       q    Type
REMARK                         _______ _______ _______ _____ _____    ______ ____
ROOT
ATOM      1  C   UNL     1       4.173   4.822  17.891  0.00  0.00    +0.000 C 
ATOM      2  C   UNL     1       4.811   4.949  16.473  0.00  0.00    +0.000 C 
ATOM      3  C   UNL     1       6.125   5.728  16.412  0.00  0.00    +0.000 C 
ATOM      4  C   UNL     1       7.126   5.194  17.424  0.00  0.00    +0.000 C 
ATOM      5  C   UNL     1       6.550   5.247  18.833  0.00  0.00    +0.000 C 
ATOM      6  C   UNL     1       5.256   4.434  18.940  0.00  0.00    +0.000 C 
ENDROOT
BRANCH   1  12
ATOM      7  C   UNL     1       1.049  10.267  18.676  0.00  0.00    +0.000 A 
ATOM      8  C   UNL     1       0.698   9.801  19.933  0.00  0.00    +0.000 A 
ATOM      9  C   UNL     1       1.177   8.568  20.389  0.00  0.00    +0.000 A 
ATOM     10  C   UNL     1       2.019   7.807  19.544  0.00  0.00    +0.000 A 
ATOM     11  S   UNL     1       2.733   6.280  19.884  0.00  0.00    +0.000 S 
ATOM     12  C   UNL     1       3.456   6.141  18.316  0.00  0.00    +0.000 A 
ATOM     13  C   UNL     1       3.183   7.285  17.584  0.00  0.00    +0.000 A 
ATOM     14  C   UNL     1       2.370   8.249  18.271  0.00  0.00    +0.000 A 
ATOM     15  C   UNL     1       1.872   9.506  17.843  0.00  0.00    +0.000 A 
ENDBRANCH   1  12
BRANCH   1  16
ATOM     16  N   UNL     1       3.083   3.821  17.832  0.00  0.00    +0.000 NA
ATOM     17  H   UNL     1       2.754   3.776  16.867  0.00  0.00    +0.000 HD
BRANCH  16  18
ATOM     18  C   UNL     1       3.332   2.460  18.306  0.00  0.00    +0.000 C 
BRANCH  18  19
ATOM     19  C   UNL     1       2.344   2.171  19.431  0.00  0.00    +0.000 C 
ATOM     20  C   UNL     1       2.664   2.697  20.855  0.00  0.00    +0.000 C 
ATOM     21  C   UNL     1       1.144   2.926  21.016  0.00  0.00    +0.000 C 
ATOM     22  C   UNL     1       1.083   3.072  19.482  0.00  0.00    +0.000 C 
ENDBRANCH  18  19
ENDBRANCH  16  18
ENDBRANCH   1  16
TORSDOF 4
ENDMDL
MODEL 7
REMARK VINA RESULT:      -8.0      3.351      5.828
REMARK  Name = 
REMARK  4 active torsions:
REMARK  status: ('A' for Active; 'I' for Inactive)
REMARK    1  A    between atoms: C_6  and  C_7
REMARK    2  A    between atoms: C_7  and  N_8
REMARK    3  A    between atoms: N_8  and  C_9
REMARK    4  A    between atoms: C_9  and  C_10
REMARK                            x       y       z     vdW  Elec       q    Type
REMARK                         _______ _______ _______ _____ _____    ______ ____
ROOT
ATOM      1  C   UNL     1       3.232   5.073  19.224  0.00  0.00    +0.000 C 
ATOM      2  C   UNL     1       2.709   4.196  20.404  0.00  0.00    +0.000 C 
ATOM      3  C   UNL     1       1.277   3.684  20.256  0.00  0.00    +0.000 C 
ATOM      4  C   UNL     1       1.077   2.990  18.918  0.00  0.00    +0.000 C 
ATOM      5  C   UNL     1       1.421   3.925  17.767  0.00  0.00    +0.000 C 
ATOM      6  C   UNL     1       2.869   4.418  17.859  0.00  0.00    +0.000 C 
ENDROOT
BRANCH   1  12
ATOM      7  C   UNL     1       0.796  10.873  18.557  0.00  0.00    +0.000 A 
ATOM      8  C   UNL     1       0.299  10.734  19.844  0.00  0.00    +0.000 A 
ATOM      9  C   UNL     1       0.581   9.585  20.590  0.00  0.00    +0.000 A 
ATOM     10  C   UNL     1       1.373   8.568  20.006  0.00  0.00    +0.000 A 
ATOM     11  S   UNL     1       1.857   7.082  20.723  0.00  0.00    +0.000 S 
ATOM     12  C   UNL     1       2.665   6.525  19.296  0.00  0.00    +0.000 A 
ATOM     13  C   UNL     1       2.595   7.505  18.320  0.00  0.00    +0.000 A 
ATOM     14  C   UNL     1       1.868   8.681  18.710  0.00  0.00    +0.000 A 
ATOM     15  C   UNL     1       1.569   9.861  17.984  0.00  0.00    +0.000 A 
ENDBRANCH   1  12
BRANCH   1  16
ATOM     16  N   UNL     1       4.695   5.248  19.376  0.00  0.00    +0.000 NA
ATOM     17  H   UNL     1       4.914   5.180  20.371  0.00  0.00    +0.000 HD
BRANCH  16  18
ATOM     18  C   UNL     1       5.603   4.375  18.635  0.00  0.00    +0.000 C 
BRANCH  18  19
ATOM     19  C   UNL     1       6.590   5.262  17.882  0.00  0.00    +0.000 C 
ATOM     20  C   UNL     1       6.104   6.638  17.359  0.00  0.00    +0.000 C 
ATOM     21  C   UNL     1       7.520   7.164  17.687  0.00  0.00    +0.000 C 
ATOM     22  C   UNL     1       7.601   6.052  18.753  0.00  0.00    +0.000 C 
ENDBRANCH  18  19
ENDBRANCH  16  18
ENDBRANCH   1  16
TORSDOF 4
ENDMDL
MODEL 8
REMARK VINA RESULT:      -7.9      3.479      5.952
REMARK  Name = 
REMARK  4 active torsions:
REMARK  status: ('A' for Active; 'I' for Inactive)
REMARK    1  A    between atoms: C_6  and  C_7
REMARK    2  A    between atoms: C_7  and  N_8
REMARK    3  A    between atoms: N_8  and  C_9
REMARK    4  A    between atoms: C_9  and  C_10
REMARK                            x       y       z     vdW  Elec       q    Type
REMARK                         _______ _______ _______ _____ _____    ______ ____
ROOT
ATOM      1  C   UNL     1       3.045   5.350  19.381  0.00  0.00    +0.000 C 
ATOM      2  C   UNL     1       2.556   4.427  20.540  0.00  0.00    +0.000 C 
ATOM      3  C   UNL     1       1.181   3.792  20.338  0.00  0.00    +0.000 C 
ATOM      4  C   UNL     1       1.095   3.086  18.994  0.00  0.00    +0.000 C 
ATOM      5  C   UNL     1       1.399   4.051  17.857  0.00  0.00    +0.000 C 
ATOM      6  C   UNL     1       2.794   4.669  18.003  0.00  0.00    +0.000 C 
ENDROOT
BRANCH   1  12
ATOM      7  C   UNL     1       0.433  10.998  20.523  0.00  0.00    +0.000 A 
ATOM      8  C   UNL     1       0.800  11.348  19.232  0.00  0.00    +0.000 A 
ATOM      9  C   UNL     1       1.419  10.413  18.396  0.00  0.00    +0.000 A 
ATOM     10  C   UNL     1       1.669   9.112  18.892  0.00  0.00    +0.000 A 
ATOM     11  S   UNL     1       2.403   7.800  18.055  0.00  0.00    +0.000 S 
ATOM     12  C   UNL     1       2.350   6.746  19.429  0.00  0.00    +0.000 A 
ATOM     13  C   UNL     1       1.725   7.396  20.480  0.00  0.00    +0.000 A 
ATOM     14  C   UNL     1       1.324   8.745  20.190  0.00  0.00    +0.000 A 
ATOM     15  C   UNL     1       0.692   9.714  21.009  0.00  0.00    +0.000 A 
ENDBRANCH   1  12
BRANCH   1  16
ATOM     16  N   UNL     1       4.479   5.653  19.589  0.00  0.00    +0.000 NA
ATOM     17  H   UNL     1       4.600   5.931  20.563  0.00  0.00    +0.000 HD
BRANCH  16  18
ATOM     18  C   UNL     1       5.482   4.639  19.264  0.00  0.00    +0.000 C 
BRANCH  18  19
ATOM     19  C   UNL     1       6.443   5.245  18.246  0.00  0.00    +0.000 C 
ATOM     20  C   UNL     1       6.035   6.557  17.526  0.00  0.00    +0.000 C 
ATOM     21  C   UNL     1       7.529   6.949  17.583  0.00  0.00    +0.000 C 
ATOM     22  C   UNL     1       7.639   6.044  18.827  0.00  0.00    +0.000 C 
ENDBRANCH  18  19
ENDBRANCH  16  18
ENDBRANCH   1  16
TORSDOF 4
ENDMDL
MODEL 9
REMARK VINA RESULT:      -7.9      2.751      5.016
REMARK  Name = 
REMARK  4 active torsions:
REMARK  status: ('A' for Active; 'I' for Inactive)
REMARK    1  A    between atoms: C_6  and  C_7
REMARK    2  A    between atoms: C_7  and  N_8
REMARK    3  A    between atoms: N_8  and  C_9
REMARK    4  A    between atoms: C_9  and  C_10
REMARK                            x       y       z     vdW  Elec       q    Type
REMARK                         _______ _______ _______ _____ _____    ______ ____
ROOT
ATOM      1  C   UNL     1       4.449   5.018  17.839  0.00  0.00    +0.000 C 
ATOM      2  C   UNL     1       5.299   5.585  16.662  0.00  0.00    +0.000 C 
ATOM      3  C   UNL     1       6.448   6.509  17.067  0.00  0.00    +0.000 C 
ATOM      4  C   UNL     1       7.327   5.860  18.125  0.00  0.00    +0.000 C 
ATOM      5  C   UNL     1       6.507   5.475  19.347  0.00  0.00    +0.000 C 
ATOM      6  C   UNL     1       5.375   4.509  18.983  0.00  0.00    +0.000 C 
ENDROOT
BRANCH   1  12
ATOM      7  C   UNL     1       0.740   9.101  20.938  0.00  0.00    +0.000 A 
ATOM      8  C   UNL     1       0.811   9.908  19.813  0.00  0.00    +0.000 A 
ATOM      9  C   UNL     1       1.506   9.478  18.678  0.00  0.00    +0.000 A 
ATOM     10  C   UNL     1       2.138   8.212  18.702  0.00  0.00    +0.000 A 
ATOM     11  S   UNL     1       3.035   7.470  17.436  0.00  0.00    +0.000 S 
ATOM     12  C   UNL     1       3.449   6.083  18.388  0.00  0.00    +0.000 A 
ATOM     13  C   UNL     1       2.851   6.189  19.633  0.00  0.00    +0.000 A 
ATOM     14  C   UNL     1       2.093   7.393  19.827  0.00  0.00    +0.000 A 
ATOM     15  C   UNL     1       1.375   7.857  20.959  0.00  0.00    +0.000 A 
ENDBRANCH   1  12
BRANCH   1  16
ATOM     16  N   UNL     1       3.578   3.940  17.318  0.00  0.00    +0.000 NA
ATOM     17  H   UNL     1       3.691   3.911  16.305  0.00  0.00    +0.000 HD
BRANCH  16  18
ATOM     18  C   UNL     1       3.722   2.583  17.844  0.00  0.00    +0.000 C 
BRANCH  18  19
ATOM     19  C   UNL     1       2.439   2.234  18.591  0.00  0.00    +0.000 C 
ATOM     20  C   UNL     1       2.311   2.642  20.082  0.00  0.00    +0.000 C 
ATOM     21  C   UNL     1       0.814   2.896  19.792  0.00  0.00    +0.000 C 
ATOM     22  C   UNL     1       1.222   3.158  18.328  0.00  0.00    +0.000 C 
ENDBRANCH  18  19
ENDBRANCH  16  18
ENDBRANCH   1  16
TORSDOF 4
ENDMDL
