MODEL 1
REMARK VINA RESULT:      -6.7      0.000      0.000
REMARK  Name = 
REMARK  6 active torsions:
REMARK  status: ('A' for Active; 'I' for Inactive)
REMARK    1  A    between atoms: C_1  and  C_2
REMARK    2  A    between atoms: C_7  and  O_8
REMARK    3  A    between atoms: O_8  and  C_9
REMARK    4  A    between atoms: C_12  and  C_14
REMARK    5  A    between atoms: C_14  and  N_15
REMARK    6  A    between atoms: C_19  and  O_20
REMARK                            x       y       z     vdW  Elec       q    Type
REMARK                         _______ _______ _______ _____ _____    ______ ____
ROOT
ATOM      1  C   UNL     1       2.257   8.452  18.430  0.00  0.00    +0.000 C 
ATOM      2  C   UNL     1       2.087   6.955  18.751  0.00  0.00    +0.000 C 
ATOM      3  N   UNL     1       3.269   6.690  17.964  0.00  0.00    +0.000 N 
ATOM      4  C   UNL     1       4.273   5.754  18.055  0.00  0.00    +0.000 C 
ATOM      5  O   UNL     1       5.228   5.749  17.279  0.00  0.00    +0.000 OA
ATOM      6  C   UNL     1       3.398   8.055  17.473  0.00  0.00    +0.000 C 
ENDROOT
BRANCH   1   7
ATOM      7  O   UNL     1       1.073   9.028  17.861  0.00  0.00    +0.000 OA
BRANCH   7  14
ATOM      8  C   UNL     1      -1.864   9.912  17.041  0.00  0.00    +0.000 C 
ATOM      9  C   UNL     1      -1.038  10.352  18.214  0.00  0.00    +0.000 A 
ATOM     10  C   UNL     1      -1.654  11.258  19.108  0.00  0.00    +0.000 A 
ATOM     11  C   UNL     1      -0.998  11.737  20.243  0.00  0.00    +0.000 A 
ATOM     12  C   UNL     1       0.298  11.327  20.509  0.00  0.00    +0.000 A 
ATOM     13  C   UNL     1       0.917  10.428  19.646  0.00  0.00    +0.000 A 
ATOM     14  C   UNL     1       0.264   9.926  18.506  0.00  0.00    +0.000 A 
ENDBRANCH   7  14
ENDBRANCH   1   7
BRANCH   4  15
ATOM     15  C   UNL     1       4.179   4.816  19.263  0.00  0.00    +0.000 C 
BRANCH  15  16
ATOM     16  N   UNL     1       3.889   3.405  18.957  0.00  0.00    +0.000 NA
ATOM     17  C   UNL     1       2.883   3.187  17.911  0.00  0.00    +0.000 C 
ATOM     18  C   UNL     1       1.430   3.430  18.338  0.00  0.00    +0.000 C 
ATOM     19  C   UNL     1       1.066   2.695  19.628  0.00  0.00    +0.000 C 
ATOM     20  C   UNL     1       2.095   2.939  20.727  0.00  0.00    +0.000 C 
ATOM     21  C   UNL     1       3.526   2.686  20.201  0.00  0.00    +0.000 C 
BRANCH  20  22
ATOM     22  O   UNL     1       1.953   4.263  21.264  0.00  0.00    +0.000 OA
ATOM     23  H   UNL     1       1.923   4.896  20.529  0.00  0.00    +0.000 HD
ENDBRANCH  20  22
ENDBRANCH  15  16
ENDBRANCH   4  15
TORSDOF 5
ENDMDL
MODEL 2
REMARK VINA RESULT:      -6.6      1.410      1.810
REMARK  Name = 
REMARK  6 active torsions:
REMARK  status: ('A' for Active; 'I' for Inactive)
REMARK    1  A    between atoms: C_1  and  C_2
REMARK    2  A    between atoms: C_7  and  O_8
REMARK    3  A    between atoms: O_8  and  C_9
REMARK    4  A    between atoms: C_12  and  C_14
REMARK    5  A    between atoms: C_14  and  N_15
REMARK    6  A    between atoms: C_19  and  O_20
REMARK                            x       y       z     vdW  Elec       q    Type
REMARK                         _______ _______ _______ _____ _____    ______ ____
ROOT
ATOM      1  C   UNL     1       2.080   8.446  19.429  0.00  0.00    +0.000 C 
ATOM      2  C   UNL     1       2.073   6.912  19.562  0.00  0.00    +0.000 C 
ATOM      3  N   UNL     1       2.819   6.839  18.327  0.00  0.00    +0.000 N 
ATOM      4  C   UNL     1       3.778   5.972  17.854  0.00  0.00    +0.000 C 
ATOM      5  O   UNL     1       4.321   6.138  16.763  0.00  0.00    +0.000 OA
ATOM      6  C   UNL     1       2.720   8.262  18.039  0.00  0.00    +0.000 C 
ENDROOT
BRANCH   1   7
ATOM      7  O   UNL     1       0.761   9.008  19.492  0.00  0.00    +0.000 OA
BRANCH   7  14
ATOM      8  C   UNL     1       0.225  12.134  19.625  0.00  0.00    +0.000 C 
ATOM      9  C   UNL     1       0.003  11.092  20.681  0.00  0.00    +0.000 A 
ATOM     10  C   UNL     1      -0.558  11.545  21.897  0.00  0.00    +0.000 A 
ATOM     11  C   UNL     1      -0.823  10.676  22.957  0.00  0.00    +0.000 A 
ATOM     12  C   UNL     1      -0.527   9.330  22.830  0.00  0.00    +0.000 A 
ATOM     13  C   UNL     1       0.017   8.863  21.636  0.00  0.00    +0.000 A 
ATOM     14  C   UNL     1       0.277   9.724  20.554  0.00  0.00    +0.000 A 
ENDBRANCH   7  14
ENDBRANCH   1   7
BRANCH   4  15
ATOM     15  C   UNL     1       4.206   4.878  18.837  0.00  0.00    +0.000 C 
BRANCH  15  16
ATOM     16  N   UNL     1       3.919   3.495  18.420  0.00  0.00    +0.000 NA
ATOM     17  C   UNL     1       2.709   3.326  17.607  0.00  0.00    +0.000 C 
ATOM     18  C   UNL     1       1.385   3.406  18.377  0.00  0.00    +0.000 C 
ATOM     19  C   UNL     1       1.365   2.499  19.607  0.00  0.00    +0.000 C 
ATOM     20  C   UNL     1       2.608   2.688  20.470  0.00  0.00    +0.000 C 
ATOM     21  C   UNL     1       3.888   2.608  19.608  0.00  0.00    +0.000 C 
BRANCH  20  22
ATOM     22  O   UNL     1       2.533   3.925  21.195  0.00  0.00    +0.000 OA
ATOM     23  H   UNL     1       2.812   4.647  20.610  0.00  0.00    +0.000 HD
ENDBRANCH  20  22
ENDBRANCH  15  16
ENDBRANCH   4  15
TORSDOF 5
ENDMDL
MODEL 3
REMARK VINA RESULT:      -6.5      1.679      1.988
REMARK  Name = 
REMARK  6 active torsions:
REMARK  status: ('A' for Active; 'I' for Inactive)
REMARK    1  A    between atoms: C_1  and  C_2
REMARK    2  A    between atoms: C_7  and  O_8
REMARK    3  A    between atoms: O_8  and  C_9
REMARK    4  A    between atoms: C_12  and  C_14
REMARK    5  A    between atoms: C_14  and  N_15
REMARK    6  A    between atoms: C_19  and  O_20
REMARK                            x       y       z     vdW  Elec       q    Type
REMARK                         _______ _______ _______ _____ _____    ______ ____
ROOT
ATOM      1  C   UNL     1       1.568   7.817  20.736  0.00  0.00    +0.000 C 
ATOM      2  C   UNL     1       1.778   6.329  20.397  0.00  0.00    +0.000 C 
ATOM      3  N   UNL     1       2.441   6.738  19.181  0.00  0.00    +0.000 N 
ATOM      4  C   UNL     1       3.474   6.204  18.444  0.00  0.00    +0.000 C 
ATOM      5  O   UNL     1       3.914   6.766  17.442  0.00  0.00    +0.000 OA
ATOM      6  C   UNL     1       2.132   8.151  19.341  0.00  0.00    +0.000 C 
ENDROOT
BRANCH   1   7
ATOM      7  O   UNL     1       0.193   8.131  20.999  0.00  0.00    +0.000 OA
BRANCH   7  14
ATOM      8  C   UNL     1      -0.467  10.438  18.922  0.00  0.00    +0.000 C 
ATOM      9  C   UNL     1      -0.598  10.447  20.415  0.00  0.00    +0.000 A 
ATOM     10  C   UNL     1      -1.123  11.628  20.991  0.00  0.00    +0.000 A 
ATOM     11  C   UNL     1      -1.303  11.762  22.368  0.00  0.00    +0.000 A 
ATOM     12  C   UNL     1      -0.957  10.718  23.209  0.00  0.00    +0.000 A 
ATOM     13  C   UNL     1      -0.448   9.544  22.661  0.00  0.00    +0.000 A 
ATOM     14  C   UNL     1      -0.272   9.389  21.274  0.00  0.00    +0.000 A 
ENDBRANCH   7  14
ENDBRANCH   1   7
BRANCH   4  15
ATOM     15  C   UNL     1       4.111   4.943  19.038  0.00  0.00    +0.000 C 
BRANCH  15  16
ATOM     16  N   UNL     1       3.933   3.708  18.256  0.00  0.00    +0.000 NA
ATOM     17  C   UNL     1       2.698   3.640  17.467  0.00  0.00    +0.000 C 
ATOM     18  C   UNL     1       1.422   3.358  18.269  0.00  0.00    +0.000 C 
ATOM     19  C   UNL     1       1.564   2.148  19.193  0.00  0.00    +0.000 C 
ATOM     20  C   UNL     1       2.833   2.226  20.034  0.00  0.00    +0.000 C 
ATOM     21  C   UNL     1       4.060   2.528  19.146  0.00  0.00    +0.000 C 
BRANCH  20  22
ATOM     22  O   UNL     1       2.684   3.196  21.082  0.00  0.00    +0.000 OA
ATOM     23  H   UNL     1       1.793   3.577  21.030  0.00  0.00    +0.000 HD
ENDBRANCH  20  22
ENDBRANCH  15  16
ENDBRANCH   4  15
TORSDOF 5
ENDMDL
MODEL 4
REMARK VINA RESULT:      -6.5      2.265      3.667
REMARK  Name = 
REMARK  6 active torsions:
REMARK  status: ('A' for Active; 'I' for Inactive)
REMARK    1  A    between atoms: C_1  and  C_2
REMARK    2  A    between atoms: C_7  and  O_8
REMARK    3  A    between atoms: O_8  and  C_9
REMARK    4  A    between atoms: C_12  and  C_14
REMARK    5  A    between atoms: C_14  and  N_15
REMARK    6  A    between atoms: C_19  and  O_20
REMARK                            x       y       z     vdW  Elec       q    Type
REMARK                         _______ _______ _______ _____ _____    ______ ____
ROOT
ATOM      1  C   UNL     1       1.280   8.598  18.754  0.00  0.00    +0.000 C 
ATOM      2  C   UNL     1       2.494   8.281  17.862  0.00  0.00    +0.000 C 
ATOM      3  N   UNL     1       2.938   7.341  18.864  0.00  0.00    +0.000 N 
ATOM      4  C   UNL     1       3.618   6.145  18.801  0.00  0.00    +0.000 C 
ATOM      5  O   UNL     1       3.852   5.478  19.809  0.00  0.00    +0.000 OA
ATOM      6  C   UNL     1       1.920   7.708  19.838  0.00  0.00    +0.000 C 
ENDROOT
BRANCH   1   7
ATOM      7  O   UNL     1       1.151  10.000  19.027  0.00  0.00    +0.000 OA
BRANCH   7  14
ATOM      8  C   UNL     1       0.348  12.270  21.096  0.00  0.00    +0.000 C 
ATOM      9  C   UNL     1      -0.463  11.679  19.981  0.00  0.00    +0.000 A 
ATOM     10  C   UNL     1      -1.754  12.225  19.788  0.00  0.00    +0.000 A 
ATOM     11  C   UNL     1      -2.605  11.770  18.781  0.00  0.00    +0.000 A 
ATOM     12  C   UNL     1      -2.190  10.751  17.941  0.00  0.00    +0.000 A 
ATOM     13  C   UNL     1      -0.920  10.207  18.109  0.00  0.00    +0.000 A 
ATOM     14  C   UNL     1      -0.045  10.664  19.111  0.00  0.00    +0.000 A 
ENDBRANCH   7  14
ENDBRANCH   1   7
BRANCH   4  15
ATOM     15  C   UNL     1       3.938   5.654  17.386  0.00  0.00    +0.000 C 
BRANCH  15  16
ATOM     16  N   UNL     1       5.092   6.294  16.732  0.00  0.00    +0.000 NA
ATOM     17  C   UNL     1       5.428   5.768  15.404  0.00  0.00    +0.000 C 
ATOM     18  C   UNL     1       6.134   4.406  15.397  0.00  0.00    +0.000 C 
ATOM     19  C   UNL     1       7.339   4.365  16.337  0.00  0.00    +0.000 C 
ATOM     20  C   UNL     1       6.989   4.887  17.727  0.00  0.00    +0.000 C 
ATOM     21  C   UNL     1       6.269   6.250  17.633  0.00  0.00    +0.000 C 
BRANCH  20  22
ATOM     22  O   UNL     1       6.206   3.921  18.445  0.00  0.00    +0.000 OA
ATOM     23  H   UNL     1       6.683   3.672  19.253  0.00  0.00    +0.000 HD
ENDBRANCH  20  22
ENDBRANCH  15  16
ENDBRANCH   4  15
TORSDOF 5
ENDMDL
MODEL 5
REMARK VINA RESULT:      -6.5      1.249      1.546
REMARK  Name = 
REMARK  6 active torsions:
REMARK  status: ('A' for Active; 'I' for Inactive)
REMARK    1  A    between atoms: C_1  and  C_2
REMARK    2  A    between atoms: C_7  and  O_8
REMARK    3  A    between atoms: O_8  and  C_9
REMARK    4  A    between atoms: C_12  and  C_14
REMARK    5  A    between atoms: C_14  and  N_15
REMARK    6  A    between atoms: C_19  and  O_20
REMARK                            x       y       z     vdW  Elec       q    Type
REMARK                         _______ _______ _______ _____ _____    ______ ____
ROOT
ATOM      1  C   UNL     1       2.323   8.392  18.903  0.00  0.00    +0.000 C 
ATOM      2  C   UNL     1       2.168   6.912  19.301  0.00  0.00    +0.000 C 
ATOM      3  N   UNL     1       2.956   6.557  18.144  0.00  0.00    +0.000 N 
ATOM      4  C   UNL     1       3.850   5.542  17.885  0.00  0.00    +0.000 C 
ATOM      5  O   UNL     1       4.453   5.465  16.815  0.00  0.00    +0.000 OA
ATOM      6  C   UNL     1       3.002   7.909  17.606  0.00  0.00    +0.000 C 
ENDROOT
BRANCH   1   7
ATOM      7  O   UNL     1       1.061   9.064  18.791  0.00  0.00    +0.000 OA
BRANCH   7  14
ATOM      8  C   UNL     1      -0.359   8.506  21.575  0.00  0.00    +0.000 C 
ATOM      9  C   UNL     1      -0.023   9.819  20.933  0.00  0.00    +0.000 A 
ATOM     10  C   UNL     1      -0.343  10.979  21.676  0.00  0.00    +0.000 A 
ATOM     11  C   UNL     1      -0.075  12.262  21.196  0.00  0.00    +0.000 A 
ATOM     12  C   UNL     1       0.516  12.418  19.954  0.00  0.00    +0.000 A 
ATOM     13  C   UNL     1       0.848  11.288  19.211  0.00  0.00    +0.000 A 
ATOM     14  C   UNL     1       0.596   9.989  19.687  0.00  0.00    +0.000 A 
ENDBRANCH   7  14
ENDBRANCH   1   7
BRANCH   4  15
ATOM     15  C   UNL     1       4.132   4.609  19.067  0.00  0.00    +0.000 C 
BRANCH  15  16
ATOM     16  N   UNL     1       3.690   3.214  18.900  0.00  0.00    +0.000 NA
ATOM     17  C   UNL     1       2.445   3.040  18.144  0.00  0.00    +0.000 C 
ATOM     18  C   UNL     1       1.161   3.393  18.904  0.00  0.00    +0.000 C 
ATOM     19  C   UNL     1       1.084   2.718  20.274  0.00  0.00    +0.000 C 
ATOM     20  C   UNL     1       2.366   2.918  21.075  0.00  0.00    +0.000 C 
ATOM     21  C   UNL     1       3.604   2.553  20.225  0.00  0.00    +0.000 C 
BRANCH  20  22
ATOM     22  O   UNL     1       2.442   4.261  21.575  0.00  0.00    +0.000 OA
ATOM     23  H   UNL     1       3.337   4.603  21.417  0.00  0.00    +0.000 HD
ENDBRANCH  20  22
ENDBRANCH  15  16
ENDBRANCH   4  15
TORSDOF 5
ENDMDL
MODEL 6
REMARK VINA RESULT:      -6.5      2.650      7.321
REMARK  Name = 
REMARK  6 active torsions:
REMARK  status: ('A' for Active; 'I' for Inactive)
REMARK    1  A    between atoms: C_1  and  C_2
REMARK    2  A    between atoms: C_7  and  O_8
REMARK    3  A    between atoms: O_8  and  C_9
REMARK    4  A    between atoms: C_12  and  C_14
REMARK    5  A    between atoms: C_14  and  N_15
REMARK    6  A    between atoms: C_19  and  O_20
REMARK                            x       y       z     vdW  Elec       q    Type
REMARK                         _______ _______ _______ _____ _____    ______ ____
ROOT
ATOM      1  C   UNL     1       2.750   5.034  18.832  0.00  0.00    +0.000 C 
ATOM      2  C   UNL     1       2.922   6.055  19.973  0.00  0.00    +0.000 C 
ATOM      3  N   UNL     1       2.631   7.106  19.026  0.00  0.00    +0.000 N 
ATOM      4  C   UNL     1       2.002   8.326  19.135  0.00  0.00    +0.000 C 
ATOM      5  O   UNL     1       1.822   9.052  18.158  0.00  0.00    +0.000 OA
ATOM      6  C   UNL     1       2.623   6.228  17.865  0.00  0.00    +0.000 C 
ENDROOT
BRANCH   1   7
ATOM      7  O   UNL     1       3.889   4.174  18.690  0.00  0.00    +0.000 OA
BRANCH   7  14
ATOM      8  C   UNL     1       6.693   5.490  19.385  0.00  0.00    +0.000 C 
ATOM      9  C   UNL     1       6.196   4.967  18.071  0.00  0.00    +0.000 A 
ATOM     10  C   UNL     1       7.104   5.028  16.989  0.00  0.00    +0.000 A 
ATOM     11  C   UNL     1       6.769   4.567  15.715  0.00  0.00    +0.000 A 
ATOM     12  C   UNL     1       5.511   4.037  15.488  0.00  0.00    +0.000 A 
ATOM     13  C   UNL     1       4.605   3.960  16.542  0.00  0.00    +0.000 A 
ATOM     14  C   UNL     1       4.933   4.408  17.835  0.00  0.00    +0.000 A 
ENDBRANCH   7  14
ENDBRANCH   1   7
BRANCH   4  15
ATOM     15  C   UNL     1       1.434   8.643  20.522  0.00  0.00    +0.000 C 
BRANCH  15  16
ATOM     16  N   UNL     1      -0.014   8.903  20.576  0.00  0.00    +0.000 NA
ATOM     17  C   UNL     1      -0.421  10.258  20.185  0.00  0.00    +0.000 C 
ATOM     18  C   UNL     1      -0.150  11.350  21.226  0.00  0.00    +0.000 C 
ATOM     19  C   UNL     1      -0.679  10.985  22.612  0.00  0.00    +0.000 C 
ATOM     20  C   UNL     1      -0.239   9.588  23.036  0.00  0.00    +0.000 C 
ATOM     21  C   UNL     1      -0.537   8.560  21.921  0.00  0.00    +0.000 C 
BRANCH  20  22
ATOM     22  O   UNL     1       1.149   9.587  23.402  0.00  0.00    +0.000 OA
ATOM     23  H   UNL     1       1.318  10.344  23.985  0.00  0.00    +0.000 HD
ENDBRANCH  20  22
ENDBRANCH  15  16
ENDBRANCH   4  15
TORSDOF 5
ENDMDL
MODEL 7
REMARK VINA RESULT:      -6.4      4.651      7.363
REMARK  Name = 
REMARK  6 active torsions:
REMARK  status: ('A' for Active; 'I' for Inactive)
REMARK    1  A    between atoms: C_1  and  C_2
REMARK    2  A    between atoms: C_7  and  O_8
REMARK    3  A    between atoms: O_8  and  C_9
REMARK    4  A    between atoms: C_12  and  C_14
REMARK    5  A    between atoms: C_14  and  N_15
REMARK    6  A    between atoms: C_19  and  O_20
REMARK                            x       y       z     vdW  Elec       q    Type
REMARK                         _______ _______ _______ _____ _____    ______ ____
ROOT
ATOM      1  C   UNL     1       5.445   4.599  15.845  0.00  0.00    +0.000 C 
ATOM      2  C   UNL     1       4.359   4.027  16.775  0.00  0.00    +0.000 C 
ATOM      3  N   UNL     1       5.237   4.278  17.893  0.00  0.00    +0.000 N 
ATOM      4  C   UNL     1       5.016   4.628  19.207  0.00  0.00    +0.000 C 
ATOM      5  O   UNL     1       5.944   4.839  19.987  0.00  0.00    +0.000 OA
ATOM      6  C   UNL     1       6.374   4.667  17.073  0.00  0.00    +0.000 C 
ENDROOT
BRANCH   1   7
ATOM      7  O   UNL     1       5.794   3.694  14.788  0.00  0.00    +0.000 OA
BRANCH   7  14
ATOM      8  C   UNL     1       5.322   2.588  11.850  0.00  0.00    +0.000 C 
ATOM      9  C   UNL     1       6.293   3.628  12.322  0.00  0.00    +0.000 A 
ATOM     10  C   UNL     1       7.091   4.238  11.326  0.00  0.00    +0.000 A 
ATOM     11  C   UNL     1       8.027   5.227  11.631  0.00  0.00    +0.000 A 
ATOM     12  C   UNL     1       8.195   5.629  12.945  0.00  0.00    +0.000 A 
ATOM     13  C   UNL     1       7.413   5.047  13.939  0.00  0.00    +0.000 A 
ATOM     14  C   UNL     1       6.456   4.059  13.646  0.00  0.00    +0.000 A 
ENDBRANCH   7  14
ENDBRANCH   1   7
BRANCH   4  15
ATOM     15  C   UNL     1       3.549   4.861  19.579  0.00  0.00    +0.000 C 
BRANCH  15  16
ATOM     16  N   UNL     1       2.945   3.852  20.466  0.00  0.00    +0.000 NA
ATOM     17  C   UNL     1       3.431   2.481  20.275  0.00  0.00    +0.000 C 
ATOM     18  C   UNL     1       2.893   1.761  19.033  0.00  0.00    +0.000 C 
ATOM     19  C   UNL     1       1.370   1.836  18.925  0.00  0.00    +0.000 C 
ATOM     20  C   UNL     1       0.860   3.263  19.097  0.00  0.00    +0.000 C 
ATOM     21  C   UNL     1       1.468   3.911  20.362  0.00  0.00    +0.000 C 
BRANCH  20  22
ATOM     22  O   UNL     1       1.132   4.039  17.920  0.00  0.00    +0.000 OA
ATOM     23  H   UNL     1       0.636   3.662  17.176  0.00  0.00    +0.000 HD
ENDBRANCH  20  22
ENDBRANCH  15  16
ENDBRANCH   4  15
TORSDOF 5
ENDMDL
MODEL 8
REMARK VINA RESULT:      -6.4      2.210      3.308
REMARK  Name = 
REMARK  6 active torsions:
REMARK  status: ('A' for Active; 'I' for Inactive)
REMARK    1  A    between atoms: C_1  and  C_2
REMARK    2  A    between atoms: C_7  and  O_8
REMARK    3  A    between atoms: O_8  and  C_9
REMARK    4  A    between atoms: C_12  and  C_14
REMARK    5  A    between atoms: C_14  and  N_15
REMARK    6  A    between atoms: C_19  and  O_20
REMARK                            x       y       z     vdW  Elec       q    Type
REMARK                         _______ _______ _______ _____ _____    ______ ____
ROOT
ATOM      1  C   UNL     1       1.390   8.758  18.556  0.00  0.00    +0.000 C 
ATOM      2  C   UNL     1       2.630   8.330  17.749  0.00  0.00    +0.000 C 
ATOM      3  N   UNL     1       2.934   7.379  18.792  0.00  0.00    +0.000 N 
ATOM      4  C   UNL     1       3.521   6.133  18.792  0.00  0.00    +0.000 C 
ATOM      5  O   UNL     1       3.637   5.471  19.822  0.00  0.00    +0.000 OA
ATOM      6  C   UNL     1       1.888   7.844  19.692  0.00  0.00    +0.000 C 
ENDROOT
BRANCH   1   7
ATOM      7  O   UNL     1       1.354  10.172  18.798  0.00  0.00    +0.000 OA
BRANCH   7  14
ATOM      8  C   UNL     1      -1.502  10.086  17.416  0.00  0.00    +0.000 C 
ATOM      9  C   UNL     1      -1.058  10.866  18.617  0.00  0.00    +0.000 A 
ATOM     10  C   UNL     1      -2.048  11.648  19.257  0.00  0.00    +0.000 A 
ATOM     11  C   UNL     1      -1.767  12.413  20.390  0.00  0.00    +0.000 A 
ATOM     12  C   UNL     1      -0.484  12.422  20.910  0.00  0.00    +0.000 A 
ATOM     13  C   UNL     1       0.502  11.651  20.300  0.00  0.00    +0.000 A 
ATOM     14  C   UNL     1       0.231  10.864  19.166  0.00  0.00    +0.000 A 
ENDBRANCH   7  14
ENDBRANCH   1   7
BRANCH   4  15
ATOM     15  C   UNL     1       3.890   5.590  17.408  0.00  0.00    +0.000 C 
BRANCH  15  16
ATOM     16  N   UNL     1       5.035   6.241  16.749  0.00  0.00    +0.000 NA
ATOM     17  C   UNL     1       5.417   5.669  15.453  0.00  0.00    +0.000 C 
ATOM     18  C   UNL     1       6.170   4.335  15.521  0.00  0.00    +0.000 C 
ATOM     19  C   UNL     1       7.355   4.377  16.487  0.00  0.00    +0.000 C 
ATOM     20  C   UNL     1       6.957   4.947  17.844  0.00  0.00    +0.000 C 
ATOM     21  C   UNL     1       6.192   6.279  17.675  0.00  0.00    +0.000 C 
BRANCH  20  22
ATOM     22  O   UNL     1       6.193   3.986  18.588  0.00  0.00    +0.000 OA
ATOM     23  H   UNL     1       5.635   4.459  19.227  0.00  0.00    +0.000 HD
ENDBRANCH  20  22
ENDBRANCH  15  16
ENDBRANCH   4  15
TORSDOF 5
ENDMDL
MODEL 9
REMARK VINA RESULT:      -6.4      2.150      3.911
REMARK  Name = 
REMARK  6 active torsions:
REMARK  status: ('A' for Active; 'I' for Inactive)
REMARK    1  A    between atoms: C_1  and  C_2
REMARK    2  A    between atoms: C_7  and  O_8
REMARK    3  A    between atoms: O_8  and  C_9
REMARK    4  A    between atoms: C_12  and  C_14
REMARK    5  A    between atoms: C_14  and  N_15
REMARK    6  A    between atoms: C_19  and  O_20
REMARK                            x       y       z     vdW  Elec       q    Type
REMARK                         _______ _______ _______ _____ _____    ______ ____
ROOT
ATOM      1  C   UNL     1       1.561   7.169  20.253  0.00  0.00    +0.000 C 
ATOM      2  C   UNL     1       2.822   6.912  19.407  0.00  0.00    +0.000 C 
ATOM      3  N   UNL     1       2.745   5.520  19.781  0.00  0.00    +0.000 N 
ATOM      4  C   UNL     1       3.074   4.349  19.135  0.00  0.00    +0.000 C 
ATOM      5  O   UNL     1       2.872   3.248  19.646  0.00  0.00    +0.000 OA
ATOM      6  C   UNL     1       1.662   5.708  20.735  0.00  0.00    +0.000 C 
ENDROOT
BRANCH   1   7
ATOM      7  O   UNL     1       1.753   8.210  21.220  0.00  0.00    +0.000 OA
BRANCH   7  14
ATOM      8  C   UNL     1       1.007  10.480  19.130  0.00  0.00    +0.000 C 
ATOM      9  C   UNL     1       0.507  10.285  20.530  0.00  0.00    +0.000 A 
ATOM     10  C   UNL     1      -0.460  11.212  20.984  0.00  0.00    +0.000 A 
ATOM     11  C   UNL     1      -1.013  11.136  22.263  0.00  0.00    +0.000 A 
ATOM     12  C   UNL     1      -0.607  10.134  23.127  0.00  0.00    +0.000 A 
ATOM     13  C   UNL     1       0.338   9.206  22.696  0.00  0.00    +0.000 A 
ATOM     14  C   UNL     1       0.894   9.261  21.405  0.00  0.00    +0.000 A 
ENDBRANCH   7  14
ENDBRANCH   1   7
BRANCH   4  15
ATOM     15  C   UNL     1       3.577   4.519  17.699  0.00  0.00    +0.000 C 
BRANCH  15  16
ATOM     16  N   UNL     1       4.925   3.993  17.426  0.00  0.00    +0.000 NA
ATOM     17  C   UNL     1       5.943   4.334  18.427  0.00  0.00    +0.000 C 
ATOM     18  C   UNL     1       6.457   5.778  18.374  0.00  0.00    +0.000 C 
ATOM     19  C   UNL     1       6.890   6.197  16.969  0.00  0.00    +0.000 C 
ATOM     20  C   UNL     1       5.826   5.868  15.928  0.00  0.00    +0.000 C 
ATOM     21  C   UNL     1       5.358   4.401  16.068  0.00  0.00    +0.000 C 
BRANCH  20  22
ATOM     22  O   UNL     1       4.727   6.787  16.025  0.00  0.00    +0.000 OA
ATOM     23  H   UNL     1       4.742   7.200  16.902  0.00  0.00    +0.000 HD
ENDBRANCH  20  22
ENDBRANCH  15  16
ENDBRANCH   4  15
TORSDOF 5
ENDMDL
