MODEL 1
REMARK VINA RESULT:      -7.9      0.000      0.000
REMARK  Name = 
REMARK  9 active torsions:
REMARK  status: ('A' for Active; 'I' for Inactive)
REMARK    1  A    between atoms: C_2  and  C_3
REMARK    2  A    between atoms: C_3  and  O_4
REMARK    3  A    between atoms: O_4  and  C_5
REMARK    4  A    between atoms: C_5  and  C_7
REMARK    5  A    between atoms: C_7  and  C_8
REMARK    6  A    between atoms: C_7  and  N_15
REMARK    7  A    between atoms: C_8  and  C_9
REMARK    8  A    between atoms: C_16  and  C_18
REMARK    9  A    between atoms: N_23  and  C_24
REMARK                            x       y       z     vdW  Elec       q    Type
REMARK                         _______ _______ _______ _____ _____    ______ ____
ROOT
ATOM      1  C   UNL     1       5.771   4.514  17.065  0.00  0.00    +0.000 C 
ENDROOT
BRANCH   1   2
ATOM      2  N   UNL     1       4.699   4.433  18.040  0.00  0.00    +0.000 N 
ATOM      3  C   UNL     1       3.897   3.336  18.172  0.00  0.00    +0.000 C 
ATOM      4  O   UNL     1       4.006   2.348  17.448  0.00  0.00    +0.000 OA
ATOM      5  H   UNL     1       4.544   5.233  18.657  0.00  0.00    +0.000 HD
BRANCH   3   6
ATOM      6  C   UNL     1       2.862   3.433  19.180  0.00  0.00    +0.000 A 
ATOM      7  C   UNL     1       1.636   4.056  19.072  0.00  0.00    +0.000 A 
ATOM      8  C   UNL     1       0.863   3.945  20.265  0.00  0.00    +0.000 A 
ATOM      9  C   UNL     1       1.523   3.231  21.238  0.00  0.00    +0.000 A 
ATOM     10  S   UNL     1       3.051   2.684  20.723  0.00  0.00    +0.000 S 
ENDBRANCH   3   6
ENDBRANCH   1   2
BRANCH   1  11
ATOM     11  C   UNL     1       7.068   5.057  17.683  0.00  0.00    +0.000 C 
ATOM     12  O   UNL     1       7.947   4.354  18.171  0.00  0.00    +0.000 OA
BRANCH  11  13
ATOM     13  O   UNL     1       7.071   6.422  17.724  0.00  0.00    +0.000 OA
BRANCH  13  14
ATOM     14  C   UNL     1       8.127   6.986  18.501  0.00  0.00    +0.000 C 
BRANCH  14  16
ATOM     15  O   UNL     1       7.581   8.994  17.273  0.00  0.00    +0.000 OA
ATOM     16  C   UNL     1       8.207   8.488  18.200  0.00  0.00    +0.000 C 
ATOM     17  N   UNL     1       8.994   9.199  19.085  0.00  0.00    +0.000 N 
ATOM     18  H   UNL     1       9.420   8.697  19.860  0.00  0.00    +0.000 HD
BRANCH  17  19
ATOM     19  C   UNL     1       9.187  10.616  19.007  0.00  0.00    +0.000 C 
ATOM     20  C   UNL     1      10.285  11.281  19.790  0.00  0.00    +0.000 C 
ATOM     21  C   UNL     1      10.391  11.172  18.297  0.00  0.00    +0.000 C 
ENDBRANCH  17  19
ENDBRANCH  14  16
ENDBRANCH  13  14
ENDBRANCH  11  13
ENDBRANCH   1  11
BRANCH   1  22
ATOM     22  C   UNL     1       5.388   5.311  15.805  0.00  0.00    +0.000 C 
BRANCH  22  23
ATOM     23  C   UNL     1       6.029   4.789  14.539  0.00  0.00    +0.000 A 
ATOM     24  C   UNL     1       7.239   5.318  14.074  0.00  0.00    +0.000 A 
ATOM     25  C   UNL     1       7.752   4.924  12.838  0.00  0.00    +0.000 A 
ATOM     26  C   UNL     1       7.083   3.969  12.073  0.00  0.00    +0.000 A 
ATOM     27  C   UNL     1       5.911   3.392  12.554  0.00  0.00    +0.000 A 
ATOM     28  C   UNL     1       5.384   3.802  13.778  0.00  0.00    +0.000 A 
ENDBRANCH  22  23
ENDBRANCH   1  22
TORSDOF 9
ENDMDL
MODEL 2
REMARK VINA RESULT:      -7.9      3.576      6.591
REMARK  Name = 
REMARK  9 active torsions:
REMARK  status: ('A' for Active; 'I' for Inactive)
REMARK    1  A    between atoms: C_2  and  C_3
REMARK    2  A    between atoms: C_3  and  O_4
REMARK    3  A    between atoms: O_4  and  C_5
REMARK    4  A    between atoms: C_5  and  C_7
REMARK    5  A    between atoms: C_7  and  C_8
REMARK    6  A    between atoms: C_7  and  N_15
REMARK    7  A    between atoms: C_8  and  C_9
REMARK    8  A    between atoms: C_16  and  C_18
REMARK    9  A    between atoms: N_23  and  C_24
REMARK                            x       y       z     vdW  Elec       q    Type
REMARK                         _______ _______ _______ _____ _____    ______ ____
ROOT
ATOM      1  C   UNL     1       4.375   5.679  17.225  0.00  0.00    +0.000 C 
ENDROOT
BRANCH   1   2
ATOM      2  N   UNL     1       3.444   6.727  17.603  0.00  0.00    +0.000 N 
ATOM      3  C   UNL     1       3.031   6.925  18.890  0.00  0.00    +0.000 C 
ATOM      4  O   UNL     1       3.395   6.204  19.817  0.00  0.00    +0.000 OA
ATOM      5  H   UNL     1       3.088   7.346  16.872  0.00  0.00    +0.000 HD
BRANCH   3   6
ATOM      6  C   UNL     1       2.082   8.001  19.085  0.00  0.00    +0.000 A 
ATOM      7  C   UNL     1       1.603   8.884  18.140  0.00  0.00    +0.000 A 
ATOM      8  C   UNL     1       0.669   9.813  18.687  0.00  0.00    +0.000 A 
ATOM      9  C   UNL     1       0.460   9.596  20.031  0.00  0.00    +0.000 A 
ATOM     10  S   UNL     1       1.364   8.284  20.628  0.00  0.00    +0.000 S 
ENDBRANCH   3   6
ENDBRANCH   1   2
BRANCH   1  11
ATOM     11  C   UNL     1       5.420   6.178  16.217  0.00  0.00    +0.000 C 
ATOM     12  O   UNL     1       5.156   6.831  15.214  0.00  0.00    +0.000 OA
BRANCH  11  13
ATOM     13  O   UNL     1       6.668   5.709  16.516  0.00  0.00    +0.000 OA
BRANCH  13  14
ATOM     14  C   UNL     1       6.955   4.416  15.983  0.00  0.00    +0.000 C 
BRANCH  14  16
ATOM     15  O   UNL     1       7.787   5.301  13.894  0.00  0.00    +0.000 OA
ATOM     16  C   UNL     1       7.021   4.522  14.454  0.00  0.00    +0.000 C 
ATOM     17  N   UNL     1       6.190   3.639  13.793  0.00  0.00    +0.000 N 
ATOM     18  H   UNL     1       5.640   2.988  14.348  0.00  0.00    +0.000 HD
BRANCH  17  19
ATOM     19  C   UNL     1       6.111   3.547  12.366  0.00  0.00    +0.000 C 
ATOM     20  C   UNL     1       5.911   2.216  11.696  0.00  0.00    +0.000 C 
ATOM     21  C   UNL     1       4.799   3.223  11.704  0.00  0.00    +0.000 C 
ENDBRANCH  17  19
ENDBRANCH  14  16
ENDBRANCH  13  14
ENDBRANCH  11  13
ENDBRANCH   1  11
BRANCH   1  22
ATOM     22  C   UNL     1       3.680   4.406  16.710  0.00  0.00    +0.000 C 
BRANCH  22  23
ATOM     23  C   UNL     1       2.953   3.633  17.788  0.00  0.00    +0.000 A 
ATOM     24  C   UNL     1       1.557   3.685  17.891  0.00  0.00    +0.000 A 
ATOM     25  C   UNL     1       0.908   3.078  18.968  0.00  0.00    +0.000 A 
ATOM     26  C   UNL     1       1.642   2.382  19.927  0.00  0.00    +0.000 A 
ATOM     27  C   UNL     1       3.024   2.273  19.801  0.00  0.00    +0.000 A 
ATOM     28  C   UNL     1       3.677   2.899  18.740  0.00  0.00    +0.000 A 
ENDBRANCH  22  23
ENDBRANCH   1  22
TORSDOF 9
ENDMDL
MODEL 3
REMARK VINA RESULT:      -7.7      0.653      1.170
REMARK  Name = 
REMARK  9 active torsions:
REMARK  status: ('A' for Active; 'I' for Inactive)
REMARK    1  A    between atoms: C_2  and  C_3
REMARK    2  A    between atoms: C_3  and  O_4
REMARK    3  A    between atoms: O_4  and  C_5
REMARK    4  A    between atoms: C_5  and  C_7
REMARK    5  A    between atoms: C_7  and  C_8
REMARK    6  A    between atoms: C_7  and  N_15
REMARK    7  A    between atoms: C_8  and  C_9
REMARK    8  A    between atoms: C_16  and  C_18
REMARK    9  A    between atoms: N_23  and  C_24
REMARK                            x       y       z     vdW  Elec       q    Type
REMARK                         _______ _______ _______ _____ _____    ______ ____
ROOT
ATOM      1  C   UNL     1       6.106   4.584  16.867  0.00  0.00    +0.000 C 
ENDROOT
BRANCH   1   2
ATOM      2  N   UNL     1       5.188   4.643  17.991  0.00  0.00    +0.000 N 
ATOM      3  C   UNL     1       4.171   3.749  18.167  0.00  0.00    +0.000 C 
ATOM      4  O   UNL     1       3.940   2.846  17.364  0.00  0.00    +0.000 OA
ATOM      5  H   UNL     1       5.315   5.385  18.682  0.00  0.00    +0.000 HD
BRANCH   3   6
ATOM      6  C   UNL     1       3.337   3.968  19.330  0.00  0.00    +0.000 A 
ATOM      7  C   UNL     1       2.568   5.076  19.618  0.00  0.00    +0.000 A 
ATOM      8  C   UNL     1       1.865   4.945  20.852  0.00  0.00    +0.000 A 
ATOM      9  C   UNL     1       2.114   3.732  21.455  0.00  0.00    +0.000 A 
ATOM     10  S   UNL     1       3.170   2.755  20.546  0.00  0.00    +0.000 S 
ENDBRANCH   3   6
ENDBRANCH   1   2
BRANCH   1  11
ATOM     11  C   UNL     1       7.547   4.906  17.288  0.00  0.00    +0.000 C 
ATOM     12  O   UNL     1       8.327   4.088  17.764  0.00  0.00    +0.000 OA
BRANCH  11  13
ATOM     13  O   UNL     1       7.817   6.241  17.171  0.00  0.00    +0.000 OA
BRANCH  13  14
ATOM     14  C   UNL     1       7.909   6.935  18.414  0.00  0.00    +0.000 C 
BRANCH  14  16
ATOM     15  O   UNL     1       7.481   8.999  17.235  0.00  0.00    +0.000 OA
ATOM     16  C   UNL     1       8.101   8.429  18.127  0.00  0.00    +0.000 C 
ATOM     17  N   UNL     1       8.983   9.058  18.985  0.00  0.00    +0.000 N 
ATOM     18  H   UNL     1       9.399   8.511  19.733  0.00  0.00    +0.000 HD
BRANCH  17  19
ATOM     19  C   UNL     1       9.291  10.455  18.914  0.00  0.00    +0.000 C 
ATOM     20  C   UNL     1       9.110  11.338  20.117  0.00  0.00    +0.000 C 
ATOM     21  C   UNL     1      10.491  10.998  19.640  0.00  0.00    +0.000 C 
ENDBRANCH  17  19
ENDBRANCH  14  16
ENDBRANCH  13  14
ENDBRANCH  11  13
ENDBRANCH   1  11
BRANCH   1  22
ATOM     22  C   UNL     1       5.671   5.462  15.681  0.00  0.00    +0.000 C 
BRANCH  22  23
ATOM     23  C   UNL     1       6.090   4.914  14.335  0.00  0.00    +0.000 A 
ATOM     24  C   UNL     1       5.348   3.905  13.708  0.00  0.00    +0.000 A 
ATOM     25  C   UNL     1       5.815   3.313  12.534  0.00  0.00    +0.000 A 
ATOM     26  C   UNL     1       7.005   3.751  11.954  0.00  0.00    +0.000 A 
ATOM     27  C   UNL     1       7.718   4.795  12.536  0.00  0.00    +0.000 A 
ATOM     28  C   UNL     1       7.266   5.371  13.722  0.00  0.00    +0.000 A 
ENDBRANCH  22  23
ENDBRANCH   1  22
TORSDOF 9
ENDMDL
MODEL 4
REMARK VINA RESULT:      -7.6      1.108      1.130
REMARK  Name = 
REMARK  9 active torsions:
REMARK  status: ('A' for Active; 'I' for Inactive)
REMARK    1  A    between atoms: C_2  and  C_3
REMARK    2  A    between atoms: C_3  and  O_4
REMARK    3  A    between atoms: O_4  and  C_5
REMARK    4  A    between atoms: C_5  and  C_7
REMARK    5  A    between atoms: C_7  and  C_8
REMARK    6  A    between atoms: C_7  and  N_15
REMARK    7  A    between atoms: C_8  and  C_9
REMARK    8  A    between atoms: C_16  and  C_18
REMARK    9  A    between atoms: N_23  and  C_24
REMARK                            x       y       z     vdW  Elec       q    Type
REMARK                         _______ _______ _______ _____ _____    ______ ____
ROOT
ATOM      1  C   UNL     1       6.020   4.157  16.842  0.00  0.00    +0.000 C 
ENDROOT
BRANCH   1   2
ATOM      2  N   UNL     1       4.886   3.843  17.693  0.00  0.00    +0.000 N 
ATOM      3  C   UNL     1       3.843   4.702  17.888  0.00  0.00    +0.000 C 
ATOM      4  O   UNL     1       3.807   5.821  17.380  0.00  0.00    +0.000 OA
ATOM      5  H   UNL     1       4.870   2.935  18.162  0.00  0.00    +0.000 HD
BRANCH   3   6
ATOM      6  C   UNL     1       2.807   4.237  18.787  0.00  0.00    +0.000 A 
ATOM      7  C   UNL     1       2.198   3.000  18.802  0.00  0.00    +0.000 A 
ATOM      8  C   UNL     1       1.223   2.886  19.837  0.00  0.00    +0.000 A 
ATOM      9  C   UNL     1       1.133   4.039  20.583  0.00  0.00    +0.000 A 
ATOM     10  S   UNL     1       2.216   5.243  20.058  0.00  0.00    +0.000 S 
ENDBRANCH   3   6
ENDBRANCH   1   2
BRANCH   1  11
ATOM     11  C   UNL     1       7.215   4.682  17.650  0.00  0.00    +0.000 C 
ATOM     12  O   UNL     1       8.288   4.099  17.753  0.00  0.00    +0.000 OA
BRANCH  11  13
ATOM     13  O   UNL     1       6.897   5.823  18.332  0.00  0.00    +0.000 OA
BRANCH  13  14
ATOM     14  C   UNL     1       8.022   6.538  18.841  0.00  0.00    +0.000 C 
BRANCH  14  16
ATOM     15  O   UNL     1       7.461   8.142  17.123  0.00  0.00    +0.000 OA
ATOM     16  C   UNL     1       8.076   7.912  18.160  0.00  0.00    +0.000 C 
ATOM     17  N   UNL     1       8.827   8.849  18.843  0.00  0.00    +0.000 N 
ATOM     18  H   UNL     1       9.247   8.578  19.728  0.00  0.00    +0.000 HD
BRANCH  17  19
ATOM     19  C   UNL     1       8.992  10.202  18.401  0.00  0.00    +0.000 C 
ATOM     20  C   UNL     1       9.140  11.317  19.399  0.00  0.00    +0.000 C 
ATOM     21  C   UNL     1      10.317  10.892  18.570  0.00  0.00    +0.000 C 
ENDBRANCH  17  19
ENDBRANCH  14  16
ENDBRANCH  13  14
ENDBRANCH  11  13
ENDBRANCH   1  11
BRANCH   1  22
ATOM     22  C   UNL     1       5.669   5.119  15.694  0.00  0.00    +0.000 C 
BRANCH  22  23
ATOM     23  C   UNL     1       6.218   4.688  14.352  0.00  0.00    +0.000 A 
ATOM     24  C   UNL     1       7.369   5.283  13.822  0.00  0.00    +0.000 A 
ATOM     25  C   UNL     1       7.790   4.974  12.528  0.00  0.00    +0.000 A 
ATOM     26  C   UNL     1       7.089   4.039  11.767  0.00  0.00    +0.000 A 
ATOM     27  C   UNL     1       5.979   3.396  12.307  0.00  0.00    +0.000 A 
ATOM     28  C   UNL     1       5.542   3.722  13.591  0.00  0.00    +0.000 A 
ENDBRANCH  22  23
ENDBRANCH   1  22
TORSDOF 9
ENDMDL
MODEL 5
REMARK VINA RESULT:      -7.4      4.789      8.144
REMARK  Name = 
REMARK  9 active torsions:
REMARK  status: ('A' for Active; 'I' for Inactive)
REMARK    1  A    between atoms: C_2  and  C_3
REMARK    2  A    between atoms: C_3  and  O_4
REMARK    3  A    between atoms: O_4  and  C_5
REMARK    4  A    between atoms: C_5  and  C_7
REMARK    5  A    between atoms: C_7  and  C_8
REMARK    6  A    between atoms: C_7  and  N_15
REMARK    7  A    between atoms: C_8  and  C_9
REMARK    8  A    between atoms: C_16  and  C_18
REMARK    9  A    between atoms: N_23  and  C_24
REMARK                            x       y       z     vdW  Elec       q    Type
REMARK                         _______ _______ _______ _____ _____    ______ ____
ROOT
ATOM      1  C   UNL     1       2.335   6.858  18.645  0.00  0.00    +0.000 C 
ENDROOT
BRANCH   1   2
ATOM      2  N   UNL     1       3.675   6.426  18.293  0.00  0.00    +0.000 N 
ATOM      3  C   UNL     1       3.926   5.294  17.572  0.00  0.00    +0.000 C 
ATOM      4  O   UNL     1       3.030   4.540  17.196  0.00  0.00    +0.000 OA
ATOM      5  H   UNL     1       4.465   7.000  18.597  0.00  0.00    +0.000 HD
BRANCH   3   6
ATOM      6  C   UNL     1       5.323   5.000  17.330  0.00  0.00    +0.000 A 
ATOM      7  C   UNL     1       6.357   5.018  18.242  0.00  0.00    +0.000 A 
ATOM      8  C   UNL     1       7.608   4.664  17.654  0.00  0.00    +0.000 A 
ATOM      9  C   UNL     1       7.479   4.376  16.314  0.00  0.00    +0.000 A 
ATOM     10  S   UNL     1       5.872   4.514  15.768  0.00  0.00    +0.000 S 
ENDBRANCH   3   6
ENDBRANCH   1   2
BRANCH   1  11
ATOM     11  C   UNL     1       2.096   8.332  18.288  0.00  0.00    +0.000 C 
ATOM     12  O   UNL     1       2.511   8.872  17.269  0.00  0.00    +0.000 OA
BRANCH  11  13
ATOM     13  O   UNL     1       1.462   8.997  19.300  0.00  0.00    +0.000 OA
BRANCH  13  14
ATOM     14  C   UNL     1       1.047  10.321  18.967  0.00  0.00    +0.000 C 
BRANCH  14  16
ATOM     15  O   UNL     1      -1.230  10.653  19.704  0.00  0.00    +0.000 OA
ATOM     16  C   UNL     1      -0.476  10.326  18.791  0.00  0.00    +0.000 C 
ATOM     17  N   UNL     1      -0.897   9.985  17.520  0.00  0.00    +0.000 N 
ATOM     18  H   UNL     1      -0.191   9.792  16.815  0.00  0.00    +0.000 HD
BRANCH  17  19
ATOM     19  C   UNL     1      -2.274   9.951  17.128  0.00  0.00    +0.000 C 
ATOM     20  C   UNL     1      -2.980  11.211  16.711  0.00  0.00    +0.000 C 
ATOM     21  C   UNL     1      -2.651  10.165  15.687  0.00  0.00    +0.000 C 
ENDBRANCH  17  19
ENDBRANCH  14  16
ENDBRANCH  13  14
ENDBRANCH  11  13
ENDBRANCH   1  11
BRANCH   1  22
ATOM     22  C   UNL     1       1.974   6.583  20.115  0.00  0.00    +0.000 C 
BRANCH  22  23
ATOM     23  C   UNL     1       1.820   5.114  20.438  0.00  0.00    +0.000 A 
ATOM     24  C   UNL     1       0.866   4.329  19.776  0.00  0.00    +0.000 A 
ATOM     25  C   UNL     1       0.641   3.011  20.174  0.00  0.00    +0.000 A 
ATOM     26  C   UNL     1       1.392   2.451  21.207  0.00  0.00    +0.000 A 
ATOM     27  C   UNL     1       2.384   3.204  21.830  0.00  0.00    +0.000 A 
ATOM     28  C   UNL     1       2.595   4.529  21.450  0.00  0.00    +0.000 A 
ENDBRANCH  22  23
ENDBRANCH   1  22
TORSDOF 9
ENDMDL
MODEL 6
REMARK VINA RESULT:      -7.4      3.364      6.783
REMARK  Name = 
REMARK  9 active torsions:
REMARK  status: ('A' for Active; 'I' for Inactive)
REMARK    1  A    between atoms: C_2  and  C_3
REMARK    2  A    between atoms: C_3  and  O_4
REMARK    3  A    between atoms: O_4  and  C_5
REMARK    4  A    between atoms: C_5  and  C_7
REMARK    5  A    between atoms: C_7  and  C_8
REMARK    6  A    between atoms: C_7  and  N_15
REMARK    7  A    between atoms: C_8  and  C_9
REMARK    8  A    between atoms: C_16  and  C_18
REMARK    9  A    between atoms: N_23  and  C_24
REMARK                            x       y       z     vdW  Elec       q    Type
REMARK                         _______ _______ _______ _____ _____    ______ ____
ROOT
ATOM      1  C   UNL     1       5.085   4.931  19.172  0.00  0.00    +0.000 C 
ENDROOT
BRANCH   1   2
ATOM      2  N   UNL     1       4.146   5.997  19.467  0.00  0.00    +0.000 N 
ATOM      3  C   UNL     1       3.253   6.476  18.551  0.00  0.00    +0.000 C 
ATOM      4  O   UNL     1       3.206   6.056  17.396  0.00  0.00    +0.000 OA
ATOM      5  H   UNL     1       4.153   6.403  20.405  0.00  0.00    +0.000 HD
BRANCH   3   6
ATOM      6  C   UNL     1       2.406   7.558  19.007  0.00  0.00    +0.000 A 
ATOM      7  C   UNL     1       1.881   7.742  20.269  0.00  0.00    +0.000 A 
ATOM      8  C   UNL     1       1.094   8.928  20.363  0.00  0.00    +0.000 A 
ATOM      9  C   UNL     1       1.058   9.613  19.170  0.00  0.00    +0.000 A 
ATOM     10  S   UNL     1       1.969   8.851  17.951  0.00  0.00    +0.000 S 
ENDBRANCH   3   6
ENDBRANCH   1   2
BRANCH   1  11
ATOM     11  C   UNL     1       6.174   5.382  18.187  0.00  0.00    +0.000 C 
ATOM     12  O   UNL     1       7.154   6.049  18.500  0.00  0.00    +0.000 OA
BRANCH  11  13
ATOM     13  O   UNL     1       5.858   5.045  16.901  0.00  0.00    +0.000 OA
BRANCH  13  14
ATOM     14  C   UNL     1       6.838   4.242  16.245  0.00  0.00    +0.000 C 
BRANCH  14  16
ATOM     15  O   UNL     1       7.186   5.606  14.281  0.00  0.00    +0.000 OA
ATOM     16  C   UNL     1       6.786   4.540  14.741  0.00  0.00    +0.000 C 
ATOM     17  N   UNL     1       6.304   3.496  13.976  0.00  0.00    +0.000 N 
ATOM     18  H   UNL     1       6.057   2.629  14.447  0.00  0.00    +0.000 HD
BRANCH  17  19
ATOM     19  C   UNL     1       6.194   3.548  12.549  0.00  0.00    +0.000 C 
ATOM     20  C   UNL     1       5.852   2.311  11.765  0.00  0.00    +0.000 C 
ATOM     21  C   UNL     1       4.847   3.418  11.893  0.00  0.00    +0.000 C 
ENDBRANCH  17  19
ENDBRANCH  14  16
ENDBRANCH  13  14
ENDBRANCH  11  13
ENDBRANCH   1  11
BRANCH   1  22
ATOM     22  C   UNL     1       4.405   3.639  18.684  0.00  0.00    +0.000 C 
BRANCH  22  23
ATOM     23  C   UNL     1       3.199   3.242  19.505  0.00  0.00    +0.000 A 
ATOM     24  C   UNL     1       1.925   3.180  18.925  0.00  0.00    +0.000 A 
ATOM     25  C   UNL     1       0.802   2.944  19.719  0.00  0.00    +0.000 A 
ATOM     26  C   UNL     1       0.943   2.727  21.089  0.00  0.00    +0.000 A 
ATOM     27  C   UNL     1       2.211   2.726  21.664  0.00  0.00    +0.000 A 
ATOM     28  C   UNL     1       3.332   2.986  20.877  0.00  0.00    +0.000 A 
ENDBRANCH  22  23
ENDBRANCH   1  22
TORSDOF 9
ENDMDL
MODEL 7
REMARK VINA RESULT:      -7.4      3.863      6.938
REMARK  Name = 
REMARK  9 active torsions:
REMARK  status: ('A' for Active; 'I' for Inactive)
REMARK    1  A    between atoms: C_2  and  C_3
REMARK    2  A    between atoms: C_3  and  O_4
REMARK    3  A    between atoms: O_4  and  C_5
REMARK    4  A    between atoms: C_5  and  C_7
REMARK    5  A    between atoms: C_7  and  C_8
REMARK    6  A    between atoms: C_7  and  N_15
REMARK    7  A    between atoms: C_8  and  C_9
REMARK    8  A    between atoms: C_16  and  C_18
REMARK    9  A    between atoms: N_23  and  C_24
REMARK                            x       y       z     vdW  Elec       q    Type
REMARK                         _______ _______ _______ _____ _____    ______ ____
ROOT
ATOM      1  C   UNL     1       3.108   6.673  18.500  0.00  0.00    +0.000 C 
ENDROOT
BRANCH   1   2
ATOM      2  N   UNL     1       2.326   7.895  18.545  0.00  0.00    +0.000 N 
ATOM      3  C   UNL     1       1.700   8.336  19.675  0.00  0.00    +0.000 C 
ATOM      4  O   UNL     1       1.728   7.707  20.732  0.00  0.00    +0.000 OA
ATOM      5  H   UNL     1       2.246   8.451  17.690  0.00  0.00    +0.000 HD
BRANCH   3   6
ATOM      6  C   UNL     1       0.943   9.562  19.536  0.00  0.00    +0.000 A 
ATOM      7  C   UNL     1       0.303  10.034  18.409  0.00  0.00    +0.000 A 
ATOM      8  C   UNL     1      -0.357  11.277  18.638  0.00  0.00    +0.000 A 
ATOM      9  C   UNL     1      -0.206  11.704  19.938  0.00  0.00    +0.000 A 
ATOM     10  S   UNL     1       0.706  10.618  20.880  0.00  0.00    +0.000 S 
ENDBRANCH   3   6
ENDBRANCH   1   2
BRANCH   1  11
ATOM     11  C   UNL     1       4.258   6.766  17.486  0.00  0.00    +0.000 C 
ATOM     12  O   UNL     1       4.160   7.279  16.377  0.00  0.00    +0.000 OA
BRANCH  11  13
ATOM     13  O   UNL     1       5.370   6.106  17.927  0.00  0.00    +0.000 OA
BRANCH  13  14
ATOM     14  C   UNL     1       6.563   6.415  17.208  0.00  0.00    +0.000 C 
BRANCH  14  16
ATOM     15  O   UNL     1       7.870   4.447  16.700  0.00  0.00    +0.000 OA
ATOM     16  C   UNL     1       6.956   5.195  16.365  0.00  0.00    +0.000 C 
ATOM     17  N   UNL     1       6.164   5.003  15.249  0.00  0.00    +0.000 N 
ATOM     18  H   UNL     1       5.390   5.644  15.092  0.00  0.00    +0.000 HD
BRANCH  17  19
ATOM     19  C   UNL     1       6.337   3.912  14.337  0.00  0.00    +0.000 C 
ATOM     20  C   UNL     1       5.407   3.740  13.169  0.00  0.00    +0.000 C 
ATOM     21  C   UNL     1       6.826   4.171  12.939  0.00  0.00    +0.000 C 
ENDBRANCH  17  19
ENDBRANCH  14  16
ENDBRANCH  13  14
ENDBRANCH  11  13
ENDBRANCH   1  11
BRANCH   1  22
ATOM     22  C   UNL     1       2.258   5.415  18.252  0.00  0.00    +0.000 C 
BRANCH  22  23
ATOM     23  C   UNL     1       2.320   4.409  19.379  0.00  0.00    +0.000 A 
ATOM     24  C   UNL     1       3.464   3.627  19.581  0.00  0.00    +0.000 A 
ATOM     25  C   UNL     1       3.463   2.610  20.537  0.00  0.00    +0.000 A 
ATOM     26  C   UNL     1       2.335   2.392  21.327  0.00  0.00    +0.000 A 
ATOM     27  C   UNL     1       1.214   3.204  21.176  0.00  0.00    +0.000 A 
ATOM     28  C   UNL     1       1.205   4.204  20.205  0.00  0.00    +0.000 A 
ENDBRANCH  22  23
ENDBRANCH   1  22
TORSDOF 9
ENDMDL
MODEL 8
REMARK VINA RESULT:      -7.4      2.601      5.289
REMARK  Name = 
REMARK  9 active torsions:
REMARK  status: ('A' for Active; 'I' for Inactive)
REMARK    1  A    between atoms: C_2  and  C_3
REMARK    2  A    between atoms: C_3  and  O_4
REMARK    3  A    between atoms: O_4  and  C_5
REMARK    4  A    between atoms: C_5  and  C_7
REMARK    5  A    between atoms: C_7  and  C_8
REMARK    6  A    between atoms: C_7  and  N_15
REMARK    7  A    between atoms: C_8  and  C_9
REMARK    8  A    between atoms: C_16  and  C_18
REMARK    9  A    between atoms: N_23  and  C_24
REMARK                            x       y       z     vdW  Elec       q    Type
REMARK                         _______ _______ _______ _____ _____    ______ ____
ROOT
ATOM      1  C   UNL     1       6.227   6.549  17.453  0.00  0.00    +0.000 C 
ENDROOT
BRANCH   1   2
ATOM      2  N   UNL     1       6.247   6.033  16.096  0.00  0.00    +0.000 N 
ATOM      3  C   UNL     1       7.028   4.981  15.713  0.00  0.00    +0.000 C 
ATOM      4  O   UNL     1       7.797   4.414  16.488  0.00  0.00    +0.000 OA
ATOM      5  H   UNL     1       5.645   6.478  15.399  0.00  0.00    +0.000 HD
BRANCH   3   6
ATOM      6  C   UNL     1       6.942   4.612  14.315  0.00  0.00    +0.000 A 
ATOM      7  C   UNL     1       6.054   3.735  13.729  0.00  0.00    +0.000 A 
ATOM      8  C   UNL     1       6.254   3.619  12.321  0.00  0.00    +0.000 A 
ATOM      9  C   UNL     1       7.281   4.424  11.883  0.00  0.00    +0.000 A 
ATOM     10  S   UNL     1       7.992   5.320  13.143  0.00  0.00    +0.000 S 
ENDBRANCH   3   6
ENDBRANCH   1   2
BRANCH   1  11
ATOM     11  C   UNL     1       7.612   7.038  17.901  0.00  0.00    +0.000 C 
ATOM     12  O   UNL     1       8.232   6.576  18.853  0.00  0.00    +0.000 OA
BRANCH  11  13
ATOM     13  O   UNL     1       8.017   8.125  17.180  0.00  0.00    +0.000 OA
BRANCH  13  14
ATOM     14  C   UNL     1       7.644   9.381  17.746  0.00  0.00    +0.000 C 
BRANCH  14  16
ATOM     15  O   UNL     1       9.254   9.675  19.523  0.00  0.00    +0.000 OA
ATOM     16  C   UNL     1       8.880  10.008  18.402  0.00  0.00    +0.000 C 
ATOM     17  N   UNL     1       9.538  10.923  17.603  0.00  0.00    +0.000 N 
ATOM     18  H   UNL     1       9.185  11.083  16.663  0.00  0.00    +0.000 HD
BRANCH  17  19
ATOM     19  C   UNL     1      10.730  11.609  18.005  0.00  0.00    +0.000 C 
ATOM     20  C   UNL     1      11.212  12.812  17.244  0.00  0.00    +0.000 C 
ATOM     21  C   UNL     1      10.638  12.978  18.621  0.00  0.00    +0.000 C 
ENDBRANCH  17  19
ENDBRANCH  14  16
ENDBRANCH  13  14
ENDBRANCH  11  13
ENDBRANCH   1  11
BRANCH   1  22
ATOM     22  C   UNL     1       5.639   5.556  18.471  0.00  0.00    +0.000 C 
BRANCH  22  23
ATOM     23  C   UNL     1       4.268   5.041  18.094  0.00  0.00    +0.000 A 
ATOM     24  C   UNL     1       3.132   5.847  18.244  0.00  0.00    +0.000 A 
ATOM     25  C   UNL     1       1.860   5.319  18.021  0.00  0.00    +0.000 A 
ATOM     26  C   UNL     1       1.712   3.995  17.608  0.00  0.00    +0.000 A 
ATOM     27  C   UNL     1       2.838   3.204  17.397  0.00  0.00    +0.000 A 
ATOM     28  C   UNL     1       4.109   3.722  17.643  0.00  0.00    +0.000 A 
ENDBRANCH  22  23
ENDBRANCH   1  22
TORSDOF 9
ENDMDL
MODEL 9
REMARK VINA RESULT:      -7.4      3.461      6.724
REMARK  Name = 
REMARK  9 active torsions:
REMARK  status: ('A' for Active; 'I' for Inactive)
REMARK    1  A    between atoms: C_2  and  C_3
REMARK    2  A    between atoms: C_3  and  O_4
REMARK    3  A    between atoms: O_4  and  C_5
REMARK    4  A    between atoms: C_5  and  C_7
REMARK    5  A    between atoms: C_7  and  C_8
REMARK    6  A    between atoms: C_7  and  N_15
REMARK    7  A    between atoms: C_8  and  C_9
REMARK    8  A    between atoms: C_16  and  C_18
REMARK    9  A    between atoms: N_23  and  C_24
REMARK                            x       y       z     vdW  Elec       q    Type
REMARK                         _______ _______ _______ _____ _____    ______ ____
ROOT
ATOM      1  C   UNL     1       4.440   5.403  17.773  0.00  0.00    +0.000 C 
ENDROOT
BRANCH   1   2
ATOM      2  N   UNL     1       3.584   6.567  17.916  0.00  0.00    +0.000 N 
ATOM      3  C   UNL     1       2.892   6.844  19.060  0.00  0.00    +0.000 C 
ATOM      4  O   UNL     1       2.920   6.106  20.043  0.00  0.00    +0.000 OA
ATOM      5  H   UNL     1       3.502   7.208  17.124  0.00  0.00    +0.000 HD
BRANCH   3   6
ATOM      6  C   UNL     1       2.068   8.034  19.021  0.00  0.00    +0.000 A 
ATOM      7  C   UNL     1       1.819   8.852  17.939  0.00  0.00    +0.000 A 
ATOM      8  C   UNL     1       0.949   9.934  18.264  0.00  0.00    +0.000 A 
ATOM      9  C   UNL     1       0.555   9.896  19.582  0.00  0.00    +0.000 A 
ATOM     10  S   UNL     1       1.210   8.567  20.420  0.00  0.00    +0.000 S 
ENDBRANCH   3   6
ENDBRANCH   1   2
BRANCH   1  11
ATOM     11  C   UNL     1       5.749   5.740  17.045  0.00  0.00    +0.000 C 
ATOM     12  O   UNL     1       6.594   6.521  17.469  0.00  0.00    +0.000 OA
BRANCH  11  13
ATOM     13  O   UNL     1       5.804   5.151  15.813  0.00  0.00    +0.000 OA
BRANCH  13  14
ATOM     14  C   UNL     1       7.124   4.855  15.360  0.00  0.00    +0.000 C 
BRANCH  14  16
ATOM     15  O   UNL     1       7.741   5.444  13.099  0.00  0.00    +0.000 OA
ATOM     16  C   UNL     1       7.094   4.703  13.834  0.00  0.00    +0.000 C 
ATOM     17  N   UNL     1       6.325   3.645  13.388  0.00  0.00    +0.000 N 
ATOM     18  H   UNL     1       5.878   3.050  14.081  0.00  0.00    +0.000 HD
BRANCH  17  19
ATOM     19  C   UNL     1       6.178   3.304  12.005  0.00  0.00    +0.000 C 
ATOM     20  C   UNL     1       5.745   1.922  11.602  0.00  0.00    +0.000 C 
ATOM     21  C   UNL     1       4.807   3.081  11.428  0.00  0.00    +0.000 C 
ENDBRANCH  17  19
ENDBRANCH  14  16
ENDBRANCH  13  14
ENDBRANCH  11  13
ENDBRANCH   1  11
BRANCH   1  22
ATOM     22  C   UNL     1       3.735   4.207  17.109  0.00  0.00    +0.000 C 
BRANCH  22  23
ATOM     23  C   UNL     1       2.804   3.460  18.038  0.00  0.00    +0.000 A 
ATOM     24  C   UNL     1       3.296   2.485  18.916  0.00  0.00    +0.000 A 
ATOM     25  C   UNL     1       2.416   1.709  19.671  0.00  0.00    +0.000 A 
ATOM     26  C   UNL     1       1.041   1.925  19.587  0.00  0.00    +0.000 A 
ATOM     27  C   UNL     1       0.546   2.933  18.764  0.00  0.00    +0.000 A 
ATOM     28  C   UNL     1       1.422   3.694  17.991  0.00  0.00    +0.000 A 
ENDBRANCH  22  23
ENDBRANCH   1  22
TORSDOF 9
ENDMDL
