MODEL 1
REMARK VINA RESULT:      -6.7      0.000      0.000
REMARK  Name = 
REMARK  5 active torsions:
REMARK  status: ('A' for Active; 'I' for Inactive)
REMARK    1  A    between atoms: C_1  and  O_2
REMARK    2  A    between atoms: O_2  and  C_3
REMARK    3  A    between atoms: N_14  and  C_15
REMARK    4  A    between atoms: N_24  and  C_25
REMARK    5  A    between atoms: C_28  and  C_29
REMARK                            x       y       z     vdW  Elec       q    Type
REMARK                         _______ _______ _______ _____ _____    ______ ____
ROOT
ATOM      1  C   UNL     1       4.805  16.434  19.269  0.00  0.00    +0.000 A 
ATOM      2  C   UNL     1       5.603  16.292  18.137  0.00  0.00    +0.000 A 
ATOM      3  C   UNL     1       6.742  15.536  18.222  0.00  0.00    +0.000 A 
ATOM      4  C   UNL     1       7.093  14.954  19.443  0.00  0.00    +0.000 A 
ATOM      5  C   UNL     1       6.313  15.025  20.656  0.00  0.00    +0.000 A 
ATOM      6  C   UNL     1       5.137  15.827  20.506  0.00  0.00    +0.000 A 
ATOM      7  N   UNL     1       4.289  16.047  21.520  0.00  0.00    +0.000 NA
ATOM      8  C   UNL     1       4.526  15.501  22.720  0.00  0.00    +0.000 A 
ATOM      9  C   UNL     1       5.611  14.695  22.998  0.00  0.00    +0.000 A 
ATOM     10  C   UNL     1       5.711  14.157  24.358  0.00  0.00    +0.000 A 
ATOM     11  O   UNL     1       4.775  14.353  25.136  0.00  0.00    +0.000 OA
ATOM     12  N   UNL     1       6.876  13.493  24.677  0.00  0.00    +0.000 N 
ATOM     13  C   UNL     1       7.833  13.128  23.743  0.00  0.00    +0.000 A 
ATOM     14  O   UNL     1       8.785  12.401  24.054  0.00  0.00    +0.000 OA
ATOM     15  N   UNL     1       7.644  13.542  22.406  0.00  0.00    +0.000 N 
ATOM     16  C   UNL     1       6.546  14.420  21.996  0.00  0.00    +0.000 A 
ENDROOT
BRANCH  12  17
ATOM     17  C   UNL     1       7.043  13.006  26.020  0.00  0.00    +0.000 A 
ATOM     18  C   UNL     1       7.819  13.751  26.936  0.00  0.00    +0.000 A 
ATOM     19  C   UNL     1       7.953  13.334  28.264  0.00  0.00    +0.000 A 
ATOM     20  C   UNL     1       7.326  12.167  28.699  0.00  0.00    +0.000 A 
ATOM     21  C   UNL     1       6.572  11.411  27.803  0.00  0.00    +0.000 A 
ATOM     22  C   UNL     1       6.430  11.823  26.473  0.00  0.00    +0.000 A 
ATOM     23 CL   UNL     1       5.582  10.759  25.400  0.00  0.00    +0.000 Cl
ENDBRANCH  12  17
BRANCH  15  24
ATOM     24  C   UNL     1       8.649  13.047  21.468  0.00  0.00    +0.000 C 
ATOM     25  C   UNL     1       8.927  11.533  21.499  0.00  0.00    +0.000 C 
ATOM     26  C   UNL     1       9.815  11.155  20.310  0.00  0.00    +0.000 C 
ATOM     27  C   UNL     1      11.125  11.957  20.308  0.00  0.00    +0.000 C 
ATOM     28  C   UNL     1      11.980  11.569  19.104  0.00  0.00    +0.000 C 
ATOM     29  C   UNL     1      10.859  13.470  20.316  0.00  0.00    +0.000 C 
ATOM     30  C   UNL     1       9.944  13.878  21.471  0.00  0.00    +0.000 C 
ENDBRANCH  15  24
BRANCH   1  32
ATOM     31  C   UNL     1       2.549  16.691  18.541  0.00  0.00    +0.000 C 
ATOM     32  O   UNL     1       3.669  17.225  19.242  0.00  0.00    +0.000 OA
ENDBRANCH   1  32
TORSDOF 3
ENDMDL
MODEL 2
REMARK VINA RESULT:      -6.5      2.442      6.153
REMARK  Name = 
REMARK  5 active torsions:
REMARK  status: ('A' for Active; 'I' for Inactive)
REMARK    1  A    between atoms: C_1  and  O_2
REMARK    2  A    between atoms: O_2  and  C_3
REMARK    3  A    between atoms: N_14  and  C_15
REMARK    4  A    between atoms: N_24  and  C_25
REMARK    5  A    between atoms: C_28  and  C_29
REMARK                            x       y       z     vdW  Elec       q    Type
REMARK                         _______ _______ _______ _____ _____    ______ ____
ROOT
ATOM      1  C   UNL     1       3.327  17.591  21.015  0.00  0.00    +0.000 A 
ATOM      2  C   UNL     1       2.741  17.413  22.265  0.00  0.00    +0.000 A 
ATOM      3  C   UNL     1       3.309  16.526  23.141  0.00  0.00    +0.000 A 
ATOM      4  C   UNL     1       4.437  15.800  22.751  0.00  0.00    +0.000 A 
ATOM      5  C   UNL     1       5.125  15.941  21.490  0.00  0.00    +0.000 A 
ATOM      6  C   UNL     1       4.486  16.880  20.617  0.00  0.00    +0.000 A 
ATOM      7  N   UNL     1       4.946  17.137  19.386  0.00  0.00    +0.000 NA
ATOM      8  C   UNL     1       6.044  16.513  18.938  0.00  0.00    +0.000 A 
ATOM      9  C   UNL     1       6.766  15.600  19.679  0.00  0.00    +0.000 A 
ATOM     10  C   UNL     1       7.958  15.025  19.049  0.00  0.00    +0.000 A 
ATOM     11  O   UNL     1       8.315  15.467  17.955  0.00  0.00    +0.000 OA
ATOM     12  N   UNL     1       8.578  13.994  19.723  0.00  0.00    +0.000 N 
ATOM     13  C   UNL     1       8.272  13.635  21.026  0.00  0.00    +0.000 A 
ATOM     14  O   UNL     1       8.959  12.807  21.639  0.00  0.00    +0.000 OA
ATOM     15  N   UNL     1       7.204  14.302  21.663  0.00  0.00    +0.000 N 
ATOM     16  C   UNL     1       6.349  15.271  20.972  0.00  0.00    +0.000 A 
ENDROOT
BRANCH  12  17
ATOM     17  C   UNL     1       9.713  13.358  19.110  0.00  0.00    +0.000 A 
ATOM     18  C   UNL     1       9.516  12.206  18.315  0.00  0.00    +0.000 A 
ATOM     19  C   UNL     1      10.592  11.598  17.659  0.00  0.00    +0.000 A 
ATOM     20  C   UNL     1      11.878  12.120  17.790  0.00  0.00    +0.000 A 
ATOM     21  C   UNL     1      12.092  13.244  18.586  0.00  0.00    +0.000 A 
ATOM     22  C   UNL     1      11.020  13.860  19.243  0.00  0.00    +0.000 A 
ATOM     23 CL   UNL     1      11.396  15.174  20.310  0.00  0.00    +0.000 Cl
ENDBRANCH  12  17
BRANCH  15  24
ATOM     24  C   UNL     1       6.998  13.928  23.060  0.00  0.00    +0.000 C 
ATOM     25  C   UNL     1       8.129  14.292  24.039  0.00  0.00    +0.000 C 
ATOM     26  C   UNL     1       7.656  14.049  25.475  0.00  0.00    +0.000 C 
ATOM     27  C   UNL     1       7.197  12.597  25.679  0.00  0.00    +0.000 C 
ATOM     28  C   UNL     1       6.717  12.391  27.113  0.00  0.00    +0.000 C 
ATOM     29  C   UNL     1       6.095  12.211  24.681  0.00  0.00    +0.000 C 
ATOM     30  C   UNL     1       6.520  12.475  23.236  0.00  0.00    +0.000 C 
ENDBRANCH  15  24
BRANCH   1  32
ATOM     31  C   UNL     1       1.474  18.075  19.594  0.00  0.00    +0.000 C 
ATOM     32  O   UNL     1       2.762  18.443  20.081  0.00  0.00    +0.000 OA
ENDBRANCH   1  32
TORSDOF 3
ENDMDL
MODEL 3
REMARK VINA RESULT:      -6.2      7.815      9.854
REMARK  Name = 
REMARK  5 active torsions:
REMARK  status: ('A' for Active; 'I' for Inactive)
REMARK    1  A    between atoms: C_1  and  O_2
REMARK    2  A    between atoms: O_2  and  C_3
REMARK    3  A    between atoms: N_14  and  C_15
REMARK    4  A    between atoms: N_24  and  C_25
REMARK    5  A    between atoms: C_28  and  C_29
REMARK                            x       y       z     vdW  Elec       q    Type
REMARK                         _______ _______ _______ _____ _____    ______ ____
ROOT
ATOM      1  C   UNL     1      -5.347  11.656  18.052  0.00  0.00    +0.000 A 
ATOM      2  C   UNL     1      -4.706  10.749  17.212  0.00  0.00    +0.000 A 
ATOM      3  C   UNL     1      -3.368  10.514  17.392  0.00  0.00    +0.000 A 
ATOM      4  C   UNL     1      -2.674  11.210  18.386  0.00  0.00    +0.000 A 
ATOM      5  C   UNL     1      -3.262  12.144  19.317  0.00  0.00    +0.000 A 
ATOM      6  C   UNL     1      -4.660  12.348  19.079  0.00  0.00    +0.000 A 
ATOM      7  N   UNL     1      -5.391  13.199  19.812  0.00  0.00    +0.000 NA
ATOM      8  C   UNL     1      -4.818  13.885  20.810  0.00  0.00    +0.000 A 
ATOM      9  C   UNL     1      -3.487  13.771  21.157  0.00  0.00    +0.000 A 
ATOM     10  C   UNL     1      -3.023  14.575  22.291  0.00  0.00    +0.000 A 
ATOM     11  O   UNL     1      -3.857  15.211  22.940  0.00  0.00    +0.000 OA
ATOM     12  N   UNL     1      -1.664  14.587  22.527  0.00  0.00    +0.000 N 
ATOM     13  C   UNL     1      -0.770  13.731  21.906  0.00  0.00    +0.000 A 
ATOM     14  O   UNL     1       0.414  13.674  22.263  0.00  0.00    +0.000 OA
ATOM     15  N   UNL     1      -1.268  12.863  20.909  0.00  0.00    +0.000 N 
ATOM     16  C   UNL     1      -2.654  12.909  20.438  0.00  0.00    +0.000 A 
ENDROOT
BRANCH  12  17
ATOM     17  C   UNL     1      -1.160  15.414  23.590  0.00  0.00    +0.000 A 
ATOM     18  C   UNL     1      -1.371  15.023  24.932  0.00  0.00    +0.000 A 
ATOM     19  C   UNL     1      -0.844  15.775  25.987  0.00  0.00    +0.000 A 
ATOM     20  C   UNL     1      -0.108  16.930  25.725  0.00  0.00    +0.000 A 
ATOM     21  C   UNL     1       0.094  17.339  24.408  0.00  0.00    +0.000 A 
ATOM     22  C   UNL     1      -0.428  16.590  23.346  0.00  0.00    +0.000 A 
ATOM     23 CL   UNL     1      -0.237  17.240  21.751  0.00  0.00    +0.000 Cl
ENDBRANCH  12  17
BRANCH  15  24
ATOM     24  C   UNL     1      -0.281  11.934  20.363  0.00  0.00    +0.000 C 
ATOM     25  C   UNL     1       0.220  12.229  18.938  0.00  0.00    +0.000 C 
ATOM     26  C   UNL     1       1.406  11.315  18.616  0.00  0.00    +0.000 C 
ATOM     27  C   UNL     1       1.033   9.833  18.774  0.00  0.00    +0.000 C 
ATOM     28  C   UNL     1       2.238   8.949  18.463  0.00  0.00    +0.000 C 
ATOM     29  C   UNL     1       0.495   9.535  20.182  0.00  0.00    +0.000 C 
ATOM     30  C   UNL     1      -0.669  10.456  20.550  0.00  0.00    +0.000 C 
ENDBRANCH  15  24
BRANCH   1  32
ATOM     31  C   UNL     1      -6.978  13.032  16.988  0.00  0.00    +0.000 C 
ATOM     32  O   UNL     1      -6.687  11.958  17.878  0.00  0.00    +0.000 OA
ENDBRANCH   1  32
TORSDOF 3
ENDMDL
MODEL 4
REMARK VINA RESULT:      -6.2      8.226     10.084
REMARK  Name = 
REMARK  5 active torsions:
REMARK  status: ('A' for Active; 'I' for Inactive)
REMARK    1  A    between atoms: C_1  and  O_2
REMARK    2  A    between atoms: O_2  and  C_3
REMARK    3  A    between atoms: N_14  and  C_15
REMARK    4  A    between atoms: N_24  and  C_25
REMARK    5  A    between atoms: C_28  and  C_29
REMARK                            x       y       z     vdW  Elec       q    Type
REMARK                         _______ _______ _______ _____ _____    ______ ____
ROOT
ATOM      1  C   UNL     1      -5.864  12.666  18.469  0.00  0.00    +0.000 A 
ATOM      2  C   UNL     1      -5.441  11.516  17.807  0.00  0.00    +0.000 A 
ATOM      3  C   UNL     1      -4.264  10.928  18.190  0.00  0.00    +0.000 A 
ATOM      4  C   UNL     1      -3.502  11.511  19.206  0.00  0.00    +0.000 A 
ATOM      5  C   UNL     1      -3.877  12.682  19.963  0.00  0.00    +0.000 A 
ATOM      6  C   UNL     1      -5.113  13.251  19.518  0.00  0.00    +0.000 A 
ATOM      7  N   UNL     1      -5.627  14.360  20.067  0.00  0.00    +0.000 NA
ATOM      8  C   UNL     1      -4.983  14.968  21.073  0.00  0.00    +0.000 A 
ATOM      9  C   UNL     1      -3.794  14.518  21.608  0.00  0.00    +0.000 A 
ATOM     10  C   UNL     1      -3.232  15.287  22.723  0.00  0.00    +0.000 A 
ATOM     11  O   UNL     1      -3.899  16.212  23.193  0.00  0.00    +0.000 OA
ATOM     12  N   UNL     1      -1.967  14.935  23.143  0.00  0.00    +0.000 N 
ATOM     13  C   UNL     1      -1.312  13.787  22.727  0.00  0.00    +0.000 A 
ATOM     14  O   UNL     1      -0.246  13.435  23.247  0.00  0.00    +0.000 OA
ATOM     15  N   UNL     1      -1.940  12.984  21.749  0.00  0.00    +0.000 N 
ATOM     16  C   UNL     1      -3.188  13.370  21.089  0.00  0.00    +0.000 A 
ENDROOT
BRANCH  12  17
ATOM     17  C   UNL     1      -1.352  15.705  24.190  0.00  0.00    +0.000 A 
ATOM     18  C   UNL     1      -1.605  15.366  25.539  0.00  0.00    +0.000 A 
ATOM     19  C   UNL     1      -0.978  16.059  26.580  0.00  0.00    +0.000 A 
ATOM     20  C   UNL     1      -0.098  17.103  26.296  0.00  0.00    +0.000 A 
ATOM     21  C   UNL     1       0.148  17.461  24.972  0.00  0.00    +0.000 A 
ATOM     22  C   UNL     1      -0.473  16.771  23.924  0.00  0.00    +0.000 A 
ATOM     23 CL   UNL     1      -0.208  17.365  22.318  0.00  0.00    +0.000 Cl
ENDBRANCH  12  17
BRANCH  15  24
ATOM     24  C   UNL     1      -1.227  11.750  21.426  0.00  0.00    +0.000 C 
ATOM     25  C   UNL     1      -0.908  10.815  22.607  0.00  0.00    +0.000 C 
ATOM     26  C   UNL     1      -0.383   9.480  22.071  0.00  0.00    +0.000 C 
ATOM     27  C   UNL     1       0.849   9.678  21.176  0.00  0.00    +0.000 C 
ATOM     28  C   UNL     1       1.339   8.334  20.645  0.00  0.00    +0.000 C 
ATOM     29  C   UNL     1       0.553  10.641  20.016  0.00  0.00    +0.000 C 
ATOM     30  C   UNL     1      -0.008  11.973  20.513  0.00  0.00    +0.000 C 
ENDBRANCH  15  24
BRANCH   1  32
ATOM     31  C   UNL     1      -7.033  13.860  16.768  0.00  0.00    +0.000 C 
ATOM     32  O   UNL     1      -7.023  13.318  18.086  0.00  0.00    +0.000 OA
ENDBRANCH   1  32
TORSDOF 3
ENDMDL
MODEL 5
REMARK VINA RESULT:      -6.2      1.140      1.423
REMARK  Name = 
REMARK  5 active torsions:
REMARK  status: ('A' for Active; 'I' for Inactive)
REMARK    1  A    between atoms: C_1  and  O_2
REMARK    2  A    between atoms: O_2  and  C_3
REMARK    3  A    between atoms: N_14  and  C_15
REMARK    4  A    between atoms: N_24  and  C_25
REMARK    5  A    between atoms: C_28  and  C_29
REMARK                            x       y       z     vdW  Elec       q    Type
REMARK                         _______ _______ _______ _____ _____    ______ ____
ROOT
ATOM      1  C   UNL     1       4.418  15.812  19.046  0.00  0.00    +0.000 A 
ATOM      2  C   UNL     1       5.192  15.624  17.905  0.00  0.00    +0.000 A 
ATOM      3  C   UNL     1       6.405  14.999  18.024  0.00  0.00    +0.000 A 
ATOM      4  C   UNL     1       6.849  14.594  19.286  0.00  0.00    +0.000 A 
ATOM      5  C   UNL     1       6.102  14.721  20.515  0.00  0.00    +0.000 A 
ATOM      6  C   UNL     1       4.845  15.383  20.326  0.00  0.00    +0.000 A 
ATOM      7  N   UNL     1       4.009  15.629  21.344  0.00  0.00    +0.000 NA
ATOM      8  C   UNL     1       4.336  15.246  22.585  0.00  0.00    +0.000 A 
ATOM      9  C   UNL     1       5.505  14.587  22.905  0.00  0.00    +0.000 A 
ATOM     10  C   UNL     1       5.699  14.216  24.310  0.00  0.00    +0.000 A 
ATOM     11  O   UNL     1       4.770  14.404  25.099  0.00  0.00    +0.000 OA
ATOM     12  N   UNL     1       6.935  13.710  24.652  0.00  0.00    +0.000 N 
ATOM     13  C   UNL     1       7.896  13.340  23.725  0.00  0.00    +0.000 A 
ATOM     14  O   UNL     1       8.927  12.750  24.074  0.00  0.00    +0.000 OA
ATOM     15  N   UNL     1       7.627  13.581  22.360  0.00  0.00    +0.000 N 
ATOM     16  C   UNL     1       6.434  14.296  21.902  0.00  0.00    +0.000 A 
ENDROOT
BRANCH  12  17
ATOM     17  C   UNL     1       7.189  13.394  26.032  0.00  0.00    +0.000 A 
ATOM     18  C   UNL     1       6.659  12.203  26.578  0.00  0.00    +0.000 A 
ATOM     19  C   UNL     1       6.936  11.838  27.900  0.00  0.00    +0.000 A 
ATOM     20  C   UNL     1       7.734  12.655  28.700  0.00  0.00    +0.000 A 
ATOM     21  C   UNL     1       8.248  13.842  28.181  0.00  0.00    +0.000 A 
ATOM     22  C   UNL     1       7.979  14.213  26.859  0.00  0.00    +0.000 A 
ATOM     23 CL   UNL     1       8.554  15.763  26.339  0.00  0.00    +0.000 Cl
ENDBRANCH  12  17
BRANCH  15  24
ATOM     24  C   UNL     1       8.650  13.087  21.442  0.00  0.00    +0.000 C 
ATOM     25  C   UNL     1       8.986  11.587  21.534  0.00  0.00    +0.000 C 
ATOM     26  C   UNL     1       9.887  11.195  20.360  0.00  0.00    +0.000 C 
ATOM     27  C   UNL     1      11.166  12.044  20.323  0.00  0.00    +0.000 C 
ATOM     28  C   UNL     1      12.035  11.641  19.135  0.00  0.00    +0.000 C 
ATOM     29  C   UNL     1      10.843  13.545  20.270  0.00  0.00    +0.000 C 
ATOM     30  C   UNL     1       9.914  13.966  21.409  0.00  0.00    +0.000 C 
ENDBRANCH  15  24
BRANCH   1  32
ATOM     31  C   UNL     1       2.113  15.742  18.438  0.00  0.00    +0.000 C 
ATOM     32  O   UNL     1       3.206  16.479  18.979  0.00  0.00    +0.000 OA
ENDBRANCH   1  32
TORSDOF 3
ENDMDL
MODEL 6
REMARK VINA RESULT:      -6.1      8.026     11.994
REMARK  Name = 
REMARK  5 active torsions:
REMARK  status: ('A' for Active; 'I' for Inactive)
REMARK    1  A    between atoms: C_1  and  O_2
REMARK    2  A    between atoms: O_2  and  C_3
REMARK    3  A    between atoms: N_14  and  C_15
REMARK    4  A    between atoms: N_24  and  C_25
REMARK    5  A    between atoms: C_28  and  C_29
REMARK                            x       y       z     vdW  Elec       q    Type
REMARK                         _______ _______ _______ _____ _____    ______ ____
ROOT
ATOM      1  C   UNL     1      -6.618  11.178  19.862  0.00  0.00    +0.000 A 
ATOM      2  C   UNL     1      -7.537  11.621  20.808  0.00  0.00    +0.000 A 
ATOM      3  C   UNL     1      -7.164  12.611  21.679  0.00  0.00    +0.000 A 
ATOM      4  C   UNL     1      -5.866  13.127  21.620  0.00  0.00    +0.000 A 
ATOM      5  C   UNL     1      -4.861  12.748  20.655  0.00  0.00    +0.000 A 
ATOM      6  C   UNL     1      -5.308  11.712  19.774  0.00  0.00    +0.000 A 
ATOM      7  N   UNL     1      -4.519  11.194  18.823  0.00  0.00    +0.000 NA
ATOM      8  C   UNL     1      -3.270  11.651  18.669  0.00  0.00    +0.000 A 
ATOM      9  C   UNL     1      -2.718  12.656  19.436  0.00  0.00    +0.000 A 
ATOM     10  C   UNL     1      -1.343  13.057  19.122  0.00  0.00    +0.000 A 
ATOM     11  O   UNL     1      -0.802  12.566  18.129  0.00  0.00    +0.000 OA
ATOM     12  N   UNL     1      -0.740  13.938  19.994  0.00  0.00    +0.000 N 
ATOM     13  C   UNL     1      -1.420  14.614  20.995  0.00  0.00    +0.000 A 
ATOM     14  O   UNL     1      -0.869  15.508  21.650  0.00  0.00    +0.000 OA
ATOM     15  N   UNL     1      -2.785  14.310  21.189  0.00  0.00    +0.000 N 
ATOM     16  C   UNL     1      -3.473  13.246  20.454  0.00  0.00    +0.000 A 
ENDROOT
BRANCH  12  17
ATOM     17  C   UNL     1       0.630  14.308  19.758  0.00  0.00    +0.000 A 
ATOM     18  C   UNL     1       1.663  13.558  20.365  0.00  0.00    +0.000 A 
ATOM     19  C   UNL     1       3.006  13.856  20.111  0.00  0.00    +0.000 A 
ATOM     20  C   UNL     1       3.341  14.906  19.258  0.00  0.00    +0.000 A 
ATOM     21  C   UNL     1       2.334  15.667  18.666  0.00  0.00    +0.000 A 
ATOM     22  C   UNL     1       0.988  15.373  18.913  0.00  0.00    +0.000 A 
ATOM     23 CL   UNL     1      -0.193  16.447  18.237  0.00  0.00    +0.000 Cl
ENDBRANCH  12  17
BRANCH  15  24
ATOM     24  C   UNL     1      -3.451  15.123  22.204  0.00  0.00    +0.000 C 
ATOM     25  C   UNL     1      -3.518  16.637  21.933  0.00  0.00    +0.000 C 
ATOM     26  C   UNL     1      -4.443  17.297  22.959  0.00  0.00    +0.000 C 
ATOM     27  C   UNL     1      -3.981  17.015  24.397  0.00  0.00    +0.000 C 
ATOM     28  C   UNL     1      -4.930  17.671  25.396  0.00  0.00    +0.000 C 
ATOM     29  C   UNL     1      -3.873  15.506  24.667  0.00  0.00    +0.000 C 
ATOM     30  C   UNL     1      -2.985  14.808  23.637  0.00  0.00    +0.000 C 
ENDBRANCH  15  24
BRANCH   1  32
ATOM     31  C   UNL     1      -7.205   8.883  19.587  0.00  0.00    +0.000 C 
ATOM     32  O   UNL     1      -6.936  10.149  18.991  0.00  0.00    +0.000 OA
ENDBRANCH   1  32
TORSDOF 3
ENDMDL
MODEL 7
REMARK VINA RESULT:      -6.1      7.117      9.034
REMARK  Name = 
REMARK  5 active torsions:
REMARK  status: ('A' for Active; 'I' for Inactive)
REMARK    1  A    between atoms: C_1  and  O_2
REMARK    2  A    between atoms: O_2  and  C_3
REMARK    3  A    between atoms: N_14  and  C_15
REMARK    4  A    between atoms: N_24  and  C_25
REMARK    5  A    between atoms: C_28  and  C_29
REMARK                            x       y       z     vdW  Elec       q    Type
REMARK                         _______ _______ _______ _____ _____    ______ ____
ROOT
ATOM      1  C   UNL     1       2.312  16.143  18.250  0.00  0.00    +0.000 A 
ATOM      2  C   UNL     1       3.369  15.313  17.886  0.00  0.00    +0.000 A 
ATOM      3  C   UNL     1       3.324  13.991  18.243  0.00  0.00    +0.000 A 
ATOM      4  C   UNL     1       2.240  13.516  18.988  0.00  0.00    +0.000 A 
ATOM      5  C   UNL     1       1.092  14.297  19.381  0.00  0.00    +0.000 A 
ATOM      6  C   UNL     1       1.196  15.668  18.981  0.00  0.00    +0.000 A 
ATOM      7  N   UNL     1       0.251  16.571  19.274  0.00  0.00    +0.000 NA
ATOM      8  C   UNL     1      -0.841  16.198  19.955  0.00  0.00    +0.000 A 
ATOM      9  C   UNL     1      -1.077  14.909  20.385  0.00  0.00    +0.000 A 
ATOM     10  C   UNL     1      -2.334  14.664  21.098  0.00  0.00    +0.000 A 
ATOM     11  O   UNL     1      -3.156  15.581  21.171  0.00  0.00    +0.000 OA
ATOM     12  N   UNL     1      -2.489  13.419  21.671  0.00  0.00    +0.000 N 
ATOM     13  C   UNL     1      -1.641  12.351  21.426  0.00  0.00    +0.000 A 
ATOM     14  O   UNL     1      -1.908  11.215  21.840  0.00  0.00    +0.000 OA
ATOM     15  N   UNL     1      -0.505  12.579  20.619  0.00  0.00    +0.000 N 
ATOM     16  C   UNL     1      -0.137  13.908  20.126  0.00  0.00    +0.000 A 
ENDROOT
BRANCH  12  17
ATOM     17  C   UNL     1      -3.680  13.158  22.434  0.00  0.00    +0.000 A 
ATOM     18  C   UNL     1      -3.616  13.179  23.846  0.00  0.00    +0.000 A 
ATOM     19  C   UNL     1      -4.767  12.986  24.616  0.00  0.00    +0.000 A 
ATOM     20  C   UNL     1      -5.996  12.761  23.996  0.00  0.00    +0.000 A 
ATOM     21  C   UNL     1      -6.072  12.719  22.605  0.00  0.00    +0.000 A 
ATOM     22  C   UNL     1      -4.925  12.914  21.827  0.00  0.00    +0.000 A 
ATOM     23 CL   UNL     1      -5.089  12.721  20.112  0.00  0.00    +0.000 Cl
ENDBRANCH  12  17
BRANCH  15  24
ATOM     24  C   UNL     1       0.291  11.386  20.339  0.00  0.00    +0.000 C 
ATOM     25  C   UNL     1      -0.046  10.627  19.043  0.00  0.00    +0.000 C 
ATOM     26  C   UNL     1       1.022   9.561  18.785  0.00  0.00    +0.000 C 
ATOM     27  C   UNL     1       1.152   8.595  19.973  0.00  0.00    +0.000 C 
ATOM     28  C   UNL     1       2.234   7.555  19.693  0.00  0.00    +0.000 C 
ATOM     29  C   UNL     1       1.451   9.346  21.279  0.00  0.00    +0.000 C 
ATOM     30  C   UNL     1       0.422  10.445  21.550  0.00  0.00    +0.000 C 
ENDBRANCH  15  24
BRANCH   1  32
ATOM     31  C   UNL     1       1.861  17.859  16.656  0.00  0.00    +0.000 C 
ATOM     32  O   UNL     1       2.337  17.495  17.949  0.00  0.00    +0.000 OA
ENDBRANCH   1  32
TORSDOF 3
ENDMDL
MODEL 8
REMARK VINA RESULT:      -6.1      7.078      9.772
REMARK  Name = 
REMARK  5 active torsions:
REMARK  status: ('A' for Active; 'I' for Inactive)
REMARK    1  A    between atoms: C_1  and  O_2
REMARK    2  A    between atoms: O_2  and  C_3
REMARK    3  A    between atoms: N_14  and  C_15
REMARK    4  A    between atoms: N_24  and  C_25
REMARK    5  A    between atoms: C_28  and  C_29
REMARK                            x       y       z     vdW  Elec       q    Type
REMARK                         _______ _______ _______ _____ _____    ______ ____
ROOT
ATOM      1  C   UNL     1       2.268  16.086  18.575  0.00  0.00    +0.000 A 
ATOM      2  C   UNL     1       3.273  15.126  18.504  0.00  0.00    +0.000 A 
ATOM      3  C   UNL     1       3.037  13.883  19.030  0.00  0.00    +0.000 A 
ATOM      4  C   UNL     1       1.813  13.619  19.651  0.00  0.00    +0.000 A 
ATOM      5  C   UNL     1       0.708  14.543  19.744  0.00  0.00    +0.000 A 
ATOM      6  C   UNL     1       1.014  15.823  19.179  0.00  0.00    +0.000 A 
ATOM      7  N   UNL     1       0.136  16.836  19.188  0.00  0.00    +0.000 NA
ATOM      8  C   UNL     1      -1.076  16.664  19.731  0.00  0.00    +0.000 A 
ATOM      9  C   UNL     1      -1.507  15.481  20.294  0.00  0.00    +0.000 A 
ATOM     10  C   UNL     1      -2.873  15.453  20.825  0.00  0.00    +0.000 A 
ATOM     11  O   UNL     1      -3.595  16.435  20.637  0.00  0.00    +0.000 OA
ATOM     12  N   UNL     1      -3.240  14.329  21.533  0.00  0.00    +0.000 N 
ATOM     13  C   UNL     1      -2.483  13.169  21.578  0.00  0.00    +0.000 A 
ATOM     14  O   UNL     1      -2.925  12.137  22.098  0.00  0.00    +0.000 OA
ATOM     15  N   UNL     1      -1.224  13.175  20.938  0.00  0.00    +0.000 N 
ATOM     16  C   UNL     1      -0.650  14.377  20.330  0.00  0.00    +0.000 A 
ENDROOT
BRANCH  12  17
ATOM     17  C   UNL     1      -4.550  14.288  22.126  0.00  0.00    +0.000 A 
ATOM     18  C   UNL     1      -4.727  14.760  23.447  0.00  0.00    +0.000 A 
ATOM     19  C   UNL     1      -5.998  14.787  24.031  0.00  0.00    +0.000 A 
ATOM     20  C   UNL     1      -7.108  14.338  23.316  0.00  0.00    +0.000 A 
ATOM     21  C   UNL     1      -6.946  13.852  22.019  0.00  0.00    +0.000 A 
ATOM     22  C   UNL     1      -5.678  13.825  21.426  0.00  0.00    +0.000 A 
ATOM     23 CL   UNL     1      -5.552  13.090  19.862  0.00  0.00    +0.000 Cl
ENDBRANCH  12  17
BRANCH  15  24
ATOM     24  C   UNL     1      -0.526  11.892  20.958  0.00  0.00    +0.000 C 
ATOM     25  C   UNL     1      -0.812  10.939  19.783  0.00  0.00    +0.000 C 
ATOM     26  C   UNL     1       0.166   9.762  19.832  0.00  0.00    +0.000 C 
ATOM     27  C   UNL     1       0.087   9.020  21.175  0.00  0.00    +0.000 C 
ATOM     28  C   UNL     1       1.083   7.864  21.200  0.00  0.00    +0.000 C 
ATOM     29  C   UNL     1       0.333   9.970  22.357  0.00  0.00    +0.000 C 
ATOM     30  C   UNL     1      -0.604  11.178  22.319  0.00  0.00    +0.000 C 
ENDBRANCH  15  24
BRANCH   1  32
ATOM     31  C   UNL     1       2.583  17.502  16.682  0.00  0.00    +0.000 C 
ATOM     32  O   UNL     1       2.478  17.369  18.097  0.00  0.00    +0.000 OA
ENDBRANCH   1  32
TORSDOF 3
ENDMDL
MODEL 9
REMARK VINA RESULT:      -6.1      7.017      9.850
REMARK  Name = 
REMARK  5 active torsions:
REMARK  status: ('A' for Active; 'I' for Inactive)
REMARK    1  A    between atoms: C_1  and  O_2
REMARK    2  A    between atoms: O_2  and  C_3
REMARK    3  A    between atoms: N_14  and  C_15
REMARK    4  A    between atoms: N_24  and  C_25
REMARK    5  A    between atoms: C_28  and  C_29
REMARK                            x       y       z     vdW  Elec       q    Type
REMARK                         _______ _______ _______ _____ _____    ______ ____
ROOT
ATOM      1  C   UNL     1       2.207  16.102  18.589  0.00  0.00    +0.000 A 
ATOM      2  C   UNL     1       3.192  15.119  18.551  0.00  0.00    +0.000 A 
ATOM      3  C   UNL     1       2.927  13.895  19.106  0.00  0.00    +0.000 A 
ATOM      4  C   UNL     1       1.693  13.673  19.724  0.00  0.00    +0.000 A 
ATOM      5  C   UNL     1       0.606  14.621  19.783  0.00  0.00    +0.000 A 
ATOM      6  C   UNL     1       0.943  15.880  19.188  0.00  0.00    +0.000 A 
ATOM      7  N   UNL     1       0.086  16.909  19.164  0.00  0.00    +0.000 NA
ATOM      8  C   UNL     1      -1.134  16.776  19.701  0.00  0.00    +0.000 A 
ATOM      9  C   UNL     1      -1.593  15.617  20.291  0.00  0.00    +0.000 A 
ATOM     10  C   UNL     1      -2.964  15.630  20.810  0.00  0.00    +0.000 A 
ATOM     11  O   UNL     1      -3.664  16.621  20.591  0.00  0.00    +0.000 OA
ATOM     12  N   UNL     1      -3.360  14.532  21.544  0.00  0.00    +0.000 N 
ATOM     13  C   UNL     1      -2.627  13.359  21.624  0.00  0.00    +0.000 A 
ATOM     14  O   UNL     1      -3.094  12.349  22.167  0.00  0.00    +0.000 OA
ATOM     15  N   UNL     1      -1.363  13.323  20.996  0.00  0.00    +0.000 N 
ATOM     16  C   UNL     1      -0.759  14.497  20.362  0.00  0.00    +0.000 A 
ENDROOT
BRANCH  12  17
ATOM     17  C   UNL     1      -4.675  14.533  22.125  0.00  0.00    +0.000 A 
ATOM     18  C   UNL     1      -5.766  14.042  21.372  0.00  0.00    +0.000 A 
ATOM     19  C   UNL     1      -7.047  13.976  21.930  0.00  0.00    +0.000 A 
ATOM     20  C   UNL     1      -7.264  14.404  23.239  0.00  0.00    +0.000 A 
ATOM     21  C   UNL     1      -6.202  14.908  23.988  0.00  0.00    +0.000 A 
ATOM     22  C   UNL     1      -4.917  14.974  23.439  0.00  0.00    +0.000 A 
ATOM     23 CL   UNL     1      -3.685  15.730  24.396  0.00  0.00    +0.000 Cl
ENDBRANCH  12  17
BRANCH  15  24
ATOM     24  C   UNL     1      -0.691  12.027  21.054  0.00  0.00    +0.000 C 
ATOM     25  C   UNL     1      -0.962  11.062  19.885  0.00  0.00    +0.000 C 
ATOM     26  C   UNL     1      -0.009   9.868  19.980  0.00  0.00    +0.000 C 
ATOM     27  C   UNL     1      -0.142   9.148  21.330  0.00  0.00    +0.000 C 
ATOM     28  C   UNL     1       0.831   7.973  21.401  0.00  0.00    +0.000 C 
ATOM     29  C   UNL     1       0.089  10.110  22.505  0.00  0.00    +0.000 C 
ATOM     30  C   UNL     1      -0.822  11.335  22.423  0.00  0.00    +0.000 C 
ENDBRANCH  15  24
BRANCH   1  32
ATOM     31  C   UNL     1       2.569  17.461  16.663  0.00  0.00    +0.000 C 
ATOM     32  O   UNL     1       2.447  17.367  18.080  0.00  0.00    +0.000 OA
ENDBRANCH   1  32
TORSDOF 3
ENDMDL
