MODEL 1
REMARK VINA RESULT:      -8.1      0.000      0.000
REMARK  Name = 
REMARK  4 active torsions:
REMARK  status: ('A' for Active; 'I' for Inactive)
REMARK    1  A    between atoms: C_1  and  N_2
REMARK    2  A    between atoms: C_4  and  C_5
REMARK    3  A    between atoms: C_5  and  N_6
REMARK    4  A    between atoms: C_7  and  C_9
REMARK                            x       y       z     vdW  Elec       q    Type
REMARK                         _______ _______ _______ _____ _____    ______ ____
ROOT
ATOM      1  C   UNL     1       2.634   8.145  17.506  0.00  0.00    +0.000 C 
ATOM      2  N   UNL     1       2.964   7.042  18.404  0.00  0.00    +0.000 NA
ATOM      3  C   UNL     1       4.292   6.500  18.115  0.00  0.00    +0.000 C 
ATOM      4  C   UNL     1       4.287   5.170  18.867  0.00  0.00    +0.000 C 
ATOM      5  C   UNL     1       2.825   4.634  18.634  0.00  0.00    +0.000 C 
ATOM      6  C   UNL     1       2.206   4.046  19.923  0.00  0.00    +0.000 C 
ATOM      7  C   UNL     1       2.772   2.680  20.291  0.00  0.00    +0.000 C 
ATOM      8  C   UNL     1       2.597   1.671  19.163  0.00  0.00    +0.000 C 
ATOM      9  C   UNL     1       3.085   2.175  17.809  0.00  0.00    +0.000 C 
ATOM     10  C   UNL     1       2.647   3.604  17.490  0.00  0.00    +0.000 C 
ATOM     11  C   UNL     1       2.036   5.922  18.245  0.00  0.00    +0.000 C 
ENDROOT
BRANCH   4  12
ATOM     12  C   UNL     1       5.475   4.291  18.446  0.00  0.00    +0.000 C 
BRANCH  12  13
ATOM     13  N   UNL     1       5.698   4.234  17.006  0.00  0.00    +0.000 N 
ATOM     14  C   UNL     1       6.954   4.363  16.444  0.00  0.00    +0.000 C 
ATOM     15  O   UNL     1       7.988   4.379  17.107  0.00  0.00    +0.000 OA
ATOM     16  H   UNL     1       4.911   4.262  16.362  0.00  0.00    +0.000 HD
BRANCH  14  17
ATOM     17  C   UNL     1       7.005   4.502  14.948  0.00  0.00    +0.000 A 
ATOM     18  C   UNL     1       6.207   3.668  14.168  0.00  0.00    +0.000 A 
ATOM     19  C   UNL     1       6.300   3.767  12.780  0.00  0.00    +0.000 A 
ATOM     20  C   UNL     1       7.178   4.688  12.222  0.00  0.00    +0.000 A 
ATOM     21  C   UNL     1       7.928   5.484  13.079  0.00  0.00    +0.000 A 
ATOM     22  N   UNL     1       7.868   5.421  14.432  0.00  0.00    +0.000 NA
ENDBRANCH  14  17
ENDBRANCH  12  13
ENDBRANCH   4  12
TORSDOF 3
ENDMDL
MODEL 2
REMARK VINA RESULT:      -7.6      2.913      6.686
REMARK  Name = 
REMARK  4 active torsions:
REMARK  status: ('A' for Active; 'I' for Inactive)
REMARK    1  A    between atoms: C_1  and  N_2
REMARK    2  A    between atoms: C_4  and  C_5
REMARK    3  A    between atoms: C_5  and  N_6
REMARK    4  A    between atoms: C_7  and  C_9
REMARK                            x       y       z     vdW  Elec       q    Type
REMARK                         _______ _______ _______ _____ _____    ______ ____
ROOT
ATOM      1  C   UNL     1       5.579   3.662  15.849  0.00  0.00    +0.000 C 
ATOM      2  N   UNL     1       4.368   3.990  16.596  0.00  0.00    +0.000 NA
ATOM      3  C   UNL     1       4.626   5.021  17.601  0.00  0.00    +0.000 C 
ATOM      4  C   UNL     1       3.387   4.944  18.492  0.00  0.00    +0.000 C 
ATOM      5  C   UNL     1       3.103   3.398  18.576  0.00  0.00    +0.000 C 
ATOM      6  C   UNL     1       1.600   3.071  18.426  0.00  0.00    +0.000 C 
ATOM      7  C   UNL     1       0.786   3.405  19.669  0.00  0.00    +0.000 C 
ATOM      8  C   UNL     1       1.319   2.689  20.905  0.00  0.00    +0.000 C 
ATOM      9  C   UNL     1       2.820   2.857  21.110  0.00  0.00    +0.000 C 
ATOM     10  C   UNL     1       3.641   2.671  19.834  0.00  0.00    +0.000 C 
ATOM     11  C   UNL     1       3.862   2.833  17.336  0.00  0.00    +0.000 C 
ENDROOT
BRANCH   4  12
ATOM     12  C   UNL     1       3.591   5.732  19.795  0.00  0.00    +0.000 C 
BRANCH  12  13
ATOM     13  N   UNL     1       2.515   6.665  20.106  0.00  0.00    +0.000 N 
ATOM     14  C   UNL     1       2.250   7.779  19.332  0.00  0.00    +0.000 C 
ATOM     15  O   UNL     1       2.789   7.987  18.248  0.00  0.00    +0.000 OA
ATOM     16  H   UNL     1       2.031   6.612  21.000  0.00  0.00    +0.000 HD
BRANCH  14  17
ATOM     17  C   UNL     1       1.260   8.761  19.892  0.00  0.00    +0.000 A 
ATOM     18  C   UNL     1       0.823   8.602  21.204  0.00  0.00    +0.000 A 
ATOM     19  C   UNL     1      -0.137   9.485  21.699  0.00  0.00    +0.000 A 
ATOM     20  C   UNL     1      -0.622  10.491  20.873  0.00  0.00    +0.000 A 
ATOM     21  C   UNL     1      -0.122  10.580  19.580  0.00  0.00    +0.000 A 
ATOM     22  N   UNL     1       0.810   9.743  19.060  0.00  0.00    +0.000 NA
ENDBRANCH  14  17
ENDBRANCH  12  13
ENDBRANCH   4  12
TORSDOF 3
ENDMDL
MODEL 3
REMARK VINA RESULT:      -7.4      2.954      6.776
REMARK  Name = 
REMARK  4 active torsions:
REMARK  status: ('A' for Active; 'I' for Inactive)
REMARK    1  A    between atoms: C_1  and  N_2
REMARK    2  A    between atoms: C_4  and  C_5
REMARK    3  A    between atoms: C_5  and  N_6
REMARK    4  A    between atoms: C_7  and  C_9
REMARK                            x       y       z     vdW  Elec       q    Type
REMARK                         _______ _______ _______ _____ _____    ______ ____
ROOT
ATOM      1  C   UNL     1       5.536   3.986  15.688  0.00  0.00    +0.000 C 
ATOM      2  N   UNL     1       4.335   4.226  16.481  0.00  0.00    +0.000 NA
ATOM      3  C   UNL     1       4.583   5.206  17.539  0.00  0.00    +0.000 C 
ATOM      4  C   UNL     1       3.370   5.033  18.453  0.00  0.00    +0.000 C 
ATOM      5  C   UNL     1       3.142   3.475  18.452  0.00  0.00    +0.000 C 
ATOM      6  C   UNL     1       1.647   3.104  18.318  0.00  0.00    +0.000 C 
ATOM      7  C   UNL     1       0.854   3.336  19.598  0.00  0.00    +0.000 C 
ATOM      8  C   UNL     1       1.444   2.568  20.776  0.00  0.00    +0.000 C 
ATOM      9  C   UNL     1       2.943   2.777  20.955  0.00  0.00    +0.000 C 
ATOM     10  C   UNL     1       3.736   2.695  19.651  0.00  0.00    +0.000 C 
ATOM     11  C   UNL     1       3.887   3.011  17.162  0.00  0.00    +0.000 C 
ENDROOT
BRANCH   4  12
ATOM     12  C   UNL     1       3.581   5.750  19.795  0.00  0.00    +0.000 C 
BRANCH  12  13
ATOM     13  N   UNL     1       2.493   6.643  20.175  0.00  0.00    +0.000 N 
ATOM     14  C   UNL     1       2.175   7.777  19.450  0.00  0.00    +0.000 C 
ATOM     15  O   UNL     1       2.673   8.036  18.359  0.00  0.00    +0.000 OA
ATOM     16  H   UNL     1       2.041   6.546  21.082  0.00  0.00    +0.000 HD
BRANCH  14  17
ATOM     17  C   UNL     1       1.180   8.712  20.078  0.00  0.00    +0.000 A 
ATOM     18  C   UNL     1       0.815   9.867  19.390  0.00  0.00    +0.000 A 
ATOM     19  C   UNL     1      -0.067  10.756  20.003  0.00  0.00    +0.000 A 
ATOM     20  C   UNL     1      -0.553  10.464  21.271  0.00  0.00    +0.000 A 
ATOM     21  C   UNL     1      -0.141   9.284  21.878  0.00  0.00    +0.000 A 
ATOM     22  N   UNL     1       0.714   8.393  21.318  0.00  0.00    +0.000 NA
ENDBRANCH  14  17
ENDBRANCH  12  13
ENDBRANCH   4  12
TORSDOF 3
ENDMDL
MODEL 4
REMARK VINA RESULT:      -7.3      3.279      7.346
REMARK  Name = 
REMARK  4 active torsions:
REMARK  status: ('A' for Active; 'I' for Inactive)
REMARK    1  A    between atoms: C_1  and  N_2
REMARK    2  A    between atoms: C_4  and  C_5
REMARK    3  A    between atoms: C_5  and  N_6
REMARK    4  A    between atoms: C_7  and  C_9
REMARK                            x       y       z     vdW  Elec       q    Type
REMARK                         _______ _______ _______ _____ _____    ______ ____
ROOT
ATOM      1  C   UNL     1       1.711   2.274  18.775  0.00  0.00    +0.000 C 
ATOM      2  N   UNL     1       2.720   3.298  19.029  0.00  0.00    +0.000 NA
ATOM      3  C   UNL     1       2.201   4.637  18.751  0.00  0.00    +0.000 C 
ATOM      4  C   UNL     1       3.469   5.490  18.706  0.00  0.00    +0.000 C 
ATOM      5  C   UNL     1       4.502   4.555  17.974  0.00  0.00    +0.000 C 
ATOM      6  C   UNL     1       5.893   4.580  18.647  0.00  0.00    +0.000 C 
ATOM      7  C   UNL     1       6.674   5.858  18.366  0.00  0.00    +0.000 C 
ATOM      8  C   UNL     1       6.853   6.094  16.871  0.00  0.00    +0.000 C 
ATOM      9  C   UNL     1       5.556   5.998  16.076  0.00  0.00    +0.000 C 
ATOM     10  C   UNL     1       4.689   4.798  16.455  0.00  0.00    +0.000 C 
ATOM     11  C   UNL     1       3.885   3.135  18.159  0.00  0.00    +0.000 C 
ENDROOT
BRANCH   4  12
ATOM     12  C   UNL     1       3.182   6.880  18.120  0.00  0.00    +0.000 C 
BRANCH  12  13
ATOM     13  N   UNL     1       2.199   7.655  18.867  0.00  0.00    +0.000 N 
ATOM     14  C   UNL     1       1.763   8.900  18.452  0.00  0.00    +0.000 C 
ATOM     15  O   UNL     1       2.046   9.379  17.358  0.00  0.00    +0.000 OA
ATOM     16  H   UNL     1       1.927   7.372  19.806  0.00  0.00    +0.000 HD
BRANCH  14  17
ATOM     17  C   UNL     1       0.919   9.670  19.428  0.00  0.00    +0.000 A 
ATOM     18  C   UNL     1       0.286  10.834  18.999  0.00  0.00    +0.000 A 
ATOM     19  C   UNL     1      -0.451  11.572  19.925  0.00  0.00    +0.000 A 
ATOM     20  C   UNL     1      -0.533  11.125  21.238  0.00  0.00    +0.000 A 
ATOM     21  C   UNL     1       0.125   9.948  21.574  0.00  0.00    +0.000 A 
ATOM     22  N   UNL     1       0.851   9.201  20.706  0.00  0.00    +0.000 NA
ENDBRANCH  14  17
ENDBRANCH  12  13
ENDBRANCH   4  12
TORSDOF 3
ENDMDL
MODEL 5
REMARK VINA RESULT:      -7.3      3.244      6.890
REMARK  Name = 
REMARK  4 active torsions:
REMARK  status: ('A' for Active; 'I' for Inactive)
REMARK    1  A    between atoms: C_1  and  N_2
REMARK    2  A    between atoms: C_4  and  C_5
REMARK    3  A    between atoms: C_5  and  N_6
REMARK    4  A    between atoms: C_7  and  C_9
REMARK                            x       y       z     vdW  Elec       q    Type
REMARK                         _______ _______ _______ _____ _____    ______ ____
ROOT
ATOM      1  C   UNL     1       5.416   4.184  16.006  0.00  0.00    +0.000 C 
ATOM      2  N   UNL     1       4.131   4.319  16.685  0.00  0.00    +0.000 NA
ATOM      3  C   UNL     1       4.125   5.470  17.588  0.00  0.00    +0.000 C 
ATOM      4  C   UNL     1       2.887   5.217  18.450  0.00  0.00    +0.000 C 
ATOM      5  C   UNL     1       2.924   3.661  18.680  0.00  0.00    +0.000 C 
ATOM      6  C   UNL     1       1.529   3.014  18.524  0.00  0.00    +0.000 C 
ATOM      7  C   UNL     1       0.607   3.284  19.706  0.00  0.00    +0.000 C 
ATOM      8  C   UNL     1       1.218   2.811  21.020  0.00  0.00    +0.000 C 
ATOM      9  C   UNL     1       2.642   3.307  21.246  0.00  0.00    +0.000 C 
ATOM     10  C   UNL     1       3.541   3.180  20.018  0.00  0.00    +0.000 C 
ATOM     11  C   UNL     1       3.840   3.155  17.522  0.00  0.00    +0.000 C 
ENDROOT
BRANCH   4  12
ATOM     12  C   UNL     1       2.865   6.147  19.673  0.00  0.00    +0.000 C 
BRANCH  12  13
ATOM     13  N   UNL     1       2.225   7.435  19.435  0.00  0.00    +0.000 N 
ATOM     14  C   UNL     1       1.542   8.118  20.424  0.00  0.00    +0.000 C 
ATOM     15  O   UNL     1       1.551   7.778  21.604  0.00  0.00    +0.000 OA
ATOM     16  H   UNL     1       2.122   7.792  18.488  0.00  0.00    +0.000 HD
BRANCH  14  17
ATOM     17  C   UNL     1       0.753   9.319  19.982  0.00  0.00    +0.000 A 
ATOM     18  C   UNL     1       0.033  10.038  20.933  0.00  0.00    +0.000 A 
ATOM     19  C   UNL     1      -0.739  11.118  20.506  0.00  0.00    +0.000 A 
ATOM     20  C   UNL     1      -0.764  11.443  19.156  0.00  0.00    +0.000 A 
ATOM     21  C   UNL     1      -0.006  10.675  18.280  0.00  0.00    +0.000 A 
ATOM     22  N   UNL     1       0.758   9.618  18.653  0.00  0.00    +0.000 NA
ENDBRANCH  14  17
ENDBRANCH  12  13
ENDBRANCH   4  12
TORSDOF 3
ENDMDL
MODEL 6
REMARK VINA RESULT:      -7.2      3.316      7.343
REMARK  Name = 
REMARK  4 active torsions:
REMARK  status: ('A' for Active; 'I' for Inactive)
REMARK    1  A    between atoms: C_1  and  N_2
REMARK    2  A    between atoms: C_4  and  C_5
REMARK    3  A    between atoms: C_5  and  N_6
REMARK    4  A    between atoms: C_7  and  C_9
REMARK                            x       y       z     vdW  Elec       q    Type
REMARK                         _______ _______ _______ _____ _____    ______ ____
ROOT
ATOM      1  C   UNL     1       2.061   2.226  19.373  0.00  0.00    +0.000 C 
ATOM      2  N   UNL     1       3.006   3.336  19.444  0.00  0.00    +0.000 NA
ATOM      3  C   UNL     1       2.374   4.598  19.061  0.00  0.00    +0.000 C 
ATOM      4  C   UNL     1       3.570   5.522  18.835  0.00  0.00    +0.000 C 
ATOM      5  C   UNL     1       4.620   4.581  18.135  0.00  0.00    +0.000 C 
ATOM      6  C   UNL     1       6.046   4.773  18.701  0.00  0.00    +0.000 C 
ATOM      7  C   UNL     1       6.711   6.060  18.229  0.00  0.00    +0.000 C 
ATOM      8  C   UNL     1       6.776   6.139  16.708  0.00  0.00    +0.000 C 
ATOM      9  C   UNL     1       5.442   5.869  16.023  0.00  0.00    +0.000 C 
ATOM     10  C   UNL     1       4.691   4.664  16.589  0.00  0.00    +0.000 C 
ATOM     11  C   UNL     1       4.121   3.153  18.515  0.00  0.00    +0.000 C 
ENDROOT
BRANCH   4  12
ATOM     12  C   UNL     1       3.144   6.816  18.124  0.00  0.00    +0.000 C 
BRANCH  12  13
ATOM     13  N   UNL     1       2.146   7.595  18.845  0.00  0.00    +0.000 N 
ATOM     14  C   UNL     1       1.783   8.874  18.463  0.00  0.00    +0.000 C 
ATOM     15  O   UNL     1       2.151   9.389  17.411  0.00  0.00    +0.000 OA
ATOM     16  H   UNL     1       1.805   7.283  19.752  0.00  0.00    +0.000 HD
BRANCH  14  17
ATOM     17  C   UNL     1       0.908   9.634  19.420  0.00  0.00    +0.000 A 
ATOM     18  C   UNL     1       0.998   9.354  20.781  0.00  0.00    +0.000 A 
ATOM     19  C   UNL     1       0.145  10.025  21.657  0.00  0.00    +0.000 A 
ATOM     20  C   UNL     1      -0.761  10.947  21.148  0.00  0.00    +0.000 A 
ATOM     21  C   UNL     1      -0.774  11.168  19.776  0.00  0.00    +0.000 A 
ATOM     22  N   UNL     1       0.037  10.538  18.891  0.00  0.00    +0.000 NA
ENDBRANCH  14  17
ENDBRANCH  12  13
ENDBRANCH   4  12
TORSDOF 3
ENDMDL
MODEL 7
REMARK VINA RESULT:      -7.2      3.465      7.066
REMARK  Name = 
REMARK  4 active torsions:
REMARK  status: ('A' for Active; 'I' for Inactive)
REMARK    1  A    between atoms: C_1  and  N_2
REMARK    2  A    between atoms: C_4  and  C_5
REMARK    3  A    between atoms: C_5  and  N_6
REMARK    4  A    between atoms: C_7  and  C_9
REMARK                            x       y       z     vdW  Elec       q    Type
REMARK                         _______ _______ _______ _____ _____    ______ ____
ROOT
ATOM      1  C   UNL     1       5.846   5.789  16.341  0.00  0.00    +0.000 C 
ATOM      2  N   UNL     1       4.473   5.540  16.769  0.00  0.00    +0.000 NA
ATOM      3  C   UNL     1       4.066   6.473  17.821  0.00  0.00    +0.000 C 
ATOM      4  C   UNL     1       2.797   5.825  18.376  0.00  0.00    +0.000 C 
ATOM      5  C   UNL     1       3.146   4.291  18.365  0.00  0.00    +0.000 C 
ATOM      6  C   UNL     1       1.974   3.429  17.843  0.00  0.00    +0.000 C 
ATOM      7  C   UNL     1       0.840   3.283  18.851  0.00  0.00    +0.000 C 
ATOM      8  C   UNL     1       1.328   2.694  20.170  0.00  0.00    +0.000 C 
ATOM      9  C   UNL     1       2.550   3.403  20.742  0.00  0.00    +0.000 C 
ATOM     10  C   UNL     1       3.636   3.690  19.707  0.00  0.00    +0.000 C 
ATOM     11  C   UNL     1       4.322   4.203  17.344  0.00  0.00    +0.000 C 
ENDROOT
BRANCH   4  12
ATOM     12  C   UNL     1       2.375   6.481  19.699  0.00  0.00    +0.000 C 
BRANCH  12  13
ATOM     13  N   UNL     1       1.969   7.875  19.575  0.00  0.00    +0.000 N 
ATOM     14  C   UNL     1       1.370   8.569  20.611  0.00  0.00    +0.000 C 
ATOM     15  O   UNL     1       1.275   8.123  21.751  0.00  0.00    +0.000 OA
ATOM     16  H   UNL     1       1.964   8.331  18.665  0.00  0.00    +0.000 HD
BRANCH  14  17
ATOM     17  C   UNL     1       0.811   9.922  20.271  0.00  0.00    +0.000 A 
ATOM     18  C   UNL     1       0.214  10.111  19.027  0.00  0.00    +0.000 A 
ATOM     19  C   UNL     1      -0.253  11.384  18.699  0.00  0.00    +0.000 A 
ATOM     20  C   UNL     1      -0.113  12.416  19.619  0.00  0.00    +0.000 A 
ATOM     21  C   UNL     1       0.487  12.132  20.839  0.00  0.00    +0.000 A 
ATOM     22  N   UNL     1       0.955  10.911  21.198  0.00  0.00    +0.000 NA
ENDBRANCH  14  17
ENDBRANCH  12  13
ENDBRANCH   4  12
TORSDOF 3
ENDMDL
MODEL 8
REMARK VINA RESULT:      -7.1      3.056      6.670
REMARK  Name = 
REMARK  4 active torsions:
REMARK  status: ('A' for Active; 'I' for Inactive)
REMARK    1  A    between atoms: C_1  and  N_2
REMARK    2  A    between atoms: C_4  and  C_5
REMARK    3  A    between atoms: C_5  and  N_6
REMARK    4  A    between atoms: C_7  and  C_9
REMARK                            x       y       z     vdW  Elec       q    Type
REMARK                         _______ _______ _______ _____ _____    ______ ____
ROOT
ATOM      1  C   UNL     1       6.336   4.940  15.558  0.00  0.00    +0.000 C 
ATOM      2  N   UNL     1       5.029   4.974  16.207  0.00  0.00    +0.000 NA
ATOM      3  C   UNL     1       5.095   5.654  17.501  0.00  0.00    +0.000 C 
ATOM      4  C   UNL     1       3.775   5.257  18.161  0.00  0.00    +0.000 C 
ATOM      5  C   UNL     1       3.603   3.751  17.737  0.00  0.00    +0.000 C 
ATOM      6  C   UNL     1       2.155   3.427  17.304  0.00  0.00    +0.000 C 
ATOM      7  C   UNL     1       1.186   3.329  18.475  0.00  0.00    +0.000 C 
ATOM      8  C   UNL     1       1.633   2.288  19.494  0.00  0.00    +0.000 C 
ATOM      9  C   UNL     1       3.086   2.442  19.931  0.00  0.00    +0.000 C 
ATOM     10  C   UNL     1       4.053   2.691  18.774  0.00  0.00    +0.000 C 
ATOM     11  C   UNL     1       4.535   3.627  16.492  0.00  0.00    +0.000 C 
ENDROOT
BRANCH   4  12
ATOM     12  C   UNL     1       3.774   5.611  19.656  0.00  0.00    +0.000 C 
BRANCH  12  13
ATOM     13  N   UNL     1       3.137   6.884  19.970  0.00  0.00    +0.000 N 
ATOM     14  C   UNL     1       1.855   6.967  20.479  0.00  0.00    +0.000 C 
ATOM     15  O   UNL     1       1.215   5.987  20.850  0.00  0.00    +0.000 OA
ATOM     16  H   UNL     1       3.559   7.759  19.667  0.00  0.00    +0.000 HD
BRANCH  14  17
ATOM     17  C   UNL     1       1.252   8.342  20.549  0.00  0.00    +0.000 A 
ATOM     18  C   UNL     1       0.680   8.766  21.746  0.00  0.00    +0.000 A 
ATOM     19  C   UNL     1       0.075  10.023  21.786  0.00  0.00    +0.000 A 
ATOM     20  C   UNL     1       0.065  10.808  20.640  0.00  0.00    +0.000 A 
ATOM     21  C   UNL     1       0.668  10.306  19.493  0.00  0.00    +0.000 A 
ATOM     22  N   UNL     1       1.266   9.092  19.411  0.00  0.00    +0.000 NA
ENDBRANCH  14  17
ENDBRANCH  12  13
ENDBRANCH   4  12
TORSDOF 3
ENDMDL
MODEL 9
REMARK VINA RESULT:      -7.1      2.739      6.486
REMARK  Name = 
REMARK  4 active torsions:
REMARK  status: ('A' for Active; 'I' for Inactive)
REMARK    1  A    between atoms: C_1  and  N_2
REMARK    2  A    between atoms: C_4  and  C_5
REMARK    3  A    between atoms: C_5  and  N_6
REMARK    4  A    between atoms: C_7  and  C_9
REMARK                            x       y       z     vdW  Elec       q    Type
REMARK                         _______ _______ _______ _____ _____    ______ ____
ROOT
ATOM      1  C   UNL     1       6.963   4.768  15.881  0.00  0.00    +0.000 C 
ATOM      2  N   UNL     1       5.599   4.933  16.375  0.00  0.00    +0.000 NA
ATOM      3  C   UNL     1       5.587   5.524  17.714  0.00  0.00    +0.000 C 
ATOM      4  C   UNL     1       4.156   5.265  18.186  0.00  0.00    +0.000 C 
ATOM      5  C   UNL     1       3.856   3.820  17.638  0.00  0.00    +0.000 C 
ATOM      6  C   UNL     1       2.444   3.712  17.018  0.00  0.00    +0.000 C 
ATOM      7  C   UNL     1       1.333   3.674  18.059  0.00  0.00    +0.000 C 
ATOM      8  C   UNL     1       1.521   2.527  19.045  0.00  0.00    +0.000 C 
ATOM      9  C   UNL     1       2.916   2.467  19.657  0.00  0.00    +0.000 C 
ATOM     10  C   UNL     1       4.042   2.654  18.641  0.00  0.00    +0.000 C 
ATOM     11  C   UNL     1       4.913   3.648  16.503  0.00  0.00    +0.000 C 
ENDROOT
BRANCH   4  12
ATOM     12  C   UNL     1       4.014   5.530  19.692  0.00  0.00    +0.000 C 
BRANCH  12  13
ATOM     13  N   UNL     1       2.896   6.397  20.045  0.00  0.00    +0.000 N 
ATOM     14  C   UNL     1       2.538   7.494  19.283  0.00  0.00    +0.000 C 
ATOM     15  O   UNL     1       3.024   7.733  18.181  0.00  0.00    +0.000 OA
ATOM     16  H   UNL     1       2.449   6.316  20.956  0.00  0.00    +0.000 HD
BRANCH  14  17
ATOM     17  C   UNL     1       1.512   8.415  19.881  0.00  0.00    +0.000 A 
ATOM     18  C   UNL     1       1.058   8.169  21.174  0.00  0.00    +0.000 A 
ATOM     19  C   UNL     1       0.067   8.996  21.701  0.00  0.00    +0.000 A 
ATOM     20  C   UNL     1      -0.433  10.035  20.926  0.00  0.00    +0.000 A 
ATOM     21  C   UNL     1       0.086  10.211  19.649  0.00  0.00    +0.000 A 
ATOM     22  N   UNL     1       1.049   9.431  19.099  0.00  0.00    +0.000 NA
ENDBRANCH  14  17
ENDBRANCH  12  13
ENDBRANCH   4  12
TORSDOF 3
ENDMDL
