MODEL 1
REMARK VINA RESULT:      -6.3      0.000      0.000
REMARK  Name = 
REMARK  5 active torsions:
REMARK  status: ('A' for Active; 'I' for Inactive)
REMARK    1  A    between atoms: C_2  and  C_3
REMARK    2  A    between atoms: C_8  and  S_9
REMARK    3  A    between atoms: S_9  and  S_10
REMARK    4  A    between atoms: S_10  and  C_11
REMARK    5  A    between atoms: C_16  and  C_17
REMARK                            x       y       z     vdW  Elec       q    Type
REMARK                         _______ _______ _______ _____ _____    ______ ____
ROOT
ATOM      1  S   UNL     1       2.382   3.883  17.730  0.00  0.00    +0.000 S 
ENDROOT
BRANCH   1   7
ATOM      2  C   UNL     1       1.811   5.340  20.098  0.00  0.00    +0.000 A 
ATOM      3  C   UNL     1       1.640   6.546  20.802  0.00  0.00    +0.000 A 
ATOM      4  C   UNL     1       1.865   7.772  20.176  0.00  0.00    +0.000 A 
ATOM      5  C   UNL     1       2.270   7.798  18.844  0.00  0.00    +0.000 A 
ATOM      6  C   UNL     1       2.454   6.602  18.141  0.00  0.00    +0.000 A 
ATOM      7  C   UNL     1       2.234   5.356  18.756  0.00  0.00    +0.000 A 
BRANCH   2   9
ATOM      8  N   UNL     1       1.276   3.117  21.326  0.00  0.00    +0.000 NA
ATOM      9  C   UNL     1       1.499   4.121  20.788  0.00  0.00    +0.000 C 
ENDBRANCH   2   9
ENDBRANCH   1   7
BRANCH   1  10
ATOM     10  S   UNL     1       4.268   3.170  18.155  0.00  0.00    +0.000 S 
BRANCH  10  11
ATOM     11  C   UNL     1       5.322   3.990  16.946  0.00  0.00    +0.000 A 
ATOM     12  C   UNL     1       5.140   3.718  15.579  0.00  0.00    +0.000 A 
ATOM     13  C   UNL     1       5.980   4.284  14.613  0.00  0.00    +0.000 A 
ATOM     14  C   UNL     1       7.020   5.125  14.995  0.00  0.00    +0.000 A 
ATOM     15  C   UNL     1       7.225   5.395  16.348  0.00  0.00    +0.000 A 
ATOM     16  C   UNL     1       6.386   4.829  17.325  0.00  0.00    +0.000 A 
BRANCH  16  17
ATOM     17  C   UNL     1       6.665   5.125  18.701  0.00  0.00    +0.000 C 
ATOM     18  N   UNL     1       6.919   5.364  19.806  0.00  0.00    +0.000 NA
ENDBRANCH  16  17
ENDBRANCH  10  11
ENDBRANCH   1  10
TORSDOF 5
ENDMDL
MODEL 2
REMARK VINA RESULT:      -6.3      2.379      3.031
REMARK  Name = 
REMARK  5 active torsions:
REMARK  status: ('A' for Active; 'I' for Inactive)
REMARK    1  A    between atoms: C_2  and  C_3
REMARK    2  A    between atoms: C_8  and  S_9
REMARK    3  A    between atoms: S_9  and  S_10
REMARK    4  A    between atoms: S_10  and  C_11
REMARK    5  A    between atoms: C_16  and  C_17
REMARK                            x       y       z     vdW  Elec       q    Type
REMARK                         _______ _______ _______ _____ _____    ______ ____
ROOT
ATOM      1  S   UNL     1       4.412   5.296  19.485  0.00  0.00    +0.000 S 
ENDROOT
BRANCH   1   7
ATOM      2  C   UNL     1       3.143   2.762  19.664  0.00  0.00    +0.000 A 
ATOM      3  C   UNL     1       2.092   1.877  19.361  0.00  0.00    +0.000 A 
ATOM      4  C   UNL     1       0.987   2.310  18.628  0.00  0.00    +0.000 A 
ATOM      5  C   UNL     1       0.925   3.633  18.200  0.00  0.00    +0.000 A 
ATOM      6  C   UNL     1       1.960   4.522  18.507  0.00  0.00    +0.000 A 
ATOM      7  C   UNL     1       3.081   4.105  19.248  0.00  0.00    +0.000 A 
BRANCH   2   9
ATOM      8  N   UNL     1       5.186   1.766  20.916  0.00  0.00    +0.000 NA
ATOM      9  C   UNL     1       4.275   2.230  20.367  0.00  0.00    +0.000 C 
ENDBRANCH   2   9
ENDBRANCH   1   7
BRANCH   1  10
ATOM     10  S   UNL     1       4.275   6.528  17.840  0.00  0.00    +0.000 S 
BRANCH  10  11
ATOM     11  C   UNL     1       5.279   5.699  16.595  0.00  0.00    +0.000 A 
ATOM     12  C   UNL     1       4.691   4.716  15.781  0.00  0.00    +0.000 A 
ATOM     13  C   UNL     1       5.452   4.004  14.847  0.00  0.00    +0.000 A 
ATOM     14  C   UNL     1       6.814   4.253  14.716  0.00  0.00    +0.000 A 
ATOM     15  C   UNL     1       7.418   5.214  15.526  0.00  0.00    +0.000 A 
ATOM     16  C   UNL     1       6.661   5.934  16.468  0.00  0.00    +0.000 A 
BRANCH  16  17
ATOM     17  C   UNL     1       7.346   6.891  17.290  0.00  0.00    +0.000 C 
ATOM     18  N   UNL     1       7.923   7.645  17.953  0.00  0.00    +0.000 NA
ENDBRANCH  16  17
ENDBRANCH  10  11
ENDBRANCH   1  10
TORSDOF 5
ENDMDL
MODEL 3
REMARK VINA RESULT:      -6.3      0.171      5.689
REMARK  Name = 
REMARK  5 active torsions:
REMARK  status: ('A' for Active; 'I' for Inactive)
REMARK    1  A    between atoms: C_2  and  C_3
REMARK    2  A    between atoms: C_8  and  S_9
REMARK    3  A    between atoms: S_9  and  S_10
REMARK    4  A    between atoms: S_10  and  C_11
REMARK    5  A    between atoms: C_16  and  C_17
REMARK                            x       y       z     vdW  Elec       q    Type
REMARK                         _______ _______ _______ _____ _____    ______ ____
ROOT
ATOM      1  S   UNL     1       4.365   3.127  18.288  0.00  0.00    +0.000 S 
ENDROOT
BRANCH   1   7
ATOM      2  C   UNL     1       6.444   4.854  17.418  0.00  0.00    +0.000 A 
ATOM      3  C   UNL     1       7.160   5.523  16.408  0.00  0.00    +0.000 A 
ATOM      4  C   UNL     1       6.847   5.322  15.064  0.00  0.00    +0.000 A 
ATOM      5  C   UNL     1       5.821   4.446  14.722  0.00  0.00    +0.000 A 
ATOM      6  C   UNL     1       5.112   3.768  15.720  0.00  0.00    +0.000 A 
ATOM      7  C   UNL     1       5.415   3.955  17.081  0.00  0.00    +0.000 A 
BRANCH   2   9
ATOM      8  N   UNL     1       7.085   5.419  19.869  0.00  0.00    +0.000 NA
ATOM      9  C   UNL     1       6.780   5.157  18.780  0.00  0.00    +0.000 C 
ENDBRANCH   2   9
ENDBRANCH   1   7
BRANCH   1  10
ATOM     10  S   UNL     1       2.457   3.698  17.761  0.00  0.00    +0.000 S 
BRANCH  10  11
ATOM     11  C   UNL     1       2.193   5.223  18.683  0.00  0.00    +0.000 A 
ATOM     12  C   UNL     1       2.487   6.455  18.073  0.00  0.00    +0.000 A 
ATOM     13  C   UNL     1       2.358   7.657  18.777  0.00  0.00    +0.000 A 
ATOM     14  C   UNL     1       1.940   7.651  20.104  0.00  0.00    +0.000 A 
ATOM     15  C   UNL     1       1.657   6.437  20.730  0.00  0.00    +0.000 A 
ATOM     16  C   UNL     1       1.786   5.224  20.031  0.00  0.00    +0.000 A 
BRANCH  16  17
ATOM     17  C   UNL     1       1.506   4.008  20.739  0.00  0.00    +0.000 C 
ATOM     18  N   UNL     1       1.282   3.011  21.286  0.00  0.00    +0.000 NA
ENDBRANCH  16  17
ENDBRANCH  10  11
ENDBRANCH   1  10
TORSDOF 5
ENDMDL
MODEL 4
REMARK VINA RESULT:      -6.3      2.682      3.635
REMARK  Name = 
REMARK  5 active torsions:
REMARK  status: ('A' for Active; 'I' for Inactive)
REMARK    1  A    between atoms: C_2  and  C_3
REMARK    2  A    between atoms: C_8  and  S_9
REMARK    3  A    between atoms: S_9  and  S_10
REMARK    4  A    between atoms: S_10  and  C_11
REMARK    5  A    between atoms: C_16  and  C_17
REMARK                            x       y       z     vdW  Elec       q    Type
REMARK                         _______ _______ _______ _____ _____    ______ ____
ROOT
ATOM      1  S   UNL     1       3.730   1.981  17.879  0.00  0.00    +0.000 S 
ENDROOT
BRANCH   1   7
ATOM      2  C   UNL     1       3.231   2.357  20.648  0.00  0.00    +0.000 A 
ATOM      3  C   UNL     1       2.399   2.734  21.719  0.00  0.00    +0.000 A 
ATOM      4  C   UNL     1       1.128   3.257  21.482  0.00  0.00    +0.000 A 
ATOM      5  C   UNL     1       0.685   3.413  20.172  0.00  0.00    +0.000 A 
ATOM      6  C   UNL     1       1.511   3.052  19.101  0.00  0.00    +0.000 A 
ATOM      7  C   UNL     1       2.797   2.525  19.321  0.00  0.00    +0.000 A 
BRANCH   2   9
ATOM      8  N   UNL     1       5.505   1.261  21.249  0.00  0.00    +0.000 NA
ATOM      9  C   UNL     1       4.498   1.767  20.971  0.00  0.00    +0.000 C 
ENDBRANCH   2   9
ENDBRANCH   1   7
BRANCH   1  10
ATOM     10  S   UNL     1       3.962   3.696  16.762  0.00  0.00    +0.000 S 
BRANCH  10  11
ATOM     11  C   UNL     1       5.425   4.475  17.468  0.00  0.00    +0.000 A 
ATOM     12  C   UNL     1       5.429   4.822  18.830  0.00  0.00    +0.000 A 
ATOM     13  C   UNL     1       6.520   5.488  19.401  0.00  0.00    +0.000 A 
ATOM     14  C   UNL     1       7.621   5.825  18.621  0.00  0.00    +0.000 A 
ATOM     15  C   UNL     1       7.629   5.502  17.265  0.00  0.00    +0.000 A 
ATOM     16  C   UNL     1       6.536   4.834  16.682  0.00  0.00    +0.000 A 
BRANCH  16  17
ATOM     17  C   UNL     1       6.594   4.553  15.276  0.00  0.00    +0.000 C 
ATOM     18  N   UNL     1       6.617   4.344  14.137  0.00  0.00    +0.000 NA
ENDBRANCH  16  17
ENDBRANCH  10  11
ENDBRANCH   1  10
TORSDOF 5
ENDMDL
MODEL 5
REMARK VINA RESULT:      -6.2      1.559      5.559
REMARK  Name = 
REMARK  5 active torsions:
REMARK  status: ('A' for Active; 'I' for Inactive)
REMARK    1  A    between atoms: C_2  and  C_3
REMARK    2  A    between atoms: C_8  and  S_9
REMARK    3  A    between atoms: S_9  and  S_10
REMARK    4  A    between atoms: S_10  and  C_11
REMARK    5  A    between atoms: C_16  and  C_17
REMARK                            x       y       z     vdW  Elec       q    Type
REMARK                         _______ _______ _______ _____ _____    ______ ____
ROOT
ATOM      1  S   UNL     1       4.231   2.897  17.797  0.00  0.00    +0.000 S 
ENDROOT
BRANCH   1   7
ATOM      2  C   UNL     1       5.986   4.860  16.739  0.00  0.00    +0.000 A 
ATOM      3  C   UNL     1       6.948   5.876  16.892  0.00  0.00    +0.000 A 
ATOM      4  C   UNL     1       7.338   6.300  18.162  0.00  0.00    +0.000 A 
ATOM      5  C   UNL     1       6.764   5.715  19.286  0.00  0.00    +0.000 A 
ATOM      6  C   UNL     1       5.799   4.712  19.143  0.00  0.00    +0.000 A 
ATOM      7  C   UNL     1       5.390   4.273  17.870  0.00  0.00    +0.000 A 
BRANCH   2   9
ATOM      8  N   UNL     1       5.396   4.091  14.332  0.00  0.00    +0.000 NA
ATOM      9  C   UNL     1       5.681   4.433  15.404  0.00  0.00    +0.000 C 
ENDBRANCH   2   9
ENDBRANCH   1   7
BRANCH   1  10
ATOM     10  S   UNL     1       2.457   3.771  17.221  0.00  0.00    +0.000 S 
BRANCH  10  11
ATOM     11  C   UNL     1       2.258   5.142  18.373  0.00  0.00    +0.000 A 
ATOM     12  C   UNL     1       2.576   6.444  17.952  0.00  0.00    +0.000 A 
ATOM     13  C   UNL     1       2.498   7.527  18.835  0.00  0.00    +0.000 A 
ATOM     14  C   UNL     1       2.108   7.327  20.156  0.00  0.00    +0.000 A 
ATOM     15  C   UNL     1       1.802   6.040  20.595  0.00  0.00    +0.000 A 
ATOM     16  C   UNL     1       1.880   4.946  19.715  0.00  0.00    +0.000 A 
BRANCH  16  17
ATOM     17  C   UNL     1       1.578   3.643  20.235  0.00  0.00    +0.000 C 
ATOM     18  N   UNL     1       1.331   2.581  20.627  0.00  0.00    +0.000 NA
ENDBRANCH  16  17
ENDBRANCH  10  11
ENDBRANCH   1  10
TORSDOF 5
ENDMDL
MODEL 6
REMARK VINA RESULT:      -6.2      2.522      4.380
REMARK  Name = 
REMARK  5 active torsions:
REMARK  status: ('A' for Active; 'I' for Inactive)
REMARK    1  A    between atoms: C_2  and  C_3
REMARK    2  A    between atoms: C_8  and  S_9
REMARK    3  A    between atoms: S_9  and  S_10
REMARK    4  A    between atoms: S_10  and  C_11
REMARK    5  A    between atoms: C_16  and  C_17
REMARK                            x       y       z     vdW  Elec       q    Type
REMARK                         _______ _______ _______ _____ _____    ______ ____
ROOT
ATOM      1  S   UNL     1       4.477   3.080  18.318  0.00  0.00    +0.000 S 
ENDROOT
BRANCH   1   7
ATOM      2  C   UNL     1       1.823   3.341  19.289  0.00  0.00    +0.000 A 
ATOM      3  C   UNL     1       0.864   3.261  20.316  0.00  0.00    +0.000 A 
ATOM      4  C   UNL     1       1.215   2.788  21.581  0.00  0.00    +0.000 A 
ATOM      5  C   UNL     1       2.526   2.387  21.823  0.00  0.00    +0.000 A 
ATOM      6  C   UNL     1       3.482   2.452  20.804  0.00  0.00    +0.000 A 
ATOM      7  C   UNL     1       3.146   2.923  19.521  0.00  0.00    +0.000 A 
BRANCH   2   9
ATOM      8  N   UNL     1       1.028   4.336  17.028  0.00  0.00    +0.000 NA
ATOM      9  C   UNL     1       1.404   3.895  18.034  0.00  0.00    +0.000 C 
ENDBRANCH   2   9
ENDBRANCH   1   7
BRANCH   1  10
ATOM     10  S   UNL     1       5.462   4.797  18.887  0.00  0.00    +0.000 S 
BRANCH  10  11
ATOM     11  C   UNL     1       4.223   6.090  18.692  0.00  0.00    +0.000 A 
ATOM     12  C   UNL     1       3.320   6.340  19.740  0.00  0.00    +0.000 A 
ATOM     13  C   UNL     1       2.302   7.290  19.603  0.00  0.00    +0.000 A 
ATOM     14  C   UNL     1       2.162   8.001  18.415  0.00  0.00    +0.000 A 
ATOM     15  C   UNL     1       3.040   7.756  17.360  0.00  0.00    +0.000 A 
ATOM     16  C   UNL     1       4.065   6.802  17.488  0.00  0.00    +0.000 A 
BRANCH  16  17
ATOM     17  C   UNL     1       4.919   6.578  16.357  0.00  0.00    +0.000 C 
ATOM     18  N   UNL     1       5.600   6.423  15.433  0.00  0.00    +0.000 NA
ENDBRANCH  16  17
ENDBRANCH  10  11
ENDBRANCH   1  10
TORSDOF 5
ENDMDL
MODEL 7
REMARK VINA RESULT:      -6.1      2.495      4.258
REMARK  Name = 
REMARK  5 active torsions:
REMARK  status: ('A' for Active; 'I' for Inactive)
REMARK    1  A    between atoms: C_2  and  C_3
REMARK    2  A    between atoms: C_8  and  S_9
REMARK    3  A    between atoms: S_9  and  S_10
REMARK    4  A    between atoms: S_10  and  C_11
REMARK    5  A    between atoms: C_16  and  C_17
REMARK                            x       y       z     vdW  Elec       q    Type
REMARK                         _______ _______ _______ _____ _____    ______ ____
ROOT
ATOM      1  S   UNL     1       4.635   3.011  17.587  0.00  0.00    +0.000 S 
ENDROOT
BRANCH   1   7
ATOM      2  C   UNL     1       3.061   2.476  19.888  0.00  0.00    +0.000 A 
ATOM      3  C   UNL     1       1.822   2.375  20.548  0.00  0.00    +0.000 A 
ATOM      4  C   UNL     1       0.639   2.713  19.892  0.00  0.00    +0.000 A 
ATOM      5  C   UNL     1       0.688   3.161  18.575  0.00  0.00    +0.000 A 
ATOM      6  C   UNL     1       1.917   3.276  17.916  0.00  0.00    +0.000 A 
ATOM      7  C   UNL     1       3.122   2.942  18.562  0.00  0.00    +0.000 A 
BRANCH   2   9
ATOM      8  N   UNL     1       5.180   1.680  21.157  0.00  0.00    +0.000 NA
ATOM      9  C   UNL     1       4.229   2.051  20.605  0.00  0.00    +0.000 C 
ENDBRANCH   2   9
ENDBRANCH   1   7
BRANCH   1  10
ATOM     10  S   UNL     1       5.650   4.629  18.360  0.00  0.00    +0.000 S 
BRANCH  10  11
ATOM     11  C   UNL     1       4.389   5.908  18.489  0.00  0.00    +0.000 A 
ATOM     12  C   UNL     1       3.606   5.987  19.653  0.00  0.00    +0.000 A 
ATOM     13  C   UNL     1       2.573   6.924  19.766  0.00  0.00    +0.000 A 
ATOM     14  C   UNL     1       2.299   7.794  18.715  0.00  0.00    +0.000 A 
ATOM     15  C   UNL     1       3.056   7.721  17.546  0.00  0.00    +0.000 A 
ATOM     16  C   UNL     1       4.095   6.781  17.424  0.00  0.00    +0.000 A 
BRANCH  16  17
ATOM     17  C   UNL     1       4.820   6.739  16.186  0.00  0.00    +0.000 C 
ATOM     18  N   UNL     1       5.384   6.721  15.175  0.00  0.00    +0.000 NA
ENDBRANCH  16  17
ENDBRANCH  10  11
ENDBRANCH   1  10
TORSDOF 5
ENDMDL
MODEL 8
REMARK VINA RESULT:      -6.1      2.006      6.110
REMARK  Name = 
REMARK  5 active torsions:
REMARK  status: ('A' for Active; 'I' for Inactive)
REMARK    1  A    between atoms: C_2  and  C_3
REMARK    2  A    between atoms: C_8  and  S_9
REMARK    3  A    between atoms: S_9  and  S_10
REMARK    4  A    between atoms: S_10  and  C_11
REMARK    5  A    between atoms: C_16  and  C_17
REMARK                            x       y       z     vdW  Elec       q    Type
REMARK                         _______ _______ _______ _____ _____    ______ ____
ROOT
ATOM      1  S   UNL     1       4.204   6.341  17.619  0.00  0.00    +0.000 S 
ENDROOT
BRANCH   1   7
ATOM      2  C   UNL     1       6.706   5.803  16.390  0.00  0.00    +0.000 A 
ATOM      3  C   UNL     1       7.495   5.195  15.396  0.00  0.00    +0.000 A 
ATOM      4  C   UNL     1       6.918   4.343  14.454  0.00  0.00    +0.000 A 
ATOM      5  C   UNL     1       5.551   4.088  14.506  0.00  0.00    +0.000 A 
ATOM      6  C   UNL     1       4.762   4.679  15.500  0.00  0.00    +0.000 A 
ATOM      7  C   UNL     1       5.326   5.540  16.459  0.00  0.00    +0.000 A 
BRANCH   2   9
ATOM      8  N   UNL     1       7.910   7.428  18.016  0.00  0.00    +0.000 NA
ATOM      9  C   UNL     1       7.357   6.717  17.284  0.00  0.00    +0.000 C 
ENDBRANCH   2   9
ENDBRANCH   1   7
BRANCH   1  10
ATOM     10  S   UNL     1       4.539   5.354  19.396  0.00  0.00    +0.000 S 
BRANCH  10  11
ATOM     11  C   UNL     1       3.124   4.250  19.549  0.00  0.00    +0.000 A 
ATOM     12  C   UNL     1       3.220   2.938  19.054  0.00  0.00    +0.000 A 
ATOM     13  C   UNL     1       2.123   2.070  19.095  0.00  0.00    +0.000 A 
ATOM     14  C   UNL     1       0.909   2.499  19.623  0.00  0.00    +0.000 A 
ATOM     15  C   UNL     1       0.792   3.802  20.106  0.00  0.00    +0.000 A 
ATOM     16  C   UNL     1       1.889   4.681  20.067  0.00  0.00    +0.000 A 
BRANCH  16  17
ATOM     17  C   UNL     1       1.695   6.017  20.555  0.00  0.00    +0.000 C 
ATOM     18  N   UNL     1       1.510   7.092  20.946  0.00  0.00    +0.000 NA
ENDBRANCH  16  17
ENDBRANCH  10  11
ENDBRANCH   1  10
TORSDOF 5
ENDMDL
MODEL 9
REMARK VINA RESULT:      -6.1      1.560      2.367
REMARK  Name = 
REMARK  5 active torsions:
REMARK  status: ('A' for Active; 'I' for Inactive)
REMARK    1  A    between atoms: C_2  and  C_3
REMARK    2  A    between atoms: C_8  and  S_9
REMARK    3  A    between atoms: S_9  and  S_10
REMARK    4  A    between atoms: S_10  and  C_11
REMARK    5  A    between atoms: C_16  and  C_17
REMARK                            x       y       z     vdW  Elec       q    Type
REMARK                         _______ _______ _______ _____ _____    ______ ____
ROOT
ATOM      1  S   UNL     1       2.531   3.909  17.200  0.00  0.00    +0.000 S 
ENDROOT
BRANCH   1   7
ATOM      2  C   UNL     1       1.945   5.011  19.750  0.00  0.00    +0.000 A 
ATOM      3  C   UNL     1       1.773   6.104  20.619  0.00  0.00    +0.000 A 
ATOM      4  C   UNL     1       2.007   7.406  20.178  0.00  0.00    +0.000 A 
ATOM      5  C   UNL     1       2.423   7.622  18.867  0.00  0.00    +0.000 A 
ATOM      6  C   UNL     1       2.608   6.539  18.000  0.00  0.00    +0.000 A 
ATOM      7  C   UNL     1       2.379   5.218  18.427  0.00  0.00    +0.000 A 
BRANCH   2   9
ATOM      8  N   UNL     1       1.398   2.638  20.647  0.00  0.00    +0.000 NA
ATOM      9  C   UNL     1       1.625   3.706  20.254  0.00  0.00    +0.000 C 
ENDBRANCH   2   9
ENDBRANCH   1   7
BRANCH   1  10
ATOM     10  S   UNL     1       4.262   2.928  17.732  0.00  0.00    +0.000 S 
BRANCH  10  11
ATOM     11  C   UNL     1       5.489   4.243  17.835  0.00  0.00    +0.000 A 
ATOM     12  C   UNL     1       5.872   4.728  19.098  0.00  0.00    +0.000 A 
ATOM     13  C   UNL     1       6.773   5.792  19.218  0.00  0.00    +0.000 A 
ATOM     14  C   UNL     1       7.300   6.396  18.081  0.00  0.00    +0.000 A 
ATOM     15  C   UNL     1       6.921   5.937  16.820  0.00  0.00    +0.000 A 
ATOM     16  C   UNL     1       6.015   4.870  16.690  0.00  0.00    +0.000 A 
BRANCH  16  17
ATOM     17  C   UNL     1       5.644   4.462  15.365  0.00  0.00    +0.000 C 
ATOM     18  N   UNL     1       5.370   4.118  14.293  0.00  0.00    +0.000 NA
ENDBRANCH  16  17
ENDBRANCH  10  11
ENDBRANCH   1  10
TORSDOF 5
ENDMDL
