MODEL 1
REMARK VINA RESULT:      -8.6      0.000      0.000
REMARK  Name = 
REMARK  5 active torsions:
REMARK  status: ('A' for Active; 'I' for Inactive)
REMARK    1  A    between atoms: C_1  and  N_2
REMARK    2  A    between atoms: C_5  and  O_6
REMARK    3  A    between atoms: C_5  and  C_7
REMARK    4  A    between atoms: C_8  and  C_9
REMARK    5  A    between atoms: C_22  and  C_23
REMARK                            x       y       z     vdW  Elec       q    Type
REMARK                         _______ _______ _______ _____ _____    ______ ____
ROOT
ATOM      1  C   UNL     1       1.717   8.048  19.608  0.00  0.00    +0.000 A 
ATOM      2  C   UNL     1       2.692   7.448  18.795  0.00  0.00    +0.000 A 
ATOM      3  C   UNL     1       3.065   6.093  18.970  0.00  0.00    +0.000 A 
ATOM      4  C   UNL     1       2.448   5.350  19.996  0.00  0.00    +0.000 A 
ATOM      5  C   UNL     1       1.499   5.972  20.822  0.00  0.00    +0.000 A 
ATOM      6  C   UNL     1       1.130   7.296  20.619  0.00  0.00    +0.000 A 
ATOM      7  F   UNL     1       0.194   7.830  21.418  0.00  0.00    +0.000 F 
ATOM      8  O   UNL     1       2.683   4.066  20.394  0.00  0.00    +0.000 OA
ATOM      9  C   UNL     1       3.053   3.003  19.513  0.00  0.00    +0.000 C 
ATOM     10  C   UNL     1       2.939   3.212  18.007  0.00  0.00    +0.000 C 
ATOM     11  F   UNL     1       1.672   3.595  17.687  0.00  0.00    +0.000 F 
ATOM     12  C   UNL     1       3.931   4.226  17.587  0.00  0.00    +0.000 A 
ATOM     13  S   UNL     1       5.183   3.865  16.488  0.00  0.00    +0.000 S 
ATOM     14  C   UNL     1       5.796   5.450  16.693  0.00  0.00    +0.000 A 
ATOM     15  N   UNL     1       5.107   6.238  17.506  0.00  0.00    +0.000 NA
ATOM     16  C   UNL     1       4.036   5.523  18.040  0.00  0.00    +0.000 A 
ENDROOT
BRANCH  14  17
ATOM     17  C   UNL     1       7.021   5.850  15.998  0.00  0.00    +0.000 C 
ATOM     18  N   UNL     1       7.307   5.140  14.863  0.00  0.00    +0.000 N 
ATOM     19  O   UNL     1       7.784   6.754  16.345  0.00  0.00    +0.000 OA
ATOM     20  H   UNL     1       6.691   4.399  14.558  0.00  0.00    +0.000 HD
ATOM     21  H   UNL     1       8.133   5.384  14.337  0.00  0.00    +0.000 HD
ENDBRANCH  14  17
BRANCH   1  23
ATOM     22  C   UNL     1       0.912  10.537  19.241  0.00  0.00    +0.000 C 
ATOM     23  C   UNL     1       1.294   9.404  19.382  0.00  0.00    +0.000 C 
BRANCH  22  28
ATOM     24  C   UNL     1      -3.272  12.670  20.039  0.00  0.00    +0.000 C 
ATOM     25  N   UNL     1      -1.864  12.358  19.961  0.00  0.00    +0.000 N 
ATOM     26  C   UNL     1      -0.961  12.494  21.070  0.00  0.00    +0.000 C 
ATOM     27  C   UNL     1       0.389  12.682  20.403  0.00  0.00    +0.000 C 
ATOM     28  C   UNL     1       0.300  11.871  19.101  0.00  0.00    +0.000 C 
ATOM     29  C   UNL     1      -1.228  11.855  18.829  0.00  0.00    +0.000 C 
ATOM     30  O   UNL     1      -1.775  11.587  17.771  0.00  0.00    +0.000 OA
BRANCH  28  31
ATOM     31  O   UNL     1       1.010  12.577  18.089  0.00  0.00    +0.000 OA
ATOM     32  H   UNL     1       1.513  13.279  18.541  0.00  0.00    +0.000 HD
ENDBRANCH  28  31
ENDBRANCH  22  28
ENDBRANCH   1  23
TORSDOF 4
ENDMDL
MODEL 2
REMARK VINA RESULT:      -8.5      1.333      1.757
REMARK  Name = 
REMARK  5 active torsions:
REMARK  status: ('A' for Active; 'I' for Inactive)
REMARK    1  A    between atoms: C_1  and  N_2
REMARK    2  A    between atoms: C_5  and  O_6
REMARK    3  A    between atoms: C_5  and  C_7
REMARK    4  A    between atoms: C_8  and  C_9
REMARK    5  A    between atoms: C_22  and  C_23
REMARK                            x       y       z     vdW  Elec       q    Type
REMARK                         _______ _______ _______ _____ _____    ______ ____
ROOT
ATOM      1  C   UNL     1       1.694   8.145  19.633  0.00  0.00    +0.000 A 
ATOM      2  C   UNL     1       2.658   7.532  18.816  0.00  0.00    +0.000 A 
ATOM      3  C   UNL     1       3.010   6.170  18.985  0.00  0.00    +0.000 A 
ATOM      4  C   UNL     1       2.384   5.433  20.011  0.00  0.00    +0.000 A 
ATOM      5  C   UNL     1       1.447   6.068  20.841  0.00  0.00    +0.000 A 
ATOM      6  C   UNL     1       1.098   7.399  20.643  0.00  0.00    +0.000 A 
ATOM      7  F   UNL     1       0.173   7.945  21.446  0.00  0.00    +0.000 F 
ATOM      8  O   UNL     1       2.599   4.145  20.404  0.00  0.00    +0.000 OA
ATOM      9  C   UNL     1       2.949   3.079  19.519  0.00  0.00    +0.000 C 
ATOM     10  C   UNL     1       2.835   3.294  18.014  0.00  0.00    +0.000 C 
ATOM     11  F   UNL     1       1.573   3.699  17.699  0.00  0.00    +0.000 F 
ATOM     12  C   UNL     1       3.842   4.294  17.594  0.00  0.00    +0.000 A 
ATOM     13  S   UNL     1       5.085   3.916  16.491  0.00  0.00    +0.000 S 
ATOM     14  C   UNL     1       5.724   5.491  16.699  0.00  0.00    +0.000 A 
ATOM     15  N   UNL     1       5.050   6.287  17.517  0.00  0.00    +0.000 NA
ATOM     16  C   UNL     1       3.969   5.588  18.051  0.00  0.00    +0.000 A 
ENDROOT
BRANCH  14  17
ATOM     17  C   UNL     1       6.954   5.874  16.003  0.00  0.00    +0.000 C 
ATOM     18  N   UNL     1       7.651   6.903  16.574  0.00  0.00    +0.000 N 
ATOM     19  O   UNL     1       7.395   5.349  14.979  0.00  0.00    +0.000 OA
ATOM     20  H   UNL     1       7.311   7.343  17.418  0.00  0.00    +0.000 HD
ATOM     21  H   UNL     1       8.515   7.199  16.143  0.00  0.00    +0.000 HD
ENDBRANCH  14  17
BRANCH   1  23
ATOM     22  C   UNL     1       1.002  10.656  19.197  0.00  0.00    +0.000 C 
ATOM     23  C   UNL     1       1.292   9.508  19.412  0.00  0.00    +0.000 C 
BRANCH  22  28
ATOM     24  C   UNL     1       1.251  14.730  21.653  0.00  0.00    +0.000 C 
ATOM     25  N   UNL     1       1.359  13.714  20.631  0.00  0.00    +0.000 N 
ATOM     26  C   UNL     1       2.581  13.422  19.934  0.00  0.00    +0.000 C 
ATOM     27  C   UNL     1       2.102  12.821  18.626  0.00  0.00    +0.000 C 
ATOM     28  C   UNL     1       0.793  12.099  18.980  0.00  0.00    +0.000 C 
ATOM     29  C   UNL     1       0.319  12.879  20.234  0.00  0.00    +0.000 C 
ATOM     30  O   UNL     1      -0.806  12.874  20.711  0.00  0.00    +0.000 OA
BRANCH  28  31
ATOM     31  O   UNL     1      -0.108  12.254  17.888  0.00  0.00    +0.000 OA
ATOM     32  H   UNL     1      -0.249  11.364  17.516  0.00  0.00    +0.000 HD
ENDBRANCH  28  31
ENDBRANCH  22  28
ENDBRANCH   1  23
TORSDOF 4
ENDMDL
MODEL 3
REMARK VINA RESULT:      -8.3      1.262      1.298
REMARK  Name = 
REMARK  5 active torsions:
REMARK  status: ('A' for Active; 'I' for Inactive)
REMARK    1  A    between atoms: C_1  and  N_2
REMARK    2  A    between atoms: C_5  and  O_6
REMARK    3  A    between atoms: C_5  and  C_7
REMARK    4  A    between atoms: C_8  and  C_9
REMARK    5  A    between atoms: C_22  and  C_23
REMARK                            x       y       z     vdW  Elec       q    Type
REMARK                         _______ _______ _______ _____ _____    ______ ____
ROOT
ATOM      1  C   UNL     1       1.891   8.456  19.373  0.00  0.00    +0.000 A 
ATOM      2  C   UNL     1       2.727   7.667  18.567  0.00  0.00    +0.000 A 
ATOM      3  C   UNL     1       2.917   6.288  18.830  0.00  0.00    +0.000 A 
ATOM      4  C   UNL     1       2.260   5.715  19.938  0.00  0.00    +0.000 A 
ATOM      5  C   UNL     1       1.453   6.523  20.754  0.00  0.00    +0.000 A 
ATOM      6  C   UNL     1       1.261   7.869  20.464  0.00  0.00    +0.000 A 
ATOM      7  F   UNL     1       0.454   8.587  21.259  0.00  0.00    +0.000 F 
ATOM      8  O   UNL     1       2.335   4.443  20.424  0.00  0.00    +0.000 OA
ATOM      9  C   UNL     1       2.505   3.277  19.613  0.00  0.00    +0.000 C 
ATOM     10  C   UNL     1       2.339   3.393  18.102  0.00  0.00    +0.000 C 
ATOM     11  F   UNL     1       1.122   3.929  17.810  0.00  0.00    +0.000 F 
ATOM     12  C   UNL     1       3.438   4.223  17.561  0.00  0.00    +0.000 A 
ATOM     13  S   UNL     1       4.566   3.609  16.440  0.00  0.00    +0.000 S 
ATOM     14  C   UNL     1       5.404   5.101  16.492  0.00  0.00    +0.000 A 
ATOM     15  N   UNL     1       4.876   6.035  17.271  0.00  0.00    +0.000 NA
ATOM     16  C   UNL     1       3.747   5.520  17.906  0.00  0.00    +0.000 A 
ENDROOT
BRANCH  14  17
ATOM     17  C   UNL     1       6.633   5.272  15.716  0.00  0.00    +0.000 C 
ATOM     18  N   UNL     1       7.470   6.260  16.158  0.00  0.00    +0.000 N 
ATOM     19  O   UNL     1       6.961   4.608  14.731  0.00  0.00    +0.000 OA
ATOM     20  H   UNL     1       7.223   6.812  16.968  0.00  0.00    +0.000 HD
ATOM     21  H   UNL     1       8.339   6.411  15.667  0.00  0.00    +0.000 HD
ENDBRANCH  14  17
BRANCH   1  23
ATOM     22  C   UNL     1       1.501  11.005  18.802  0.00  0.00    +0.000 C 
ATOM     23  C   UNL     1       1.648   9.839  19.060  0.00  0.00    +0.000 C 
BRANCH  22  28
ATOM     24  C   UNL     1      -1.219  14.647  20.230  0.00  0.00    +0.000 C 
ATOM     25  N   UNL     1      -0.102  13.803  19.872  0.00  0.00    +0.000 N 
ATOM     26  C   UNL     1       1.053  13.623  20.708  0.00  0.00    +0.000 C 
ATOM     27  C   UNL     1       2.140  13.233  19.723  0.00  0.00    +0.000 C 
ATOM     28  C   UNL     1       1.409  12.464  18.613  0.00  0.00    +0.000 C 
ATOM     29  C   UNL     1      -0.030  13.038  18.711  0.00  0.00    +0.000 C 
ATOM     30  O   UNL     1      -0.903  12.959  17.861  0.00  0.00    +0.000 OA
BRANCH  28  31
ATOM     31  O   UNL     1       2.024  12.787  17.370  0.00  0.00    +0.000 OA
ATOM     32  H   UNL     1       2.870  13.221  17.584  0.00  0.00    +0.000 HD
ENDBRANCH  28  31
ENDBRANCH  22  28
ENDBRANCH   1  23
TORSDOF 4
ENDMDL
MODEL 4
REMARK VINA RESULT:      -8.2      1.364      1.622
REMARK  Name = 
REMARK  5 active torsions:
REMARK  status: ('A' for Active; 'I' for Inactive)
REMARK    1  A    between atoms: C_1  and  N_2
REMARK    2  A    between atoms: C_5  and  O_6
REMARK    3  A    between atoms: C_5  and  C_7
REMARK    4  A    between atoms: C_8  and  C_9
REMARK    5  A    between atoms: C_22  and  C_23
REMARK                            x       y       z     vdW  Elec       q    Type
REMARK                         _______ _______ _______ _____ _____    ______ ____
ROOT
ATOM      1  C   UNL     1       1.350   8.876  19.548  0.00  0.00    +0.000 A 
ATOM      2  C   UNL     1       2.247   8.119  18.779  0.00  0.00    +0.000 A 
ATOM      3  C   UNL     1       2.595   6.795  19.142  0.00  0.00    +0.000 A 
ATOM      4  C   UNL     1       2.034   6.246  20.313  0.00  0.00    +0.000 A 
ATOM      5  C   UNL     1       1.163   7.027  21.090  0.00  0.00    +0.000 A 
ATOM      6  C   UNL     1       0.817   8.315  20.703  0.00  0.00    +0.000 A 
ATOM      7  F   UNL     1      -0.044   9.004  21.467  0.00  0.00    +0.000 F 
ATOM      8  O   UNL     1       2.261   5.033  20.894  0.00  0.00    +0.000 OA
ATOM      9  C   UNL     1       2.538   3.831  20.172  0.00  0.00    +0.000 C 
ATOM     10  C   UNL     1       2.322   3.805  18.663  0.00  0.00    +0.000 C 
ATOM     11  F   UNL     1       1.046   4.181  18.371  0.00  0.00    +0.000 F 
ATOM     12  C   UNL     1       3.309   4.702  18.021  0.00  0.00    +0.000 A 
ATOM     13  S   UNL     1       4.468   4.124  16.913  0.00  0.00    +0.000 S 
ATOM     14  C   UNL     1       5.137   5.697  16.820  0.00  0.00    +0.000 A 
ATOM     15  N   UNL     1       4.530   6.629  17.541  0.00  0.00    +0.000 NA
ATOM     16  C   UNL     1       3.481   6.049  18.253  0.00  0.00    +0.000 A 
ENDROOT
BRANCH  14  17
ATOM     17  C   UNL     1       6.320   5.936  15.991  0.00  0.00    +0.000 C 
ATOM     18  N   UNL     1       6.219   5.507  14.695  0.00  0.00    +0.000 N 
ATOM     19  O   UNL     1       7.360   6.483  16.360  0.00  0.00    +0.000 OA
ATOM     20  H   UNL     1       5.372   5.062  14.370  0.00  0.00    +0.000 HD
ATOM     21  H   UNL     1       7.001   5.660  14.074  0.00  0.00    +0.000 HD
ENDBRANCH  14  17
BRANCH   1  23
ATOM     22  C   UNL     1       0.616  11.314  18.846  0.00  0.00    +0.000 C 
ATOM     23  C   UNL     1       0.948  10.195  19.137  0.00  0.00    +0.000 C 
BRANCH  22  28
ATOM     24  C   UNL     1      -0.337  15.279  21.310  0.00  0.00    +0.000 C 
ATOM     25  N   UNL     1       0.107  14.339  20.307  0.00  0.00    +0.000 N 
ATOM     26  C   UNL     1       1.429  14.350  19.743  0.00  0.00    +0.000 C 
ATOM     27  C   UNL     1       1.239  13.686  18.392  0.00  0.00    +0.000 C 
ATOM     28  C   UNL     1       0.103  12.676  18.606  0.00  0.00    +0.000 C 
ATOM     29  C   UNL     1      -0.665  13.296  19.803  0.00  0.00    +0.000 C 
ATOM     30  O   UNL     1      -1.802  13.022  20.157  0.00  0.00    +0.000 OA
BRANCH  28  31
ATOM     31  O   UNL     1      -0.692  12.645  17.425  0.00  0.00    +0.000 OA
ATOM     32  H   UNL     1      -0.348  11.915  16.878  0.00  0.00    +0.000 HD
ENDBRANCH  28  31
ENDBRANCH  22  28
ENDBRANCH   1  23
TORSDOF 4
ENDMDL
MODEL 5
REMARK VINA RESULT:      -7.5      7.496     10.635
REMARK  Name = 
REMARK  5 active torsions:
REMARK  status: ('A' for Active; 'I' for Inactive)
REMARK    1  A    between atoms: C_1  and  N_2
REMARK    2  A    between atoms: C_5  and  O_6
REMARK    3  A    between atoms: C_5  and  C_7
REMARK    4  A    between atoms: C_8  and  C_9
REMARK    5  A    between atoms: C_22  and  C_23
REMARK                            x       y       z     vdW  Elec       q    Type
REMARK                         _______ _______ _______ _____ _____    ______ ____
ROOT
ATOM      1  C   UNL     1       9.061  10.279  18.838  0.00  0.00    +0.000 A 
ATOM      2  C   UNL     1       8.708  10.808  20.089  0.00  0.00    +0.000 A 
ATOM      3  C   UNL     1       9.368  11.943  20.622  0.00  0.00    +0.000 A 
ATOM      4  C   UNL     1      10.410  12.530  19.876  0.00  0.00    +0.000 A 
ATOM      5  C   UNL     1      10.774  11.970  18.642  0.00  0.00    +0.000 A 
ATOM      6  C   UNL     1      10.098  10.871  18.126  0.00  0.00    +0.000 A 
ATOM      7  F   UNL     1      10.467  10.396  16.927  0.00  0.00    +0.000 F 
ATOM      8  O   UNL     1      11.223  13.576  20.203  0.00  0.00    +0.000 OA
ATOM      9  C   UNL     1      10.815  14.704  20.981  0.00  0.00    +0.000 C 
ATOM     10  C   UNL     1       9.332  14.915  21.261  0.00  0.00    +0.000 C 
ATOM     11  F   UNL     1       8.638  14.945  20.090  0.00  0.00    +0.000 F 
ATOM     12  C   UNL     1       8.851  13.830  22.145  0.00  0.00    +0.000 A 
ATOM     13  S   UNL     1       8.222  14.141  23.698  0.00  0.00    +0.000 S 
ATOM     14  C   UNL     1       8.060  12.456  23.952  0.00  0.00    +0.000 A 
ATOM     15  N   UNL     1       8.420  11.680  22.938  0.00  0.00    +0.000 NA
ATOM     16  C   UNL     1       8.896  12.475  21.897  0.00  0.00    +0.000 A 
ENDROOT
BRANCH  14  17
ATOM     17  C   UNL     1       7.566  11.958  25.236  0.00  0.00    +0.000 C 
ATOM     18  N   UNL     1       8.225  12.432  26.338  0.00  0.00    +0.000 N 
ATOM     19  O   UNL     1       6.626  11.176  25.393  0.00  0.00    +0.000 OA
ATOM     20  H   UNL     1       8.994  13.079  26.232  0.00  0.00    +0.000 HD
ATOM     21  H   UNL     1       7.915  12.133  27.251  0.00  0.00    +0.000 HD
ENDBRANCH  14  17
BRANCH   1  23
ATOM     22  C   UNL     1       7.766   8.206  17.837  0.00  0.00    +0.000 C 
ATOM     23  C   UNL     1       8.343   9.168  18.272  0.00  0.00    +0.000 C 
BRANCH  22  28
ATOM     24  C   UNL     1       5.197   4.487  19.341  0.00  0.00    +0.000 C 
ATOM     25  N   UNL     1       5.728   5.590  18.573  0.00  0.00    +0.000 N 
ATOM     26  C   UNL     1       4.910   6.625  18.007  0.00  0.00    +0.000 C 
ATOM     27  C   UNL     1       5.743   7.135  16.845  0.00  0.00    +0.000 C 
ATOM     28  C   UNL     1       7.200   6.956  17.298  0.00  0.00    +0.000 C 
ATOM     29  C   UNL     1       7.082   5.803  18.330  0.00  0.00    +0.000 C 
ATOM     30  O   UNL     1       7.995   5.109  18.751  0.00  0.00    +0.000 OA
BRANCH  28  31
ATOM     31  O   UNL     1       7.973   6.575  16.164  0.00  0.00    +0.000 OA
ATOM     32  H   UNL     1       8.770   7.135  16.171  0.00  0.00    +0.000 HD
ENDBRANCH  28  31
ENDBRANCH  22  28
ENDBRANCH   1  23
TORSDOF 4
ENDMDL
MODEL 6
REMARK VINA RESULT:      -7.5      1.445      1.825
REMARK  Name = 
REMARK  5 active torsions:
REMARK  status: ('A' for Active; 'I' for Inactive)
REMARK    1  A    between atoms: C_1  and  N_2
REMARK    2  A    between atoms: C_5  and  O_6
REMARK    3  A    between atoms: C_5  and  C_7
REMARK    4  A    between atoms: C_8  and  C_9
REMARK    5  A    between atoms: C_22  and  C_23
REMARK                            x       y       z     vdW  Elec       q    Type
REMARK                         _______ _______ _______ _____ _____    ______ ____
ROOT
ATOM      1  C   UNL     1       1.792   7.474  20.038  0.00  0.00    +0.000 A 
ATOM      2  C   UNL     1       2.776   7.063  19.125  0.00  0.00    +0.000 A 
ATOM      3  C   UNL     1       3.111   5.696  18.969  0.00  0.00    +0.000 A 
ATOM      4  C   UNL     1       2.448   4.742  19.767  0.00  0.00    +0.000 A 
ATOM      5  C   UNL     1       1.490   5.171  20.699  0.00  0.00    +0.000 A 
ATOM      6  C   UNL     1       1.159   6.515  20.820  0.00  0.00    +0.000 A 
ATOM      7  F   UNL     1       0.213   6.866  21.705  0.00  0.00    +0.000 F 
ATOM      8  O   UNL     1       2.640   3.394  19.842  0.00  0.00    +0.000 OA
ATOM      9  C   UNL     1       3.010   2.568  18.735  0.00  0.00    +0.000 C 
ATOM     10  C   UNL     1       2.944   3.143  17.325  0.00  0.00    +0.000 C 
ATOM     11  F   UNL     1       1.697   3.631  17.081  0.00  0.00    +0.000 F 
ATOM     12  C   UNL     1       3.973   4.200  17.189  0.00  0.00    +0.000 A 
ATOM     13  S   UNL     1       5.247   4.081  16.063  0.00  0.00    +0.000 S 
ATOM     14  C   UNL     1       5.891   5.549  16.664  0.00  0.00    +0.000 A 
ATOM     15  N   UNL     1       5.198   6.134  17.631  0.00  0.00    +0.000 NA
ATOM     16  C   UNL     1       4.095   5.342  17.949  0.00  0.00    +0.000 A 
ENDROOT
BRANCH  14  17
ATOM     17  C   UNL     1       7.145   6.070  16.117  0.00  0.00    +0.000 C 
ATOM     18  N   UNL     1       7.683   7.129  16.797  0.00  0.00    +0.000 N 
ATOM     19  O   UNL     1       7.735   5.634  15.127  0.00  0.00    +0.000 OA
ATOM     20  H   UNL     1       7.218   7.497  17.616  0.00  0.00    +0.000 HD
ATOM     21  H   UNL     1       8.555   7.519  16.471  0.00  0.00    +0.000 HD
ENDBRANCH  14  17
BRANCH   1  23
ATOM     22  C   UNL     1       1.075  10.004  20.285  0.00  0.00    +0.000 C 
ATOM     23  C   UNL     1       1.408   8.857  20.143  0.00  0.00    +0.000 C 
BRANCH  22  28
ATOM     24  C   UNL     1       0.106  13.974  17.836  0.00  0.00    +0.000 C 
ATOM     25  N   UNL     1       0.045  12.851  18.742  0.00  0.00    +0.000 N 
ATOM     26  C   UNL     1      -1.096  11.985  18.853  0.00  0.00    +0.000 C 
ATOM     27  C   UNL     1      -0.976  11.425  20.258  0.00  0.00    +0.000 C 
ATOM     28  C   UNL     1       0.535  11.355  20.526  0.00  0.00    +0.000 C 
ATOM     29  C   UNL     1       1.087  12.450  19.575  0.00  0.00    +0.000 C 
ATOM     30  O   UNL     1       2.189  12.973  19.630  0.00  0.00    +0.000 OA
BRANCH  28  31
ATOM     31  O   UNL     1       0.759  11.681  21.894  0.00  0.00    +0.000 OA
ATOM     32  H   UNL     1       0.119  12.380  22.121  0.00  0.00    +0.000 HD
ENDBRANCH  28  31
ENDBRANCH  22  28
ENDBRANCH   1  23
TORSDOF 4
ENDMDL
MODEL 7
REMARK VINA RESULT:      -7.3      3.310      8.565
REMARK  Name = 
REMARK  5 active torsions:
REMARK  status: ('A' for Active; 'I' for Inactive)
REMARK    1  A    between atoms: C_1  and  N_2
REMARK    2  A    between atoms: C_5  and  O_6
REMARK    3  A    between atoms: C_5  and  C_7
REMARK    4  A    between atoms: C_8  and  C_9
REMARK    5  A    between atoms: C_22  and  C_23
REMARK                            x       y       z     vdW  Elec       q    Type
REMARK                         _______ _______ _______ _____ _____    ______ ____
ROOT
ATOM      1  C   UNL     1       2.167   7.883  18.797  0.00  0.00    +0.000 A 
ATOM      2  C   UNL     1       1.144   8.763  18.409  0.00  0.00    +0.000 A 
ATOM      3  C   UNL     1       0.249   9.318  19.357  0.00  0.00    +0.000 A 
ATOM      4  C   UNL     1       0.391   8.955  20.712  0.00  0.00    +0.000 A 
ATOM      5  C   UNL     1       1.397   8.049  21.080  0.00  0.00    +0.000 A 
ATOM      6  C   UNL     1       2.279   7.534  20.138  0.00  0.00    +0.000 A 
ATOM      7  F   UNL     1       3.242   6.697  20.551  0.00  0.00    +0.000 F 
ATOM      8  O   UNL     1      -0.377   9.303  21.784  0.00  0.00    +0.000 OA
ATOM      9  C   UNL     1      -1.023  10.569  21.938  0.00  0.00    +0.000 C 
ATOM     10  C   UNL     1      -0.649  11.713  21.001  0.00  0.00    +0.000 C 
ATOM     11  F   UNL     1       0.696  11.923  21.041  0.00  0.00    +0.000 F 
ATOM     12  C   UNL     1      -1.102  11.379  19.632  0.00  0.00    +0.000 A 
ATOM     13  S   UNL     1      -2.247  12.329  18.802  0.00  0.00    +0.000 S 
ATOM     14  C   UNL     1      -2.208  11.213  17.505  0.00  0.00    +0.000 A 
ATOM     15  N   UNL     1      -1.371  10.194  17.642  0.00  0.00    +0.000 NA
ATOM     16  C   UNL     1      -0.743  10.279  18.884  0.00  0.00    +0.000 A 
ENDROOT
BRANCH  14  17
ATOM     17  C   UNL     1      -3.079  11.414  16.346  0.00  0.00    +0.000 C 
ATOM     18  N   UNL     1      -4.297  11.976  16.623  0.00  0.00    +0.000 N 
ATOM     19  O   UNL     1      -2.804  11.132  15.179  0.00  0.00    +0.000 OA
ATOM     20  H   UNL     1      -4.540  12.221  17.573  0.00  0.00    +0.000 HD
ATOM     21  H   UNL     1      -4.932  12.151  15.858  0.00  0.00    +0.000 HD
ENDBRANCH  14  17
BRANCH   1  23
ATOM     22  C   UNL     1       3.914   6.910  17.072  0.00  0.00    +0.000 C 
ATOM     23  C   UNL     1       3.114   7.378  17.840  0.00  0.00    +0.000 C 
BRANCH  22  28
ATOM     24  C   UNL     1       7.966   4.481  17.685  0.00  0.00    +0.000 C 
ATOM     25  N   UNL     1       6.684   4.949  17.210  0.00  0.00    +0.000 N 
ATOM     26  C   UNL     1       5.557   4.085  16.998  0.00  0.00    +0.000 C 
ATOM     27  C   UNL     1       4.733   4.830  15.964  0.00  0.00    +0.000 C 
ATOM     28  C   UNL     1       4.989   6.317  16.255  0.00  0.00    +0.000 C 
ATOM     29  C   UNL     1       6.378   6.281  16.945  0.00  0.00    +0.000 C 
ATOM     30  O   UNL     1       7.136   7.226  17.102  0.00  0.00    +0.000 OA
BRANCH  28  31
ATOM     31  O   UNL     1       5.032   7.011  15.013  0.00  0.00    +0.000 OA
ATOM     32  H   UNL     1       4.691   6.395  14.339  0.00  0.00    +0.000 HD
ENDBRANCH  28  31
ENDBRANCH  22  28
ENDBRANCH   1  23
TORSDOF 4
ENDMDL
MODEL 8
REMARK VINA RESULT:      -7.0      4.875     10.620
REMARK  Name = 
REMARK  5 active torsions:
REMARK  status: ('A' for Active; 'I' for Inactive)
REMARK    1  A    between atoms: C_1  and  N_2
REMARK    2  A    between atoms: C_5  and  O_6
REMARK    3  A    between atoms: C_5  and  C_7
REMARK    4  A    between atoms: C_8  and  C_9
REMARK    5  A    between atoms: C_22  and  C_23
REMARK                            x       y       z     vdW  Elec       q    Type
REMARK                         _______ _______ _______ _____ _____    ______ ____
ROOT
ATOM      1  C   UNL     1      -2.489  11.095  18.192  0.00  0.00    +0.000 A 
ATOM      2  C   UNL     1      -3.183  11.782  19.202  0.00  0.00    +0.000 A 
ATOM      3  C   UNL     1      -4.523  12.204  19.019  0.00  0.00    +0.000 A 
ATOM      4  C   UNL     1      -5.152  11.939  17.786  0.00  0.00    +0.000 A 
ATOM      5  C   UNL     1      -4.436  11.281  16.775  0.00  0.00    +0.000 A 
ATOM      6  C   UNL     1      -3.130  10.854  16.982  0.00  0.00    +0.000 A 
ATOM      7  F   UNL     1      -2.503  10.202  15.992  0.00  0.00    +0.000 F 
ATOM      8  O   UNL     1      -6.396  12.297  17.357  0.00  0.00    +0.000 OA
ATOM      9  C   UNL     1      -7.546  12.391  18.202  0.00  0.00    +0.000 C 
ATOM     10  C   UNL     1      -7.479  11.820  19.614  0.00  0.00    +0.000 C 
ATOM     11  F   UNL     1      -7.103  10.512  19.567  0.00  0.00    +0.000 F 
ATOM     12  C   UNL     1      -6.529  12.625  20.413  0.00  0.00    +0.000 A 
ATOM     13  S   UNL     1      -7.019  13.485  21.801  0.00  0.00    +0.000 S 
ATOM     14  C   UNL     1      -5.433  14.115  21.948  0.00  0.00    +0.000 A 
ATOM     15  N   UNL     1      -4.558  13.699  21.043  0.00  0.00    +0.000 NA
ATOM     16  C   UNL     1      -5.198  12.850  20.141  0.00  0.00    +0.000 A 
ENDROOT
BRANCH  14  17
ATOM     17  C   UNL     1      -5.126  15.064  23.019  0.00  0.00    +0.000 C 
ATOM     18  N   UNL     1      -5.959  15.010  24.104  0.00  0.00    +0.000 N 
ATOM     19  O   UNL     1      -4.198  15.876  23.018  0.00  0.00    +0.000 OA
ATOM     20  H   UNL     1      -6.721  14.347  24.128  0.00  0.00    +0.000 HD
ATOM     21  H   UNL     1      -5.783  15.634  24.878  0.00  0.00    +0.000 HD
ENDBRANCH  14  17
BRANCH   1  23
ATOM     22  C   UNL     1      -0.039  10.218  18.643  0.00  0.00    +0.000 C 
ATOM     23  C   UNL     1      -1.153  10.609  18.409  0.00  0.00    +0.000 C 
BRANCH  22  28
ATOM     24  C   UNL     1       2.555   6.376  19.741  0.00  0.00    +0.000 C 
ATOM     25  N   UNL     1       2.089   7.627  19.187  0.00  0.00    +0.000 N 
ATOM     26  C   UNL     1       2.142   7.939  17.787  0.00  0.00    +0.000 C 
ATOM     27  C   UNL     1       2.169   9.457  17.767  0.00  0.00    +0.000 C 
ATOM     28  C   UNL     1       1.352   9.880  18.997  0.00  0.00    +0.000 C 
ATOM     29  C   UNL     1       1.500   8.648  19.928  0.00  0.00    +0.000 C 
ATOM     30  O   UNL     1       1.276   8.613  21.128  0.00  0.00    +0.000 OA
BRANCH  28  31
ATOM     31  O   UNL     1       1.959  11.041  19.555  0.00  0.00    +0.000 OA
ATOM     32  H   UNL     1       1.372  11.344  20.272  0.00  0.00    +0.000 HD
ENDBRANCH  28  31
ENDBRANCH  22  28
ENDBRANCH   1  23
TORSDOF 4
ENDMDL
MODEL 9
REMARK VINA RESULT:      -6.6      3.040      8.198
REMARK  Name = 
REMARK  5 active torsions:
REMARK  status: ('A' for Active; 'I' for Inactive)
REMARK    1  A    between atoms: C_1  and  N_2
REMARK    2  A    between atoms: C_5  and  O_6
REMARK    3  A    between atoms: C_5  and  C_7
REMARK    4  A    between atoms: C_8  and  C_9
REMARK    5  A    between atoms: C_22  and  C_23
REMARK                            x       y       z     vdW  Elec       q    Type
REMARK                         _______ _______ _______ _____ _____    ______ ____
ROOT
ATOM      1  C   UNL     1       2.879   6.467  19.350  0.00  0.00    +0.000 A 
ATOM      2  C   UNL     1       2.540   7.829  19.331  0.00  0.00    +0.000 A 
ATOM      3  C   UNL     1       1.461   8.331  20.100  0.00  0.00    +0.000 A 
ATOM      4  C   UNL     1       0.711   7.428  20.881  0.00  0.00    +0.000 A 
ATOM      5  C   UNL     1       1.041   6.064  20.864  0.00  0.00    +0.000 A 
ATOM      6  C   UNL     1       2.119   5.596  20.122  0.00  0.00    +0.000 A 
ATOM      7  F   UNL     1       2.409   4.287  20.168  0.00  0.00    +0.000 F 
ATOM      8  O   UNL     1      -0.395   7.660  21.644  0.00  0.00    +0.000 OA
ATOM      9  C   UNL     1      -0.639   8.868  22.369  0.00  0.00    +0.000 C 
ATOM     10  C   UNL     1       0.493   9.877  22.532  0.00  0.00    +0.000 C 
ATOM     11  F   UNL     1       1.577   9.270  23.088  0.00  0.00    +0.000 F 
ATOM     12  C   UNL     1       0.817  10.453  21.208  0.00  0.00    +0.000 A 
ATOM     13  S   UNL     1       0.649  12.118  20.882  0.00  0.00    +0.000 S 
ATOM     14  C   UNL     1       1.103  11.827  19.257  0.00  0.00    +0.000 A 
ATOM     15  N   UNL     1       1.399  10.570  18.953  0.00  0.00    +0.000 NA
ATOM     16  C   UNL     1       1.215   9.770  20.080  0.00  0.00    +0.000 A 
ENDROOT
BRANCH  14  17
ATOM     17  C   UNL     1       1.128  12.934  18.300  0.00  0.00    +0.000 C 
ATOM     18  N   UNL     1       2.232  12.982  17.492  0.00  0.00    +0.000 N 
ATOM     19  O   UNL     1       0.254  13.793  18.168  0.00  0.00    +0.000 OA
ATOM     20  H   UNL     1       2.957  12.284  17.579  0.00  0.00    +0.000 HD
ATOM     21  H   UNL     1       2.294  13.718  16.804  0.00  0.00    +0.000 HD
ENDBRANCH  14  17
BRANCH   1  23
ATOM     22  C   UNL     1       4.941   5.517  18.001  0.00  0.00    +0.000 C 
ATOM     23  C   UNL     1       4.018   5.975  18.621  0.00  0.00    +0.000 C 
BRANCH  22  28
ATOM     24  C   UNL     1       6.044   3.849  13.677  0.00  0.00    +0.000 C 
ATOM     25  N   UNL     1       6.086   4.485  14.973  0.00  0.00    +0.000 N 
ATOM     26  C   UNL     1       6.569   5.821  15.182  0.00  0.00    +0.000 C 
ATOM     27  C   UNL     1       7.008   5.812  16.635  0.00  0.00    +0.000 C 
ATOM     28  C   UNL     1       6.056   4.825  17.327  0.00  0.00    +0.000 C 
ATOM     29  C   UNL     1       5.629   3.905  16.154  0.00  0.00    +0.000 C 
ATOM     30  O   UNL     1       5.112   2.802  16.246  0.00  0.00    +0.000 OA
BRANCH  28  31
ATOM     31  O   UNL     1       6.795   4.115  18.315  0.00  0.00    +0.000 OA
ATOM     32  H   UNL     1       7.503   4.713  18.616  0.00  0.00    +0.000 HD
ENDBRANCH  28  31
ENDBRANCH  22  28
ENDBRANCH   1  23
TORSDOF 4
ENDMDL
