MODEL 1
REMARK VINA RESULT:      -6.6      0.000      0.000
REMARK  Name = 
REMARK  8 active torsions:
REMARK  status: ('A' for Active; 'I' for Inactive)
REMARK    1  A    between atoms: C_1  and  C_2
REMARK    2  A    between atoms: C_2  and  C_3
REMARK    3  A    between atoms: C_3  and  C_4
REMARK    4  A    between atoms: C_4  and  C_5
REMARK    5  A    between atoms: C_5  and  S_6
REMARK    6  A    between atoms: S_6  and  C_8
REMARK    7  A    between atoms: C_22  and  C_23
REMARK    8  A    between atoms: C_28  and  C_29
REMARK                            x       y       z     vdW  Elec       q    Type
REMARK                         _______ _______ _______ _____ _____    ______ ____
ROOT
ATOM      1  C   UNL     1      -0.227  11.688  18.771  0.00  0.00    +0.000 C 
ATOM      2 CL   UNL     1      -0.438  13.377  18.119  0.00  0.00    +0.000 Cl
ATOM      3  C   UNL     1      -0.946  10.727  17.818  0.00  0.00    +0.000 C 
ATOM      4  C   UNL     1      -2.423  11.035  18.065  0.00  0.00    +0.000 C 
ATOM      5  C   UNL     1      -2.516  11.398  19.562  0.00  0.00    +0.000 C 
ATOM      6  C   UNL     1      -3.422  12.599  19.920  0.00  0.00    +0.000 C 
ATOM      7  C   UNL     1      -4.846  12.308  19.454  0.00  0.00    +0.000 C 
ATOM      8  C   UNL     1      -5.818  13.123  20.258  0.00  0.00    +0.000 C 
ATOM      9  C   UNL     1      -5.688  12.790  21.727  0.00  0.00    +0.000 C 
ATOM     10  C   UNL     1      -6.813  12.595  22.437  0.00  0.00    +0.000 C 
ATOM     11  C   UNL     1      -6.855  13.442  23.662  0.00  0.00    +0.000 C 
ATOM     12  O   UNL     1      -7.577  13.168  24.609  0.00  0.00    +0.000 OA
ATOM     13  C   UNL     1      -6.016  14.702  23.581  0.00  0.00    +0.000 C 
ATOM     14  C   UNL     1      -4.843  14.658  22.896  0.00  0.00    +0.000 C 
ATOM     15  C   UNL     1      -4.409  13.277  22.402  0.00  0.00    +0.000 C 
ATOM     16  C   UNL     1      -3.958  12.615  23.776  0.00  0.00    +0.000 C 
ATOM     17  C   UNL     1      -3.259  12.805  21.450  0.00  0.00    +0.000 C 
ATOM     18  C   UNL     1      -1.917  13.460  21.622  0.00  0.00    +0.000 C 
ATOM     19  O   UNL     1      -1.770  14.566  22.131  0.00  0.00    +0.000 OA
ATOM     20  C   UNL     1      -0.733  12.643  21.143  0.00  0.00    +0.000 C 
ATOM     21  C   UNL     1      -1.044  11.513  20.103  0.00  0.00    +0.000 C 
ATOM     22  C   UNL     1      -0.774  10.146  20.819  0.00  0.00    +0.000 C 
ENDROOT
BRANCH   1  23
ATOM     23  S   UNL     1       1.532  11.266  19.011  0.00  0.00    +0.000 S 
ATOM     24  O   UNL     1       2.410  12.435  18.439  0.00  0.00    +0.000 OA
BRANCH  23  25
ATOM     25  C   UNL     1       1.656   9.853  17.892  0.00  0.00    +0.000 C 
BRANCH  25  26
ATOM     26  C   UNL     1       1.948   8.599  18.700  0.00  0.00    +0.000 C 
BRANCH  26  27
ATOM     27  C   UNL     1       2.850   7.656  17.919  0.00  0.00    +0.000 C 
BRANCH  27  29
ATOM     28  C   UNL     1       3.561   5.266  17.717  0.00  0.00    +0.000 C 
ATOM     29  C   UNL     1       2.474   6.206  18.198  0.00  0.00    +0.000 C 
ENDBRANCH  27  29
ENDBRANCH  26  27
ENDBRANCH  25  26
ENDBRANCH  23  25
ENDBRANCH   1  23
TORSDOF 5
ENDMDL
MODEL 2
REMARK VINA RESULT:      -6.0      2.383      3.532
REMARK  Name = 
REMARK  8 active torsions:
REMARK  status: ('A' for Active; 'I' for Inactive)
REMARK    1  A    between atoms: C_1  and  C_2
REMARK    2  A    between atoms: C_2  and  C_3
REMARK    3  A    between atoms: C_3  and  C_4
REMARK    4  A    between atoms: C_4  and  C_5
REMARK    5  A    between atoms: C_5  and  S_6
REMARK    6  A    between atoms: S_6  and  C_8
REMARK    7  A    between atoms: C_22  and  C_23
REMARK    8  A    between atoms: C_28  and  C_29
REMARK                            x       y       z     vdW  Elec       q    Type
REMARK                         _______ _______ _______ _____ _____    ______ ____
ROOT
ATOM      1  C   UNL     1      -0.079  12.491  19.498  0.00  0.00    +0.000 C 
ATOM      2 CL   UNL     1      -0.398  14.149  18.811  0.00  0.00    +0.000 Cl
ATOM      3  C   UNL     1      -0.640  11.462  18.511  0.00  0.00    +0.000 C 
ATOM      4  C   UNL     1      -2.153  11.634  18.654  0.00  0.00    +0.000 C 
ATOM      5  C   UNL     1      -2.381  11.998  20.136  0.00  0.00    +0.000 C 
ATOM      6  C   UNL     1      -3.414  13.114  20.416  0.00  0.00    +0.000 C 
ATOM      7  C   UNL     1      -4.771  12.690  19.858  0.00  0.00    +0.000 C 
ATOM      8  C   UNL     1      -5.866  13.418  20.584  0.00  0.00    +0.000 C 
ATOM      9  C   UNL     1      -5.807  13.108  22.063  0.00  0.00    +0.000 C 
ATOM     10  C   UNL     1      -6.955  12.816  22.698  0.00  0.00    +0.000 C 
ATOM     11  C   UNL     1      -7.158  13.664  23.906  0.00  0.00    +0.000 C 
ATOM     12  O   UNL     1      -7.916  13.332  24.805  0.00  0.00    +0.000 OA
ATOM     13  C   UNL     1      -6.434  14.995  23.865  0.00  0.00    +0.000 C 
ATOM     14  C   UNL     1      -5.218  15.055  23.262  0.00  0.00    +0.000 C 
ATOM     15  C   UNL     1      -4.627  13.715  22.816  0.00  0.00    +0.000 C 
ATOM     16  C   UNL     1      -4.213  13.108  24.226  0.00  0.00    +0.000 C 
ATOM     17  C   UNL     1      -3.376  13.344  21.951  0.00  0.00    +0.000 C 
ATOM     18  C   UNL     1      -2.114  14.121  22.205  0.00  0.00    +0.000 C 
ATOM     19  O   UNL     1      -2.104  15.239  22.707  0.00  0.00    +0.000 OA
ATOM     20  C   UNL     1      -0.831  13.412  21.817  0.00  0.00    +0.000 C 
ATOM     21  C   UNL     1      -0.966  12.251  20.773  0.00  0.00    +0.000 C 
ATOM     22  C   UNL     1      -0.622  10.920  21.524  0.00  0.00    +0.000 C 
ENDROOT
BRANCH   1  23
ATOM     23  S   UNL     1       1.690  12.234  19.862  0.00  0.00    +0.000 S 
ATOM     24  O   UNL     1       2.127  13.253  20.974  0.00  0.00    +0.000 OA
BRANCH  23  25
ATOM     25  C   UNL     1       2.399  12.763  18.286  0.00  0.00    +0.000 C 
BRANCH  25  26
ATOM     26  C   UNL     1       3.465  13.816  18.546  0.00  0.00    +0.000 C 
BRANCH  26  27
ATOM     27  C   UNL     1       3.107  15.122  17.855  0.00  0.00    +0.000 C 
BRANCH  27  29
ATOM     28  C   UNL     1       1.724  17.040  18.676  0.00  0.00    +0.000 C 
ATOM     29  C   UNL     1       3.004  16.253  18.872  0.00  0.00    +0.000 C 
ENDBRANCH  27  29
ENDBRANCH  26  27
ENDBRANCH  25  26
ENDBRANCH  23  25
ENDBRANCH   1  23
TORSDOF 5
ENDMDL
MODEL 3
REMARK VINA RESULT:      -5.6      2.622      3.595
REMARK  Name = 
REMARK  8 active torsions:
REMARK  status: ('A' for Active; 'I' for Inactive)
REMARK    1  A    between atoms: C_1  and  C_2
REMARK    2  A    between atoms: C_2  and  C_3
REMARK    3  A    between atoms: C_3  and  C_4
REMARK    4  A    between atoms: C_4  and  C_5
REMARK    5  A    between atoms: C_5  and  S_6
REMARK    6  A    between atoms: S_6  and  C_8
REMARK    7  A    between atoms: C_22  and  C_23
REMARK    8  A    between atoms: C_28  and  C_29
REMARK                            x       y       z     vdW  Elec       q    Type
REMARK                         _______ _______ _______ _____ _____    ______ ____
ROOT
ATOM      1  C   UNL     1       0.113  12.898  19.513  0.00  0.00    +0.000 C 
ATOM      2 CL   UNL     1      -0.381  14.460  18.714  0.00  0.00    +0.000 Cl
ATOM      3  C   UNL     1      -0.294  11.751  18.582  0.00  0.00    +0.000 C 
ATOM      4  C   UNL     1      -1.820  11.748  18.682  0.00  0.00    +0.000 C 
ATOM      5  C   UNL     1      -2.131  12.171  20.133  0.00  0.00    +0.000 C 
ATOM      6  C   UNL     1      -3.297  13.170  20.320  0.00  0.00    +0.000 C 
ATOM      7  C   UNL     1      -4.578  12.552  19.763  0.00  0.00    +0.000 C 
ATOM      8  C   UNL     1      -5.771  13.186  20.419  0.00  0.00    +0.000 C 
ATOM      9  C   UNL     1      -5.717  12.976  21.915  0.00  0.00    +0.000 C 
ATOM     10  C   UNL     1      -6.840  12.587  22.543  0.00  0.00    +0.000 C 
ATOM     11  C   UNL     1      -7.176  13.476  23.691  0.00  0.00    +0.000 C 
ATOM     12  O   UNL     1      -7.913  13.111  24.594  0.00  0.00    +0.000 OA
ATOM     13  C   UNL     1      -6.614  14.880  23.581  0.00  0.00    +0.000 C 
ATOM     14  C   UNL     1      -5.397  15.048  22.999  0.00  0.00    +0.000 C 
ATOM     15  C   UNL     1      -4.639  13.765  22.652  0.00  0.00    +0.000 C 
ATOM     16  C   UNL     1      -4.195  13.299  24.106  0.00  0.00    +0.000 C 
ATOM     17  C   UNL     1      -3.329  13.495  21.838  0.00  0.00    +0.000 C 
ATOM     18  C   UNL     1      -2.176  14.433  22.067  0.00  0.00    +0.000 C 
ATOM     19  O   UNL     1      -2.313  15.572  22.498  0.00  0.00    +0.000 OA
ATOM     20  C   UNL     1      -0.808  13.861  21.752  0.00  0.00    +0.000 C 
ATOM     21  C   UNL     1      -0.774  12.631  20.782  0.00  0.00    +0.000 C 
ATOM     22  C   UNL     1      -0.296  11.399  21.623  0.00  0.00    +0.000 C 
ENDROOT
BRANCH   1  23
ATOM     23  S   UNL     1       1.889  12.878  19.928  0.00  0.00    +0.000 S 
ATOM     24  O   UNL     1       2.193  14.080  20.891  0.00  0.00    +0.000 OA
BRANCH  23  25
ATOM     25  C   UNL     1       2.581  13.256  18.301  0.00  0.00    +0.000 C 
BRANCH  25  26
ATOM     26  C   UNL     1       3.068  14.696  18.288  0.00  0.00    +0.000 C 
BRANCH  26  27
ATOM     27  C   UNL     1       4.587  14.747  18.237  0.00  0.00    +0.000 C 
BRANCH  27  29
ATOM     28  C   UNL     1       5.832  16.846  18.791  0.00  0.00    +0.000 C 
ATOM     29  C   UNL     1       5.128  15.629  19.357  0.00  0.00    +0.000 C 
ENDBRANCH  27  29
ENDBRANCH  26  27
ENDBRANCH  25  26
ENDBRANCH  23  25
ENDBRANCH   1  23
TORSDOF 5
ENDMDL
MODEL 4
REMARK VINA RESULT:      -5.5      6.942     11.163
REMARK  Name = 
REMARK  8 active torsions:
REMARK  status: ('A' for Active; 'I' for Inactive)
REMARK    1  A    between atoms: C_1  and  C_2
REMARK    2  A    between atoms: C_2  and  C_3
REMARK    3  A    between atoms: C_3  and  C_4
REMARK    4  A    between atoms: C_4  and  C_5
REMARK    5  A    between atoms: C_5  and  S_6
REMARK    6  A    between atoms: S_6  and  C_8
REMARK    7  A    between atoms: C_22  and  C_23
REMARK    8  A    between atoms: C_28  and  C_29
REMARK                            x       y       z     vdW  Elec       q    Type
REMARK                         _______ _______ _______ _____ _____    ______ ____
ROOT
ATOM      1  C   UNL     1       3.339  16.305  20.117  0.00  0.00    +0.000 C 
ATOM      2 CL   UNL     1       4.228  17.729  20.829  0.00  0.00    +0.000 Cl
ATOM      3  C   UNL     1       2.739  15.504  21.277  0.00  0.00    +0.000 C 
ATOM      4  C   UNL     1       3.968  14.878  21.939  0.00  0.00    +0.000 C 
ATOM      5  C   UNL     1       4.952  14.600  20.783  0.00  0.00    +0.000 C 
ATOM      6  C   UNL     1       6.437  14.933  21.054  0.00  0.00    +0.000 C 
ATOM      7  C   UNL     1       6.924  14.112  22.246  0.00  0.00    +0.000 C 
ATOM      8  C   UNL     1       8.416  13.958  22.177  0.00  0.00    +0.000 C 
ATOM      9  C   UNL     1       8.811  13.266  20.892  0.00  0.00    +0.000 C 
ATOM     10  C   UNL     1       9.719  12.278  20.954  0.00  0.00    +0.000 C 
ATOM     11  C   UNL     1      10.849  12.496  20.007  0.00  0.00    +0.000 C 
ATOM     12  O   UNL     1      11.568  11.578  19.642  0.00  0.00    +0.000 OA
ATOM     13  C   UNL     1      11.081  13.946  19.632  0.00  0.00    +0.000 C 
ATOM     14  C   UNL     1      10.004  14.766  19.514  0.00  0.00    +0.000 C 
ATOM     15  C   UNL     1       8.635  14.091  19.620  0.00  0.00    +0.000 C 
ATOM     16  C   UNL     1       8.579  13.346  18.216  0.00  0.00    +0.000 C 
ATOM     17  C   UNL     1       7.178  14.656  19.717  0.00  0.00    +0.000 C 
ATOM     18  C   UNL     1       6.835  15.817  18.825  0.00  0.00    +0.000 C 
ATOM     19  O   UNL     1       7.675  16.580  18.363  0.00  0.00    +0.000 OA
ATOM     20  C   UNL     1       5.360  15.971  18.506  0.00  0.00    +0.000 C 
ATOM     21  C   UNL     1       4.359  15.284  19.496  0.00  0.00    +0.000 C 
ATOM     22  C   UNL     1       3.666  14.119  18.710  0.00  0.00    +0.000 C 
ENDROOT
BRANCH   1  23
ATOM     23  S   UNL     1       2.091  16.826  18.893  0.00  0.00    +0.000 S 
ATOM     24  O   UNL     1       1.961  18.390  18.943  0.00  0.00    +0.000 OA
BRANCH  23  25
ATOM     25  C   UNL     1       0.615  16.102  19.645  0.00  0.00    +0.000 C 
BRANCH  25  26
ATOM     26  C   UNL     1      -0.043  15.162  18.647  0.00  0.00    +0.000 C 
BRANCH  26  27
ATOM     27  C   UNL     1       0.024  13.725  19.142  0.00  0.00    +0.000 C 
BRANCH  27  29
ATOM     28  C   UNL     1      -0.775  11.386  18.752  0.00  0.00    +0.000 C 
ATOM     29  C   UNL     1      -0.821  12.817  18.255  0.00  0.00    +0.000 C 
ENDBRANCH  27  29
ENDBRANCH  26  27
ENDBRANCH  25  26
ENDBRANCH  23  25
ENDBRANCH   1  23
TORSDOF 5
ENDMDL
MODEL 5
REMARK VINA RESULT:      -5.5      1.920      2.390
REMARK  Name = 
REMARK  8 active torsions:
REMARK  status: ('A' for Active; 'I' for Inactive)
REMARK    1  A    between atoms: C_1  and  C_2
REMARK    2  A    between atoms: C_2  and  C_3
REMARK    3  A    between atoms: C_3  and  C_4
REMARK    4  A    between atoms: C_4  and  C_5
REMARK    5  A    between atoms: C_5  and  S_6
REMARK    6  A    between atoms: S_6  and  C_8
REMARK    7  A    between atoms: C_22  and  C_23
REMARK    8  A    between atoms: C_28  and  C_29
REMARK                            x       y       z     vdW  Elec       q    Type
REMARK                         _______ _______ _______ _____ _____    ______ ____
ROOT
ATOM      1  C   UNL     1      -0.173  11.872  19.142  0.00  0.00    +0.000 C 
ATOM      2 CL   UNL     1      -0.286  13.271  17.978  0.00  0.00    +0.000 Cl
ATOM      3  C   UNL     1      -1.334  10.919  18.838  0.00  0.00    +0.000 C 
ATOM      4  C   UNL     1      -2.559  11.699  19.317  0.00  0.00    +0.000 C 
ATOM      5  C   UNL     1      -2.071  12.508  20.537  0.00  0.00    +0.000 C 
ATOM      6  C   UNL     1      -2.569  13.968  20.633  0.00  0.00    +0.000 C 
ATOM      7  C   UNL     1      -4.095  13.973  20.690  0.00  0.00    +0.000 C 
ATOM      8  C   UNL     1      -4.573  15.237  21.346  0.00  0.00    +0.000 C 
ATOM      9  C   UNL     1      -4.014  15.341  22.747  0.00  0.00    +0.000 C 
ATOM     10  C   UNL     1      -4.847  15.702  23.739  0.00  0.00    +0.000 C 
ATOM     11  C   UNL     1      -4.317  16.854  24.522  0.00  0.00    +0.000 C 
ATOM     12  O   UNL     1      -4.712  17.099  25.651  0.00  0.00    +0.000 OA
ATOM     13  C   UNL     1      -3.343  17.733  23.762  0.00  0.00    +0.000 C 
ATOM     14  C   UNL     1      -2.501  17.148  22.870  0.00  0.00    +0.000 C 
ATOM     15  C   UNL     1      -2.516  15.618  22.840  0.00  0.00    +0.000 C 
ATOM     16  C   UNL     1      -1.753  15.303  24.199  0.00  0.00    +0.000 C 
ATOM     17  C   UNL     1      -1.862  14.570  21.878  0.00  0.00    +0.000 C 
ATOM     18  C   UNL     1      -0.447  14.832  21.443  0.00  0.00    +0.000 C 
ATOM     19  O   UNL     1       0.060  15.948  21.443  0.00  0.00    +0.000 OA
ATOM     20  C   UNL     1       0.336  13.603  21.023  0.00  0.00    +0.000 C 
ATOM     21  C   UNL     1      -0.507  12.351  20.601  0.00  0.00    +0.000 C 
ATOM     22  C   UNL     1      -0.261  11.248  21.686  0.00  0.00    +0.000 C 
ENDROOT
BRANCH   1  23
ATOM     23  S   UNL     1       1.456  11.055  19.068  0.00  0.00    +0.000 S 
ATOM     24  O   UNL     1       2.416  11.929  18.185  0.00  0.00    +0.000 OA
BRANCH  23  25
ATOM     25  C   UNL     1       1.005   9.574  18.134  0.00  0.00    +0.000 C 
BRANCH  25  26
ATOM     26  C   UNL     1       2.263   8.785  17.813  0.00  0.00    +0.000 C 
BRANCH  26  27
ATOM     27  C   UNL     1       2.417   7.611  18.768  0.00  0.00    +0.000 C 
BRANCH  27  29
ATOM     28  C   UNL     1       2.126   5.222  18.081  0.00  0.00    +0.000 C 
ATOM     29  C   UNL     1       3.051   6.423  18.053  0.00  0.00    +0.000 C 
ENDBRANCH  27  29
ENDBRANCH  26  27
ENDBRANCH  25  26
ENDBRANCH  23  25
ENDBRANCH   1  23
TORSDOF 5
ENDMDL
MODEL 6
REMARK VINA RESULT:      -5.5      7.504      9.165
REMARK  Name = 
REMARK  8 active torsions:
REMARK  status: ('A' for Active; 'I' for Inactive)
REMARK    1  A    between atoms: C_1  and  C_2
REMARK    2  A    between atoms: C_2  and  C_3
REMARK    3  A    between atoms: C_3  and  C_4
REMARK    4  A    between atoms: C_4  and  C_5
REMARK    5  A    between atoms: C_5  and  S_6
REMARK    6  A    between atoms: S_6  and  C_8
REMARK    7  A    between atoms: C_22  and  C_23
REMARK    8  A    between atoms: C_28  and  C_29
REMARK                            x       y       z     vdW  Elec       q    Type
REMARK                         _______ _______ _______ _____ _____    ______ ____
ROOT
ATOM      1  C   UNL     1       8.524  15.622  18.997  0.00  0.00    +0.000 C 
ATOM      2 CL   UNL     1       8.446  17.171  18.039  0.00  0.00    +0.000 Cl
ATOM      3  C   UNL     1       8.330  14.459  18.018  0.00  0.00    +0.000 C 
ATOM      4  C   UNL     1       6.856  14.576  17.628  0.00  0.00    +0.000 C 
ATOM      5  C   UNL     1       6.144  15.100  18.893  0.00  0.00    +0.000 C 
ATOM      6  C   UNL     1       5.071  16.191  18.671  0.00  0.00    +0.000 C 
ATOM      7  C   UNL     1       3.981  15.642  17.754  0.00  0.00    +0.000 C 
ATOM      8  C   UNL     1       2.703  16.398  17.979  0.00  0.00    +0.000 C 
ATOM      9  C   UNL     1       2.266  16.267  19.420  0.00  0.00    +0.000 C 
ATOM     10  C   UNL     1       0.972  15.998  19.670  0.00  0.00    +0.000 C 
ATOM     11  C   UNL     1       0.373  16.971  20.626  0.00  0.00    +0.000 C 
ATOM     12  O   UNL     1      -0.640  16.712  21.258  0.00  0.00    +0.000 OA
ATOM     13  C   UNL     1       1.062  18.321  20.660  0.00  0.00    +0.000 C 
ATOM     14  C   UNL     1       2.410  18.366  20.490  0.00  0.00    +0.000 C 
ATOM     15  C   UNL     1       3.123  17.012  20.439  0.00  0.00    +0.000 C 
ATOM     16  C   UNL     1       3.044  16.595  21.971  0.00  0.00    +0.000 C 
ATOM     17  C   UNL     1       4.593  16.601  20.091  0.00  0.00    +0.000 C 
ATOM     18  C   UNL     1       5.693  17.461  20.648  0.00  0.00    +0.000 C 
ATOM     19  O   UNL     1       5.529  18.630  20.980  0.00  0.00    +0.000 OA
ATOM     20  C   UNL     1       7.035  16.772  20.800  0.00  0.00    +0.000 C 
ATOM     21  C   UNL     1       7.263  15.492  19.925  0.00  0.00    +0.000 C 
ATOM     22  C   UNL     1       7.342  14.275  20.909  0.00  0.00    +0.000 C 
ENDROOT
BRANCH   1  23
ATOM     23  S   UNL     1      10.071  15.492  19.955  0.00  0.00    +0.000 S 
ATOM     24  O   UNL     1      10.945  16.766  19.671  0.00  0.00    +0.000 OA
BRANCH  23  25
ATOM     25  C   UNL     1      10.825  14.079  19.117  0.00  0.00    +0.000 C 
BRANCH  25  26
ATOM     26  C   UNL     1      11.503  13.192  20.148  0.00  0.00    +0.000 C 
BRANCH  26  27
ATOM     27  C   UNL     1      10.713  11.909  20.353  0.00  0.00    +0.000 C 
BRANCH  27  29
ATOM     28  C   UNL     1       9.269  10.194  19.240  0.00  0.00    +0.000 C 
ATOM     29  C   UNL     1      10.014  11.501  19.060  0.00  0.00    +0.000 C 
ENDBRANCH  27  29
ENDBRANCH  26  27
ENDBRANCH  25  26
ENDBRANCH  23  25
ENDBRANCH   1  23
TORSDOF 5
ENDMDL
MODEL 7
REMARK VINA RESULT:      -5.4      2.256      3.272
REMARK  Name = 
REMARK  8 active torsions:
REMARK  status: ('A' for Active; 'I' for Inactive)
REMARK    1  A    between atoms: C_1  and  C_2
REMARK    2  A    between atoms: C_2  and  C_3
REMARK    3  A    between atoms: C_3  and  C_4
REMARK    4  A    between atoms: C_4  and  C_5
REMARK    5  A    between atoms: C_5  and  S_6
REMARK    6  A    between atoms: S_6  and  C_8
REMARK    7  A    between atoms: C_22  and  C_23
REMARK    8  A    between atoms: C_28  and  C_29
REMARK                            x       y       z     vdW  Elec       q    Type
REMARK                         _______ _______ _______ _____ _____    ______ ____
ROOT
ATOM      1  C   UNL     1       0.462   9.634  20.366  0.00  0.00    +0.000 C 
ATOM      2 CL   UNL     1      -1.050   8.625  20.234  0.00  0.00    +0.000 Cl
ATOM      3  C   UNL     1       1.101   9.340  21.727  0.00  0.00    +0.000 C 
ATOM      4  C   UNL     1       0.134   9.995  22.714  0.00  0.00    +0.000 C 
ATOM      5  C   UNL     1      -0.408  11.241  21.982  0.00  0.00    +0.000 C 
ATOM      6  C   UNL     1      -1.921  11.519  22.133  0.00  0.00    +0.000 C 
ATOM      7  C   UNL     1      -2.250  11.707  23.613  0.00  0.00    +0.000 C 
ATOM      8  C   UNL     1      -3.505  12.520  23.753  0.00  0.00    +0.000 C 
ATOM      9  C   UNL     1      -3.326  13.872  23.099  0.00  0.00    +0.000 C 
ATOM     10  C   UNL     1      -3.745  14.961  23.766  0.00  0.00    +0.000 C 
ATOM     11  C   UNL     1      -4.659  15.803  22.944  0.00  0.00    +0.000 C 
ATOM     12  O   UNL     1      -4.855  16.981  23.203  0.00  0.00    +0.000 OA
ATOM     13  C   UNL     1      -5.386  15.051  21.847  0.00  0.00    +0.000 C 
ATOM     14  C   UNL     1      -4.738  14.038  21.215  0.00  0.00    +0.000 C 
ATOM     15  C   UNL     1      -3.260  13.862  21.575  0.00  0.00    +0.000 C 
ATOM     16  C   UNL     1      -2.636  15.114  20.819  0.00  0.00    +0.000 C 
ATOM     17  C   UNL     1      -2.211  12.752  21.233  0.00  0.00    +0.000 C 
ATOM     18  C   UNL     1      -2.207  12.225  19.825  0.00  0.00    +0.000 C 
ATOM     19  O   UNL     1      -3.180  12.288  19.082  0.00  0.00    +0.000 OA
ATOM     20  C   UNL     1      -0.893  11.623  19.366  0.00  0.00    +0.000 C 
ATOM     21  C   UNL     1       0.090  11.156  20.493  0.00  0.00    +0.000 C 
ATOM     22  C   UNL     1       1.336  12.104  20.434  0.00  0.00    +0.000 C 
ENDROOT
BRANCH   1  23
ATOM     23  S   UNL     1       1.599   9.343  18.970  0.00  0.00    +0.000 S 
ATOM     24  O   UNL     1       0.758   9.258  17.647  0.00  0.00    +0.000 OA
BRANCH  23  25
ATOM     25  C   UNL     1       2.173   7.682  19.393  0.00  0.00    +0.000 C 
BRANCH  25  26
ATOM     26  C   UNL     1       2.902   7.086  18.200  0.00  0.00    +0.000 C 
BRANCH  26  27
ATOM     27  C   UNL     1       3.063   5.583  18.368  0.00  0.00    +0.000 C 
BRANCH  27  29
ATOM     28  C   UNL     1       1.833   3.405  18.276  0.00  0.00    +0.000 C 
ATOM     29  C   UNL     1       1.840   4.852  17.825  0.00  0.00    +0.000 C 
ENDBRANCH  27  29
ENDBRANCH  26  27
ENDBRANCH  25  26
ENDBRANCH  23  25
ENDBRANCH   1  23
TORSDOF 5
ENDMDL
MODEL 8
REMARK VINA RESULT:      -5.4      4.271      8.289
REMARK  Name = 
REMARK  8 active torsions:
REMARK  status: ('A' for Active; 'I' for Inactive)
REMARK    1  A    between atoms: C_1  and  C_2
REMARK    2  A    between atoms: C_2  and  C_3
REMARK    3  A    between atoms: C_3  and  C_4
REMARK    4  A    between atoms: C_4  and  C_5
REMARK    5  A    between atoms: C_5  and  S_6
REMARK    6  A    between atoms: S_6  and  C_8
REMARK    7  A    between atoms: C_22  and  C_23
REMARK    8  A    between atoms: C_28  and  C_29
REMARK                            x       y       z     vdW  Elec       q    Type
REMARK                         _______ _______ _______ _____ _____    ______ ____
ROOT
ATOM      1  C   UNL     1      -3.354  14.151  22.428  0.00  0.00    +0.000 C 
ATOM      2 CL   UNL     1      -3.379  12.913  21.091  0.00  0.00    +0.000 Cl
ATOM      3  C   UNL     1      -4.180  15.355  21.963  0.00  0.00    +0.000 C 
ATOM      4  C   UNL     1      -3.305  15.974  20.871  0.00  0.00    +0.000 C 
ATOM      5  C   UNL     1      -1.852  15.728  21.329  0.00  0.00    +0.000 C 
ATOM      6  C   UNL     1      -0.855  15.288  20.233  0.00  0.00    +0.000 C 
ATOM      7  C   UNL     1      -0.794  16.364  19.151  0.00  0.00    +0.000 C 
ATOM      8  C   UNL     1       0.515  16.272  18.420  0.00  0.00    +0.000 C 
ATOM      9  C   UNL     1       1.665  16.458  19.385  0.00  0.00    +0.000 C 
ATOM     10  C   UNL     1       2.670  17.275  19.025  0.00  0.00    +0.000 C 
ATOM     11  C   UNL     1       3.999  16.609  19.138  0.00  0.00    +0.000 C 
ATOM     12  O   UNL     1       5.035  17.250  19.218  0.00  0.00    +0.000 OA
ATOM     13  C   UNL     1       3.952  15.097  19.041  0.00  0.00    +0.000 C 
ATOM     14  C   UNL     1       2.883  14.445  19.571  0.00  0.00    +0.000 C 
ATOM     15  C   UNL     1       1.898  15.309  20.361  0.00  0.00    +0.000 C 
ATOM     16  C   UNL     1       2.749  15.573  21.678  0.00  0.00    +0.000 C 
ATOM     17  C   UNL     1       0.485  15.019  20.970  0.00  0.00    +0.000 C 
ATOM     18  C   UNL     1       0.298  13.698  21.664  0.00  0.00    +0.000 C 
ATOM     19  O   UNL     1       0.995  12.716  21.436  0.00  0.00    +0.000 OA
ATOM     20  C   UNL     1      -0.808  13.666  22.701  0.00  0.00    +0.000 C 
ATOM     21  C   UNL     1      -1.915  14.767  22.572  0.00  0.00    +0.000 C 
ATOM     22  C   UNL     1      -1.768  15.710  23.814  0.00  0.00    +0.000 C 
ENDROOT
BRANCH   1  23
ATOM     23  S   UNL     1      -3.940  13.457  24.009  0.00  0.00    +0.000 S 
ATOM     24  O   UNL     1      -3.859  11.891  23.931  0.00  0.00    +0.000 OA
BRANCH  23  25
ATOM     25  C   UNL     1      -5.678  13.947  23.925  0.00  0.00    +0.000 C 
BRANCH  25  26
ATOM     26  C   UNL     1      -6.522  12.734  23.568  0.00  0.00    +0.000 C 
BRANCH  26  27
ATOM     27  C   UNL     1      -6.876  12.746  22.089  0.00  0.00    +0.000 C 
BRANCH  27  29
ATOM     28  C   UNL     1      -7.523  11.081  20.336  0.00  0.00    +0.000 C 
ATOM     29  C   UNL     1      -7.780  11.566  21.749  0.00  0.00    +0.000 C 
ENDBRANCH  27  29
ENDBRANCH  26  27
ENDBRANCH  25  26
ENDBRANCH  23  25
ENDBRANCH   1  23
TORSDOF 5
ENDMDL
MODEL 9
REMARK VINA RESULT:      -5.4      3.882      8.163
REMARK  Name = 
REMARK  8 active torsions:
REMARK  status: ('A' for Active; 'I' for Inactive)
REMARK    1  A    between atoms: C_1  and  C_2
REMARK    2  A    between atoms: C_2  and  C_3
REMARK    3  A    between atoms: C_3  and  C_4
REMARK    4  A    between atoms: C_4  and  C_5
REMARK    5  A    between atoms: C_5  and  S_6
REMARK    6  A    between atoms: S_6  and  C_8
REMARK    7  A    between atoms: C_22  and  C_23
REMARK    8  A    between atoms: C_28  and  C_29
REMARK                            x       y       z     vdW  Elec       q    Type
REMARK                         _______ _______ _______ _____ _____    ______ ____
ROOT
ATOM      1  C   UNL     1      -2.197  12.852  20.912  0.00  0.00    +0.000 C 
ATOM      2 CL   UNL     1      -1.160  11.560  21.672  0.00  0.00    +0.000 Cl
ATOM      3  C   UNL     1      -2.583  12.373  19.509  0.00  0.00    +0.000 C 
ATOM      4  C   UNL     1      -1.265  12.457  18.738  0.00  0.00    +0.000 C 
ATOM      5  C   UNL     1      -0.523  13.671  19.337  0.00  0.00    +0.000 C 
ATOM      6  C   UNL     1       0.993  13.493  19.581  0.00  0.00    +0.000 C 
ATOM      7  C   UNL     1       1.680  13.175  18.255  0.00  0.00    +0.000 C 
ATOM      8  C   UNL     1       3.129  13.564  18.330  0.00  0.00    +0.000 C 
ATOM      9  C   UNL     1       3.258  15.041  18.626  0.00  0.00    +0.000 C 
ATOM     10  C   UNL     1       4.142  15.757  17.910  0.00  0.00    +0.000 C 
ATOM     11  C   UNL     1       5.077  16.524  18.781  0.00  0.00    +0.000 C 
ATOM     12  O   UNL     1       5.695  17.493  18.366  0.00  0.00    +0.000 OA
ATOM     13  C   UNL     1       5.263  15.939  20.167  0.00  0.00    +0.000 C 
ATOM     14  C   UNL     1       4.200  15.343  20.769  0.00  0.00    +0.000 C 
ATOM     15  C   UNL     1       2.862  15.467  20.037  0.00  0.00    +0.000 C 
ATOM     16  C   UNL     1       2.527  16.995  20.319  0.00  0.00    +0.000 C 
ATOM     17  C   UNL     1       1.462  14.805  20.268  0.00  0.00    +0.000 C 
ATOM     18  C   UNL     1       0.981  14.703  21.689  0.00  0.00    +0.000 C 
ATOM     19  O   UNL     1       1.734  14.713  22.655  0.00  0.00    +0.000 OA
ATOM     20  C   UNL     1      -0.524  14.614  21.855  0.00  0.00    +0.000 C 
ATOM     21  C   UNL     1      -1.334  14.129  20.604  0.00  0.00    +0.000 C 
ATOM     22  C   UNL     1      -2.187  15.347  20.112  0.00  0.00    +0.000 C 
ENDROOT
BRANCH   1  23
ATOM     23  S   UNL     1      -3.643  13.260  21.946  0.00  0.00    +0.000 S 
ATOM     24  O   UNL     1      -3.785  12.166  23.063  0.00  0.00    +0.000 OA
BRANCH  23  25
ATOM     25  C   UNL     1      -4.958  13.016  20.731  0.00  0.00    +0.000 C 
BRANCH  25  26
ATOM     26  C   UNL     1      -6.193  12.475  21.433  0.00  0.00    +0.000 C 
BRANCH  26  27
ATOM     27  C   UNL     1      -6.879  11.423  20.575  0.00  0.00    +0.000 C 
BRANCH  27  29
ATOM     28  C   UNL     1      -7.067  11.951  18.136  0.00  0.00    +0.000 C 
ATOM     29  C   UNL     1      -6.203  11.324  19.212  0.00  0.00    +0.000 C 
ENDBRANCH  27  29
ENDBRANCH  26  27
ENDBRANCH  25  26
ENDBRANCH  23  25
ENDBRANCH   1  23
TORSDOF 5
ENDMDL
