MODEL 1
REMARK VINA RESULT:      -8.4      0.000      0.000
REMARK  Name = 
REMARK  8 active torsions:
REMARK  status: ('A' for Active; 'I' for Inactive)
REMARK    1  A    between atoms: C_1  and  C_2
REMARK    2  A    between atoms: C_5  and  C_6
REMARK    3  A    between atoms: C_7  and  S_8
REMARK    4  A    between atoms: S_8  and  N_11
REMARK    5  A    between atoms: C_16  and  C_17
REMARK    6  A    between atoms: C_17  and  N_18
REMARK    7  A    between atoms: C_19  and  C_21
REMARK    8  A    between atoms: N_23  and  C_24
REMARK                            x       y       z     vdW  Elec       q    Type
REMARK                         _______ _______ _______ _____ _____    ______ ____
ROOT
ATOM      1  N   UNL     1       5.710   4.605  17.668  0.00  0.00    +0.000 NA
ATOM      2  C   UNL     1       7.024   4.753  18.283  0.00  0.00    +0.000 C 
ATOM      3  C   UNL     1       7.422   6.211  18.142  0.00  0.00    +0.000 C 
ATOM      4  C   UNL     1       7.210   6.715  16.718  0.00  0.00    +0.000 C 
ATOM      5  O   UNL     1       5.934   6.366  16.186  0.00  0.00    +0.000 OA
ATOM      6  C   UNL     1       5.623   4.969  16.254  0.00  0.00    +0.000 C 
ENDROOT
BRANCH   1   7
ATOM      7  S   UNL     1       4.495   3.742  18.412  0.00  0.00    +0.000 S 
ATOM      8  O   UNL     1       5.080   3.121  19.583  0.00  0.00    +0.000 OA
ATOM      9  O   UNL     1       3.799   2.939  17.430  0.00  0.00    +0.000 OA
BRANCH   7  16
ATOM     10  C   UNL     1       2.627   8.626  17.954  0.00  0.00    +0.000 C 
ATOM     11  C   UNL     1       2.579   7.327  18.705  0.00  0.00    +0.000 A 
ATOM     12  C   UNL     1       1.838   7.206  19.881  0.00  0.00    +0.000 A 
ATOM     13  C   UNL     1       1.843   6.007  20.596  0.00  0.00    +0.000 A 
ATOM     14  C   UNL     1       2.594   4.898  20.164  0.00  0.00    +0.000 A 
ATOM     15  C   UNL     1       2.559   3.656  21.010  0.00  0.00    +0.000 C 
ATOM     16  C   UNL     1       3.360   5.024  18.989  0.00  0.00    +0.000 A 
ATOM     17  C   UNL     1       3.335   6.233  18.263  0.00  0.00    +0.000 A 
ENDBRANCH   7  16
ENDBRANCH   1   7
BRANCH   6  18
ATOM     18  C   UNL     1       6.541   4.124  15.318  0.00  0.00    +0.000 C 
BRANCH  18  19
ATOM     19  N   UNL     1       5.842   3.519  14.185  0.00  0.00    +0.000 N 
ATOM     20  C   UNL     1       6.242   3.711  12.874  0.00  0.00    +0.000 C 
ATOM     21  O   UNL     1       7.212   4.367  12.520  0.00  0.00    +0.000 OA
ATOM     22  H   UNL     1       4.965   3.016  14.329  0.00  0.00    +0.000 HD
BRANCH  20  23
ATOM     23  C   UNL     1       5.328   3.034  11.827  0.00  0.00    +0.000 C 
ATOM     24  O   UNL     1       5.584   1.907  11.428  0.00  0.00    +0.000 OA
ATOM     25  N   UNL     1       4.258   3.824  11.435  0.00  0.00    +0.000 N 
ATOM     26  H   UNL     1       4.204   4.754  11.843  0.00  0.00    +0.000 HD
BRANCH  25  27
ATOM     27  C   UNL     1       3.319   3.423  10.436  0.00  0.00    +0.000 C 
ATOM     28  C   UNL     1       2.448   4.442   9.750  0.00  0.00    +0.000 C 
ATOM     29  C   UNL     1       3.535   3.750   8.980  0.00  0.00    +0.000 C 
ENDBRANCH  25  27
ENDBRANCH  20  23
ENDBRANCH  18  19
ENDBRANCH   6  18
TORSDOF 6
ENDMDL
MODEL 2
REMARK VINA RESULT:      -8.3      0.999      1.095
REMARK  Name = 
REMARK  8 active torsions:
REMARK  status: ('A' for Active; 'I' for Inactive)
REMARK    1  A    between atoms: C_1  and  C_2
REMARK    2  A    between atoms: C_5  and  C_6
REMARK    3  A    between atoms: C_7  and  S_8
REMARK    4  A    between atoms: S_8  and  N_11
REMARK    5  A    between atoms: C_16  and  C_17
REMARK    6  A    between atoms: C_17  and  N_18
REMARK    7  A    between atoms: C_19  and  C_21
REMARK    8  A    between atoms: N_23  and  C_24
REMARK                            x       y       z     vdW  Elec       q    Type
REMARK                         _______ _______ _______ _____ _____    ______ ____
ROOT
ATOM      1  N   UNL     1       5.076   4.804  17.986  0.00  0.00    +0.000 NA
ATOM      2  C   UNL     1       6.123   4.818  19.000  0.00  0.00    +0.000 C 
ATOM      3  C   UNL     1       6.813   6.167  18.913  0.00  0.00    +0.000 C 
ATOM      4  C   UNL     1       7.172   6.520  17.473  0.00  0.00    +0.000 C 
ATOM      5  O   UNL     1       6.095   6.313  16.561  0.00  0.00    +0.000 OA
ATOM      6  C   UNL     1       5.521   5.001  16.607  0.00  0.00    +0.000 C 
ENDROOT
BRANCH   1   7
ATOM      7  S   UNL     1       3.545   4.240  18.325  0.00  0.00    +0.000 S 
ATOM      8  O   UNL     1       3.682   3.284  19.405  0.00  0.00    +0.000 OA
ATOM      9  O   UNL     1       2.884   3.862  17.095  0.00  0.00    +0.000 OA
BRANCH   7  16
ATOM     10  C   UNL     1       2.253   9.304  17.832  0.00  0.00    +0.000 C 
ATOM     11  C   UNL     1       2.175   8.062  18.673  0.00  0.00    +0.000 A 
ATOM     12  C   UNL     1       1.643   8.102  19.962  0.00  0.00    +0.000 A 
ATOM     13  C   UNL     1       1.623   6.951  20.752  0.00  0.00    +0.000 A 
ATOM     14  C   UNL     1       2.142   5.730  20.282  0.00  0.00    +0.000 A 
ATOM     15  C   UNL     1       2.101   4.548  21.210  0.00  0.00    +0.000 C 
ATOM     16  C   UNL     1       2.699   5.691  18.989  0.00  0.00    +0.000 A 
ATOM     17  C   UNL     1       2.699   6.855  18.192  0.00  0.00    +0.000 A 
ENDBRANCH   7  16
ENDBRANCH   1   7
BRANCH   6  18
ATOM     18  C   UNL     1       6.515   3.915  16.094  0.00  0.00    +0.000 C 
BRANCH  18  19
ATOM     19  N   UNL     1       6.261   3.474  14.723  0.00  0.00    +0.000 N 
ATOM     20  C   UNL     1       6.700   4.185  13.618  0.00  0.00    +0.000 C 
ATOM     21  O   UNL     1       7.354   5.218  13.657  0.00  0.00    +0.000 OA
ATOM     22  H   UNL     1       5.654   2.674  14.542  0.00  0.00    +0.000 HD
BRANCH  20  23
ATOM     23  C   UNL     1       6.270   3.578  12.263  0.00  0.00    +0.000 C 
ATOM     24  O   UNL     1       7.117   3.195  11.468  0.00  0.00    +0.000 OA
ATOM     25  N   UNL     1       4.896   3.531  12.090  0.00  0.00    +0.000 N 
ATOM     26  H   UNL     1       4.328   3.920  12.840  0.00  0.00    +0.000 HD
BRANCH  25  27
ATOM     27  C   UNL     1       4.277   3.064  10.890  0.00  0.00    +0.000 C 
ATOM     28  C   UNL     1       2.793   2.819  10.838  0.00  0.00    +0.000 C 
ATOM     29  C   UNL     1       3.388   3.959  10.065  0.00  0.00    +0.000 C 
ENDBRANCH  25  27
ENDBRANCH  20  23
ENDBRANCH  18  19
ENDBRANCH   6  18
TORSDOF 6
ENDMDL
MODEL 3
REMARK VINA RESULT:      -7.9      2.082      3.631
REMARK  Name = 
REMARK  8 active torsions:
REMARK  status: ('A' for Active; 'I' for Inactive)
REMARK    1  A    between atoms: C_1  and  C_2
REMARK    2  A    between atoms: C_5  and  C_6
REMARK    3  A    between atoms: C_7  and  S_8
REMARK    4  A    between atoms: S_8  and  N_11
REMARK    5  A    between atoms: C_16  and  C_17
REMARK    6  A    between atoms: C_17  and  N_18
REMARK    7  A    between atoms: C_19  and  C_21
REMARK    8  A    between atoms: N_23  and  C_24
REMARK                            x       y       z     vdW  Elec       q    Type
REMARK                         _______ _______ _______ _____ _____    ______ ____
ROOT
ATOM      1  N   UNL     1       3.480   2.699  18.563  0.00  0.00    +0.000 NA
ATOM      2  C   UNL     1       3.971   1.393  18.142  0.00  0.00    +0.000 C 
ATOM      3  C   UNL     1       4.279   0.603  19.401  0.00  0.00    +0.000 C 
ATOM      4  C   UNL     1       5.105   1.422  20.387  0.00  0.00    +0.000 C 
ATOM      5  O   UNL     1       4.593   2.737  20.590  0.00  0.00    +0.000 OA
ATOM      6  C   UNL     1       4.395   3.489  19.386  0.00  0.00    +0.000 C 
ENDROOT
BRANCH   1   7
ATOM      7  S   UNL     1       2.138   3.391  17.859  0.00  0.00    +0.000 S 
ATOM      8  O   UNL     1       1.003   2.568  18.224  0.00  0.00    +0.000 OA
ATOM      9  O   UNL     1       2.414   3.678  16.468  0.00  0.00    +0.000 OA
BRANCH   7  16
ATOM     10  C   UNL     1       2.743   8.605  17.871  0.00  0.00    +0.000 C 
ATOM     11  C   UNL     1       2.317   7.387  18.638  0.00  0.00    +0.000 A 
ATOM     12  C   UNL     1       1.997   7.470  19.994  0.00  0.00    +0.000 A 
ATOM     13  C   UNL     1       1.652   6.320  20.707  0.00  0.00    +0.000 A 
ATOM     14  C   UNL     1       1.626   5.055  20.091  0.00  0.00    +0.000 A 
ATOM     15  C   UNL     1       1.267   3.870  20.943  0.00  0.00    +0.000 C 
ATOM     16  C   UNL     1       1.969   4.965  18.729  0.00  0.00    +0.000 A 
ATOM     17  C   UNL     1       2.300   6.133  18.012  0.00  0.00    +0.000 A 
ENDBRANCH   7  16
ENDBRANCH   1   7
BRANCH   6  18
ATOM     18  C   UNL     1       5.746   3.836  18.689  0.00  0.00    +0.000 C 
BRANCH  18  19
ATOM     19  N   UNL     1       5.618   4.163  17.270  0.00  0.00    +0.000 N 
ATOM     20  C   UNL     1       6.716   4.333  16.443  0.00  0.00    +0.000 C 
ATOM     21  O   UNL     1       7.884   4.208  16.784  0.00  0.00    +0.000 OA
ATOM     22  H   UNL     1       4.704   4.379  16.870  0.00  0.00    +0.000 HD
BRANCH  20  23
ATOM     23  C   UNL     1       6.361   4.737  14.994  0.00  0.00    +0.000 C 
ATOM     24  O   UNL     1       6.002   5.881  14.748  0.00  0.00    +0.000 OA
ATOM     25  N   UNL     1       6.498   3.702  14.083  0.00  0.00    +0.000 N 
ATOM     26  H   UNL     1       6.780   2.799  14.457  0.00  0.00    +0.000 HD
BRANCH  25  27
ATOM     27  C   UNL     1       6.168   3.833  12.699  0.00  0.00    +0.000 C 
ATOM     28  C   UNL     1       6.320   2.666  11.760  0.00  0.00    +0.000 C 
ATOM     29  C   UNL     1       4.950   3.164  12.115  0.00  0.00    +0.000 C 
ENDBRANCH  25  27
ENDBRANCH  20  23
ENDBRANCH  18  19
ENDBRANCH   6  18
TORSDOF 6
ENDMDL
MODEL 4
REMARK VINA RESULT:      -7.7      1.748      2.012
REMARK  Name = 
REMARK  8 active torsions:
REMARK  status: ('A' for Active; 'I' for Inactive)
REMARK    1  A    between atoms: C_1  and  C_2
REMARK    2  A    between atoms: C_5  and  C_6
REMARK    3  A    between atoms: C_7  and  S_8
REMARK    4  A    between atoms: S_8  and  N_11
REMARK    5  A    between atoms: C_16  and  C_17
REMARK    6  A    between atoms: C_17  and  N_18
REMARK    7  A    between atoms: C_19  and  C_21
REMARK    8  A    between atoms: N_23  and  C_24
REMARK                            x       y       z     vdW  Elec       q    Type
REMARK                         _______ _______ _______ _____ _____    ______ ____
ROOT
ATOM      1  N   UNL     1       5.131   4.902  18.159  0.00  0.00    +0.000 NA
ATOM      2  C   UNL     1       6.071   4.858  19.272  0.00  0.00    +0.000 C 
ATOM      3  C   UNL     1       6.774   6.203  19.318  0.00  0.00    +0.000 C 
ATOM      4  C   UNL     1       7.276   6.619  17.939  0.00  0.00    +0.000 C 
ATOM      5  O   UNL     1       6.295   6.466  16.916  0.00  0.00    +0.000 OA
ATOM      6  C   UNL     1       5.712   5.158  16.842  0.00  0.00    +0.000 C 
ENDROOT
BRANCH   1   7
ATOM      7  S   UNL     1       3.571   4.337  18.317  0.00  0.00    +0.000 S 
ATOM      8  O   UNL     1       3.600   3.311  19.339  0.00  0.00    +0.000 OA
ATOM      9  O   UNL     1       3.025   4.050  17.009  0.00  0.00    +0.000 OA
BRANCH   7  16
ATOM     10  C   UNL     1       2.137   9.369  17.890  0.00  0.00    +0.000 C 
ATOM     11  C   UNL     1       2.088   8.113  18.711  0.00  0.00    +0.000 A 
ATOM     12  C   UNL     1       1.544   8.118  19.995  0.00  0.00    +0.000 A 
ATOM     13  C   UNL     1       1.551   6.954  20.768  0.00  0.00    +0.000 A 
ATOM     14  C   UNL     1       2.108   5.755  20.283  0.00  0.00    +0.000 A 
ATOM     15  C   UNL     1       2.093   4.559  21.193  0.00  0.00    +0.000 C 
ATOM     16  C   UNL     1       2.677   5.753  18.995  0.00  0.00    +0.000 A 
ATOM     17  C   UNL     1       2.651   6.928  18.217  0.00  0.00    +0.000 A 
ENDBRANCH   7  16
ENDBRANCH   1   7
BRANCH   6  18
ATOM     18  C   UNL     1       6.747   4.088  16.380  0.00  0.00    +0.000 C 
BRANCH  18  19
ATOM     19  N   UNL     1       6.632   3.718  14.970  0.00  0.00    +0.000 N 
ATOM     20  C   UNL     1       7.147   4.500  13.950  0.00  0.00    +0.000 C 
ATOM     21  O   UNL     1       7.763   5.546  14.103  0.00  0.00    +0.000 OA
ATOM     22  H   UNL     1       6.069   2.913  14.691  0.00  0.00    +0.000 HD
BRANCH  20  23
ATOM     23  C   UNL     1       6.861   3.959  12.530  0.00  0.00    +0.000 C 
ATOM     24  O   UNL     1       7.148   4.631  11.549  0.00  0.00    +0.000 OA
ATOM     25  N   UNL     1       6.280   2.700  12.525  0.00  0.00    +0.000 N 
ATOM     26  H   UNL     1       6.078   2.288  13.433  0.00  0.00    +0.000 HD
BRANCH  25  27
ATOM     27  C   UNL     1       5.877   2.033  11.329  0.00  0.00    +0.000 C 
ATOM     28  C   UNL     1       6.899   1.411  10.415  0.00  0.00    +0.000 C 
ATOM     29  C   UNL     1       5.966   0.534  11.197  0.00  0.00    +0.000 C 
ENDBRANCH  25  27
ENDBRANCH  20  23
ENDBRANCH  18  19
ENDBRANCH   6  18
TORSDOF 6
ENDMDL
MODEL 5
REMARK VINA RESULT:      -7.5      2.274      4.006
REMARK  Name = 
REMARK  8 active torsions:
REMARK  status: ('A' for Active; 'I' for Inactive)
REMARK    1  A    between atoms: C_1  and  C_2
REMARK    2  A    between atoms: C_5  and  C_6
REMARK    3  A    between atoms: C_7  and  S_8
REMARK    4  A    between atoms: S_8  and  N_11
REMARK    5  A    between atoms: C_16  and  C_17
REMARK    6  A    between atoms: C_17  and  N_18
REMARK    7  A    between atoms: C_19  and  C_21
REMARK    8  A    between atoms: N_23  and  C_24
REMARK                            x       y       z     vdW  Elec       q    Type
REMARK                         _______ _______ _______ _____ _____    ______ ____
ROOT
ATOM      1  N   UNL     1       3.091   4.588  18.439  0.00  0.00    +0.000 NA
ATOM      2  C   UNL     1       1.942   4.238  17.613  0.00  0.00    +0.000 C 
ATOM      3  C   UNL     1       0.967   3.484  18.499  0.00  0.00    +0.000 C 
ATOM      4  C   UNL     1       1.668   2.389  19.296  0.00  0.00    +0.000 C 
ATOM      5  O   UNL     1       2.864   2.836  19.930  0.00  0.00    +0.000 OA
ATOM      6  C   UNL     1       3.803   3.467  19.050  0.00  0.00    +0.000 C 
ENDROOT
BRANCH   1   7
ATOM      7  S   UNL     1       3.763   6.112  18.390  0.00  0.00    +0.000 S 
ATOM      8  O   UNL     1       3.852   6.486  16.993  0.00  0.00    +0.000 OA
ATOM      9  O   UNL     1       4.939   6.150  19.232  0.00  0.00    +0.000 OA
BRANCH   7  16
ATOM     10  C   UNL     1       1.011  10.582  18.362  0.00  0.00    +0.000 C 
ATOM     11  C   UNL     1       1.291   9.282  19.059  0.00  0.00    +0.000 A 
ATOM     12  C   UNL     1       0.738   9.006  20.310  0.00  0.00    +0.000 A 
ATOM     13  C   UNL     1       1.047   7.815  20.970  0.00  0.00    +0.000 A 
ATOM     14  C   UNL     1       1.923   6.870  20.404  0.00  0.00    +0.000 A 
ATOM     15  C   UNL     1       2.217   5.627  21.197  0.00  0.00    +0.000 C 
ATOM     16  C   UNL     1       2.499   7.155  19.152  0.00  0.00    +0.000 A 
ATOM     17  C   UNL     1       2.168   8.352  18.485  0.00  0.00    +0.000 A 
ENDBRANCH   7  16
ENDBRANCH   1   7
BRANCH   6  18
ATOM     18  C   UNL     1       4.406   2.457  18.026  0.00  0.00    +0.000 C 
BRANCH  18  19
ATOM     19  N   UNL     1       4.797   3.061  16.753  0.00  0.00    +0.000 N 
ATOM     20  C   UNL     1       5.936   3.834  16.613  0.00  0.00    +0.000 C 
ATOM     21  O   UNL     1       6.741   4.074  17.502  0.00  0.00    +0.000 OA
ATOM     22  H   UNL     1       4.173   3.013  15.946  0.00  0.00    +0.000 HD
BRANCH  20  23
ATOM     23  C   UNL     1       6.130   4.428  15.199  0.00  0.00    +0.000 C 
ATOM     24  O   UNL     1       6.273   5.635  15.057  0.00  0.00    +0.000 OA
ATOM     25  N   UNL     1       6.121   3.475  14.193  0.00  0.00    +0.000 N 
ATOM     26  H   UNL     1       5.960   2.512  14.479  0.00  0.00    +0.000 HD
BRANCH  25  27
ATOM     27  C   UNL     1       6.224   3.804  12.807  0.00  0.00    +0.000 C 
ATOM     28  C   UNL     1       6.558   2.745  11.790  0.00  0.00    +0.000 C 
ATOM     29  C   UNL     1       5.186   3.351  11.813  0.00  0.00    +0.000 C 
ENDBRANCH  25  27
ENDBRANCH  20  23
ENDBRANCH  18  19
ENDBRANCH   6  18
TORSDOF 6
ENDMDL
MODEL 6
REMARK VINA RESULT:      -7.5      3.557      7.403
REMARK  Name = 
REMARK  8 active torsions:
REMARK  status: ('A' for Active; 'I' for Inactive)
REMARK    1  A    between atoms: C_1  and  C_2
REMARK    2  A    between atoms: C_5  and  C_6
REMARK    3  A    between atoms: C_7  and  S_8
REMARK    4  A    between atoms: S_8  and  N_11
REMARK    5  A    between atoms: C_16  and  C_17
REMARK    6  A    between atoms: C_17  and  N_18
REMARK    7  A    between atoms: C_19  and  C_21
REMARK    8  A    between atoms: N_23  and  C_24
REMARK                            x       y       z     vdW  Elec       q    Type
REMARK                         _______ _______ _______ _____ _____    ______ ____
ROOT
ATOM      1  N   UNL     1       3.160   3.677  19.522  0.00  0.00    +0.000 NA
ATOM      2  C   UNL     1       2.869   3.575  20.947  0.00  0.00    +0.000 C 
ATOM      3  C   UNL     1       1.359   3.528  21.094  0.00  0.00    +0.000 C 
ATOM      4  C   UNL     1       0.683   4.624  20.276  0.00  0.00    +0.000 C 
ATOM      5  O   UNL     1       1.175   4.710  18.940  0.00  0.00    +0.000 OA
ATOM      6  C   UNL     1       2.598   4.840  18.838  0.00  0.00    +0.000 C 
ENDROOT
BRANCH   1   7
ATOM      7  S   UNL     1       4.343   2.745  18.809  0.00  0.00    +0.000 S 
ATOM      8  O   UNL     1       3.663   1.763  17.989  0.00  0.00    +0.000 OA
ATOM      9  O   UNL     1       5.299   2.325  19.810  0.00  0.00    +0.000 OA
BRANCH   7  16
ATOM     10  C   UNL     1       5.498   4.212  13.903  0.00  0.00    +0.000 C 
ATOM     11  C   UNL     1       5.674   4.480  15.370  0.00  0.00    +0.000 A 
ATOM     12  C   UNL     1       6.576   5.445  15.819  0.00  0.00    +0.000 A 
ATOM     13  C   UNL     1       6.766   5.648  17.187  0.00  0.00    +0.000 A 
ATOM     14  C   UNL     1       6.069   4.888  18.146  0.00  0.00    +0.000 A 
ATOM     15  C   UNL     1       6.356   5.159  19.596  0.00  0.00    +0.000 C 
ATOM     16  C   UNL     1       5.174   3.899  17.695  0.00  0.00    +0.000 A 
ATOM     17  C   UNL     1       4.975   3.713  16.312  0.00  0.00    +0.000 A 
ENDBRANCH   7  16
ENDBRANCH   1   7
BRANCH   6  18
ATOM     18  C   UNL     1       3.096   6.210  19.392  0.00  0.00    +0.000 C 
BRANCH  18  19
ATOM     19  N   UNL     1       2.504   7.372  18.729  0.00  0.00    +0.000 N 
ATOM     20  C   UNL     1       1.778   8.331  19.414  0.00  0.00    +0.000 C 
ATOM     21  O   UNL     1       1.574   8.335  20.620  0.00  0.00    +0.000 OA
ATOM     22  H   UNL     1       2.524   7.451  17.711  0.00  0.00    +0.000 HD
BRANCH  20  23
ATOM     23  C   UNL     1       1.187   9.441  18.514  0.00  0.00    +0.000 C 
ATOM     24  O   UNL     1       1.805   9.825  17.531  0.00  0.00    +0.000 OA
ATOM     25  N   UNL     1      -0.047   9.902  18.945  0.00  0.00    +0.000 N 
ATOM     26  H   UNL     1      -0.412   9.495  19.803  0.00  0.00    +0.000 HD
BRANCH  25  27
ATOM     27  C   UNL     1      -0.750  10.965  18.300  0.00  0.00    +0.000 C 
ATOM     28  C   UNL     1      -2.181  10.787  17.867  0.00  0.00    +0.000 C 
ATOM     29  C   UNL     1      -1.854  11.716  18.999  0.00  0.00    +0.000 C 
ENDBRANCH  25  27
ENDBRANCH  20  23
ENDBRANCH  18  19
ENDBRANCH   6  18
TORSDOF 6
ENDMDL
MODEL 7
REMARK VINA RESULT:      -7.4      0.979      1.111
REMARK  Name = 
REMARK  8 active torsions:
REMARK  status: ('A' for Active; 'I' for Inactive)
REMARK    1  A    between atoms: C_1  and  C_2
REMARK    2  A    between atoms: C_5  and  C_6
REMARK    3  A    between atoms: C_7  and  S_8
REMARK    4  A    between atoms: S_8  and  N_11
REMARK    5  A    between atoms: C_16  and  C_17
REMARK    6  A    between atoms: C_17  and  N_18
REMARK    7  A    between atoms: C_19  and  C_21
REMARK    8  A    between atoms: N_23  and  C_24
REMARK                            x       y       z     vdW  Elec       q    Type
REMARK                         _______ _______ _______ _____ _____    ______ ____
ROOT
ATOM      1  N   UNL     1       4.887   4.480  17.299  0.00  0.00    +0.000 NA
ATOM      2  C   UNL     1       6.149   4.372  18.020  0.00  0.00    +0.000 C 
ATOM      3  C   UNL     1       6.555   5.778  18.423  0.00  0.00    +0.000 C 
ATOM      4  C   UNL     1       6.452   6.749  17.251  0.00  0.00    +0.000 C 
ATOM      5  O   UNL     1       5.221   6.638  16.540  0.00  0.00    +0.000 OA
ATOM      6  C   UNL     1       4.908   5.312  16.097  0.00  0.00    +0.000 C 
ENDROOT
BRANCH   1   7
ATOM      7  S   UNL     1       3.619   3.443  17.609  0.00  0.00    +0.000 S 
ATOM      8  O   UNL     1       4.176   2.295  18.293  0.00  0.00    +0.000 OA
ATOM      9  O   UNL     1       2.833   3.267  16.407  0.00  0.00    +0.000 OA
BRANCH   7  16
ATOM     10  C   UNL     1       2.169   8.041  19.684  0.00  0.00    +0.000 C 
ATOM     11  C   UNL     1       2.028   6.547  19.716  0.00  0.00    +0.000 A 
ATOM     12  C   UNL     1       1.309   5.917  20.732  0.00  0.00    +0.000 A 
ATOM     13  C   UNL     1       1.228   4.523  20.778  0.00  0.00    +0.000 A 
ATOM     14  C   UNL     1       1.869   3.720  19.817  0.00  0.00    +0.000 A 
ATOM     15  C   UNL     1       1.748   2.228  19.960  0.00  0.00    +0.000 C 
ATOM     16  C   UNL     1       2.613   4.352  18.803  0.00  0.00    +0.000 A 
ATOM     17  C   UNL     1       2.675   5.760  18.755  0.00  0.00    +0.000 A 
ENDBRANCH   7  16
ENDBRANCH   1   7
BRANCH   6  18
ATOM     18  C   UNL     1       5.895   4.820  14.995  0.00  0.00    +0.000 C 
BRANCH  18  19
ATOM     19  N   UNL     1       5.248   4.137  13.876  0.00  0.00    +0.000 N 
ATOM     20  C   UNL     1       5.949   3.693  12.768  0.00  0.00    +0.000 C 
ATOM     21  O   UNL     1       7.158   3.792  12.610  0.00  0.00    +0.000 OA
ATOM     22  H   UNL     1       4.230   4.061  13.836  0.00  0.00    +0.000 HD
BRANCH  20  23
ATOM     23  C   UNL     1       5.065   3.054  11.673  0.00  0.00    +0.000 C 
ATOM     24  O   UNL     1       5.266   1.900  11.320  0.00  0.00    +0.000 OA
ATOM     25  N   UNL     1       4.086   3.906  11.186  0.00  0.00    +0.000 N 
ATOM     26  H   UNL     1       4.072   4.849  11.567  0.00  0.00    +0.000 HD
BRANCH  25  27
ATOM     27  C   UNL     1       3.194   3.546  10.130  0.00  0.00    +0.000 C 
ATOM     28  C   UNL     1       2.228   4.552   9.565  0.00  0.00    +0.000 C 
ATOM     29  C   UNL     1       3.379   4.075   8.730  0.00  0.00    +0.000 C 
ENDBRANCH  25  27
ENDBRANCH  20  23
ENDBRANCH  18  19
ENDBRANCH   6  18
TORSDOF 6
ENDMDL
MODEL 8
REMARK VINA RESULT:      -7.4      1.049      1.141
REMARK  Name = 
REMARK  8 active torsions:
REMARK  status: ('A' for Active; 'I' for Inactive)
REMARK    1  A    between atoms: C_1  and  C_2
REMARK    2  A    between atoms: C_5  and  C_6
REMARK    3  A    between atoms: C_7  and  S_8
REMARK    4  A    between atoms: S_8  and  N_11
REMARK    5  A    between atoms: C_16  and  C_17
REMARK    6  A    between atoms: C_17  and  N_18
REMARK    7  A    between atoms: C_19  and  C_21
REMARK    8  A    between atoms: N_23  and  C_24
REMARK                            x       y       z     vdW  Elec       q    Type
REMARK                         _______ _______ _______ _____ _____    ______ ____
ROOT
ATOM      1  N   UNL     1       5.991   5.307  17.730  0.00  0.00    +0.000 NA
ATOM      2  C   UNL     1       7.129   5.386  18.638  0.00  0.00    +0.000 C 
ATOM      3  C   UNL     1       7.491   6.853  18.776  0.00  0.00    +0.000 C 
ATOM      4  C   UNL     1       7.580   7.538  17.416  0.00  0.00    +0.000 C 
ATOM      5  O   UNL     1       6.469   7.249  16.570  0.00  0.00    +0.000 OA
ATOM      6  C   UNL     1       6.206   5.852  16.391  0.00  0.00    +0.000 C 
ENDROOT
BRANCH   1   7
ATOM      7  S   UNL     1       4.676   4.341  18.068  0.00  0.00    +0.000 S 
ATOM      8  O   UNL     1       5.070   3.461  19.148  0.00  0.00    +0.000 OA
ATOM      9  O   UNL     1       4.147   3.795  16.837  0.00  0.00    +0.000 OA
BRANCH   7  16
ATOM     10  C   UNL     1       2.386   9.060  17.850  0.00  0.00    +0.000 C 
ATOM     11  C   UNL     1       2.477   7.737  18.556  0.00  0.00    +0.000 A 
ATOM     12  C   UNL     1       1.795   7.516  19.752  0.00  0.00    +0.000 A 
ATOM     13  C   UNL     1       1.929   6.298  20.424  0.00  0.00    +0.000 A 
ATOM     14  C   UNL     1       2.753   5.272  19.926  0.00  0.00    +0.000 A 
ATOM     15  C   UNL     1       2.856   4.006  20.728  0.00  0.00    +0.000 C 
ATOM     16  C   UNL     1       3.460   5.502  18.729  0.00  0.00    +0.000 A 
ATOM     17  C   UNL     1       3.305   6.727  18.049  0.00  0.00    +0.000 A 
ENDBRANCH   7  16
ENDBRANCH   1   7
BRANCH   6  18
ATOM     18  C   UNL     1       7.340   5.147  15.586  0.00  0.00    +0.000 C 
BRANCH  18  19
ATOM     19  N   UNL     1       6.965   4.783  14.221  0.00  0.00    +0.000 N 
ATOM     20  C   UNL     1       6.206   3.662  13.930  0.00  0.00    +0.000 C 
ATOM     21  O   UNL     1       5.750   2.883  14.757  0.00  0.00    +0.000 OA
ATOM     22  H   UNL     1       7.348   5.296  13.426  0.00  0.00    +0.000 HD
BRANCH  20  23
ATOM     23  C   UNL     1       5.978   3.425  12.420  0.00  0.00    +0.000 C 
ATOM     24  O   UNL     1       6.922   3.146  11.694  0.00  0.00    +0.000 OA
ATOM     25  N   UNL     1       4.653   3.561  12.034  0.00  0.00    +0.000 N 
ATOM     26  H   UNL     1       3.992   3.827  12.760  0.00  0.00    +0.000 HD
BRANCH  25  27
ATOM     27  C   UNL     1       4.222   3.444  10.678  0.00  0.00    +0.000 C 
ATOM     28  C   UNL     1       2.881   2.844  10.349  0.00  0.00    +0.000 C 
ATOM     29  C   UNL     1       3.116   4.309  10.127  0.00  0.00    +0.000 C 
ENDBRANCH  25  27
ENDBRANCH  20  23
ENDBRANCH  18  19
ENDBRANCH   6  18
TORSDOF 6
ENDMDL
MODEL 9
REMARK VINA RESULT:      -7.4      3.474      7.518
REMARK  Name = 
REMARK  8 active torsions:
REMARK  status: ('A' for Active; 'I' for Inactive)
REMARK    1  A    between atoms: C_1  and  C_2
REMARK    2  A    between atoms: C_5  and  C_6
REMARK    3  A    between atoms: C_7  and  S_8
REMARK    4  A    between atoms: S_8  and  N_11
REMARK    5  A    between atoms: C_16  and  C_17
REMARK    6  A    between atoms: C_17  and  N_18
REMARK    7  A    between atoms: C_19  and  C_21
REMARK    8  A    between atoms: N_23  and  C_24
REMARK                            x       y       z     vdW  Elec       q    Type
REMARK                         _______ _______ _______ _____ _____    ______ ____
ROOT
ATOM      1  N   UNL     1       3.060   3.537  19.002  0.00  0.00    +0.000 NA
ATOM      2  C   UNL     1       3.717   3.109  20.231  0.00  0.00    +0.000 C 
ATOM      3  C   UNL     1       2.624   2.701  21.203  0.00  0.00    +0.000 C 
ATOM      4  C   UNL     1       1.522   3.752  21.279  0.00  0.00    +0.000 C 
ATOM      5  O   UNL     1       1.079   4.192  19.997  0.00  0.00    +0.000 OA
ATOM      6  C   UNL     1       2.125   4.653  19.134  0.00  0.00    +0.000 C 
ENDROOT
BRANCH   1   7
ATOM      7  S   UNL     1       3.607   3.042  17.508  0.00  0.00    +0.000 S 
ATOM      8  O   UNL     1       2.635   3.498  16.535  0.00  0.00    +0.000 OA
ATOM      9  O   UNL     1       3.980   1.645  17.567  0.00  0.00    +0.000 OA
BRANCH   7  16
ATOM     10  C   UNL     1       7.574   5.772  19.596  0.00  0.00    +0.000 C 
ATOM     11  C   UNL     1       6.905   5.285  18.343  0.00  0.00    +0.000 A 
ATOM     12  C   UNL     1       7.329   5.722  17.088  0.00  0.00    +0.000 A 
ATOM     13  C   UNL     1       6.665   5.300  15.934  0.00  0.00    +0.000 A 
ATOM     14  C   UNL     1       5.555   4.437  16.000  0.00  0.00    +0.000 A 
ATOM     15  C   UNL     1       4.889   4.055  14.709  0.00  0.00    +0.000 C 
ATOM     16  C   UNL     1       5.112   4.011  17.267  0.00  0.00    +0.000 A 
ATOM     17  C   UNL     1       5.799   4.428  18.426  0.00  0.00    +0.000 A 
ENDBRANCH   7  16
ENDBRANCH   1   7
BRANCH   6  18
ATOM     18  C   UNL     1       2.772   5.972  19.658  0.00  0.00    +0.000 C 
BRANCH  18  19
ATOM     19  N   UNL     1       2.309   7.177  18.971  0.00  0.00    +0.000 N 
ATOM     20  C   UNL     1       1.744   8.247  19.644  0.00  0.00    +0.000 C 
ATOM     21  O   UNL     1       1.594   8.321  20.856  0.00  0.00    +0.000 OA
ATOM     22  H   UNL     1       2.296   7.217  17.951  0.00  0.00    +0.000 HD
BRANCH  20  23
ATOM     23  C   UNL     1       1.265   9.393  18.723  0.00  0.00    +0.000 C 
ATOM     24  O   UNL     1       1.887   9.659  17.703  0.00  0.00    +0.000 OA
ATOM     25  N   UNL     1       0.119  10.025  19.179  0.00  0.00    +0.000 N 
ATOM     26  H   UNL     1      -0.260   9.700  20.065  0.00  0.00    +0.000 HD
BRANCH  25  27
ATOM     27  C   UNL     1      -0.466  11.148  18.518  0.00  0.00    +0.000 C 
ATOM     28  C   UNL     1      -1.727  10.991  17.711  0.00  0.00    +0.000 C 
ATOM     29  C   UNL     1      -1.758  11.758  19.000  0.00  0.00    +0.000 C 
ENDBRANCH  25  27
ENDBRANCH  20  23
ENDBRANCH  18  19
ENDBRANCH   6  18
TORSDOF 6
ENDMDL
