MODEL 1
REMARK VINA RESULT:      -7.6      0.000      0.000
REMARK  Name = 
REMARK  7 active torsions:
REMARK  status: ('A' for Active; 'I' for Inactive)
REMARK    1  A    between atoms: C_1  and  C_2
REMARK    2  A    between atoms: C_2  and  C_3
REMARK    3  A    between atoms: C_3  and  C_4
REMARK    4  A    between atoms: C_6  and  C_7
REMARK    5  A    between atoms: C_7  and  N_8
REMARK    6  A    between atoms: C_13  and  C_14
REMARK    7  A    between atoms: C_14  and  N_15
REMARK                            x       y       z     vdW  Elec       q    Type
REMARK                         _______ _______ _______ _____ _____    ______ ____
ROOT
ATOM      1  N   UNL     1       4.031   4.299  18.973  0.00  0.00    +0.000 NA
ATOM      2  C   UNL     1       3.848   3.202  19.948  0.00  0.00    +0.000 C 
ATOM      3  C   UNL     1       2.529   2.456  19.773  0.00  0.00    +0.000 C 
ATOM      4  C   UNL     1       1.358   3.423  19.773  0.00  0.00    +0.000 C 
ATOM      5  C   UNL     1       1.586   4.500  18.719  0.00  0.00    +0.000 C 
ATOM      6  C   UNL     1       2.900   5.273  18.999  0.00  0.00    +0.000 C 
ENDROOT
BRANCH   1   7
ATOM      7  C   UNL     1       5.391   4.885  19.123  0.00  0.00    +0.000 C 
BRANCH   7  10
ATOM      8  C   UNL     1       6.916   4.609  15.951  0.00  0.00    +0.000 A 
ATOM      9  N   UNL     1       5.812   4.733  16.651  0.00  0.00    +0.000 NA
ATOM     10  C   UNL     1       6.285   4.688  17.940  0.00  0.00    +0.000 A 
ATOM     11  N   UNL     1       7.611   4.518  18.045  0.00  0.00    +0.000 NA
ATOM     12  O   UNL     1       8.039   4.479  16.716  0.00  0.00    +0.000 OA
BRANCH   8  13
ATOM     13  C   UNL     1       7.098   4.647  14.485  0.00  0.00    +0.000 C 
BRANCH  13  15
ATOM     14  C   UNL     1       6.335   3.516  12.370  0.00  0.00    +0.000 C 
ATOM     15  C   UNL     1       5.958   3.903  13.789  0.00  0.00    +0.000 C 
ENDBRANCH  13  15
ENDBRANCH   8  13
ENDBRANCH   7  10
ENDBRANCH   1   7
BRANCH   6  16
ATOM     16  C   UNL     1       3.043   6.443  17.989  0.00  0.00    +0.000 C 
BRANCH  16  17
ATOM     17  N   UNL     1       2.360   7.666  18.370  0.00  0.00    +0.000 N 
ATOM     18  C   UNL     1       1.865   8.020  19.589  0.00  0.00    +0.000 A 
ATOM     19  N   UNL     1       1.368   9.232  19.526  0.00  0.00    +0.000 NA
ATOM     20  C   UNL     1       1.606   9.598  18.236  0.00  0.00    +0.000 A 
ATOM     21  N   UNL     1       2.219   8.676  17.489  0.00  0.00    +0.000 NA
ENDBRANCH  16  17
ENDBRANCH   6  16
TORSDOF 6
ENDMDL
MODEL 2
REMARK VINA RESULT:      -7.3      0.903      1.140
REMARK  Name = 
REMARK  7 active torsions:
REMARK  status: ('A' for Active; 'I' for Inactive)
REMARK    1  A    between atoms: C_1  and  C_2
REMARK    2  A    between atoms: C_2  and  C_3
REMARK    3  A    between atoms: C_3  and  C_4
REMARK    4  A    between atoms: C_6  and  C_7
REMARK    5  A    between atoms: C_7  and  N_8
REMARK    6  A    between atoms: C_13  and  C_14
REMARK    7  A    between atoms: C_14  and  N_15
REMARK                            x       y       z     vdW  Elec       q    Type
REMARK                         _______ _______ _______ _____ _____    ______ ____
ROOT
ATOM      1  N   UNL     1       4.164   3.984  18.360  0.00  0.00    +0.000 NA
ATOM      2  C   UNL     1       3.997   2.695  19.066  0.00  0.00    +0.000 C 
ATOM      3  C   UNL     1       2.641   2.043  18.815  0.00  0.00    +0.000 C 
ATOM      4  C   UNL     1       1.512   3.013  19.120  0.00  0.00    +0.000 C 
ATOM      5  C   UNL     1       1.718   4.300  18.329  0.00  0.00    +0.000 C 
ATOM      6  C   UNL     1       3.077   4.954  18.689  0.00  0.00    +0.000 C 
ENDROOT
BRANCH   1   7
ATOM      7  C   UNL     1       5.553   4.485  18.548  0.00  0.00    +0.000 C 
BRANCH   7  10
ATOM      8  C   UNL     1       6.797   4.661  15.249  0.00  0.00    +0.000 A 
ATOM      9  N   UNL     1       5.981   4.090  16.104  0.00  0.00    +0.000 NA
ATOM     10  C   UNL     1       6.299   4.734  17.275  0.00  0.00    +0.000 A 
ATOM     11  N   UNL     1       7.280   5.641  17.167  0.00  0.00    +0.000 NA
ATOM     12  O   UNL     1       7.607   5.606  15.810  0.00  0.00    +0.000 OA
BRANCH   8  13
ATOM     13  C   UNL     1       6.909   4.456  13.789  0.00  0.00    +0.000 C 
BRANCH  13  15
ATOM     14  C   UNL     1       5.966   3.071  11.912  0.00  0.00    +0.000 C 
ATOM     15  C   UNL     1       5.687   3.703  13.264  0.00  0.00    +0.000 C 
ENDBRANCH  13  15
ENDBRANCH   8  13
ENDBRANCH   7  10
ENDBRANCH   1   7
BRANCH   6  16
ATOM     16  C   UNL     1       3.205   6.323  17.970  0.00  0.00    +0.000 C 
BRANCH  16  17
ATOM     17  N   UNL     1       2.497   7.417  18.610  0.00  0.00    +0.000 N 
ATOM     18  C   UNL     1       1.978   8.542  18.043  0.00  0.00    +0.000 A 
ATOM     19  N   UNL     1       1.369   9.254  18.961  0.00  0.00    +0.000 NA
ATOM     20  C   UNL     1       1.520   8.505  20.087  0.00  0.00    +0.000 A 
ATOM     21  N   UNL     1       2.197   7.364  19.922  0.00  0.00    +0.000 NA
ENDBRANCH  16  17
ENDBRANCH   6  16
TORSDOF 6
ENDMDL
MODEL 3
REMARK VINA RESULT:      -7.3      1.361      1.618
REMARK  Name = 
REMARK  7 active torsions:
REMARK  status: ('A' for Active; 'I' for Inactive)
REMARK    1  A    between atoms: C_1  and  C_2
REMARK    2  A    between atoms: C_2  and  C_3
REMARK    3  A    between atoms: C_3  and  C_4
REMARK    4  A    between atoms: C_6  and  C_7
REMARK    5  A    between atoms: C_7  and  N_8
REMARK    6  A    between atoms: C_13  and  C_14
REMARK    7  A    between atoms: C_14  and  N_15
REMARK                            x       y       z     vdW  Elec       q    Type
REMARK                         _______ _______ _______ _____ _____    ______ ____
ROOT
ATOM      1  N   UNL     1       4.172   4.324  17.313  0.00  0.00    +0.000 NA
ATOM      2  C   UNL     1       3.902   2.931  17.732  0.00  0.00    +0.000 C 
ATOM      3  C   UNL     1       2.442   2.523  17.560  0.00  0.00    +0.000 C 
ATOM      4  C   UNL     1       1.520   3.517  18.245  0.00  0.00    +0.000 C 
ATOM      5  C   UNL     1       1.817   4.923  17.738  0.00  0.00    +0.000 C 
ATOM      6  C   UNL     1       3.293   5.307  18.015  0.00  0.00    +0.000 C 
ENDROOT
BRANCH   1   7
ATOM      7  C   UNL     1       5.633   4.598  17.386  0.00  0.00    +0.000 C 
BRANCH   7  10
ATOM      8  C   UNL     1       6.641   4.483  14.005  0.00  0.00    +0.000 A 
ATOM      9  N   UNL     1       5.807   4.079  14.934  0.00  0.00    +0.000 NA
ATOM     10  C   UNL     1       6.313   4.687  16.057  0.00  0.00    +0.000 A 
ATOM     11  N   UNL     1       7.422   5.412  15.849  0.00  0.00    +0.000 NA
ATOM     12  O   UNL     1       7.637   5.291  14.475  0.00  0.00    +0.000 OA
BRANCH   8  13
ATOM     13  C   UNL     1       6.610   4.228  12.549  0.00  0.00    +0.000 C 
BRANCH  13  15
ATOM     14  C   UNL     1       6.879   2.048  11.321  0.00  0.00    +0.000 C 
ATOM     15  C   UNL     1       6.004   2.853  12.265  0.00  0.00    +0.000 C 
ENDBRANCH  13  15
ENDBRANCH   8  13
ENDBRANCH   7  10
ENDBRANCH   1   7
BRANCH   6  16
ATOM     16  C   UNL     1       3.535   6.784  17.605  0.00  0.00    +0.000 C 
BRANCH  16  17
ATOM     17  N   UNL     1       2.621   7.740  18.202  0.00  0.00    +0.000 N 
ATOM     18  C   UNL     1       2.152   7.786  19.481  0.00  0.00    +0.000 A 
ATOM     19  N   UNL     1       1.387   8.842  19.629  0.00  0.00    +0.000 NA
ATOM     20  C   UNL     1       1.436   9.437  18.406  0.00  0.00    +0.000 A 
ATOM     21  N   UNL     1       2.186   8.804  17.498  0.00  0.00    +0.000 NA
ENDBRANCH  16  17
ENDBRANCH   6  16
TORSDOF 6
ENDMDL
MODEL 4
REMARK VINA RESULT:      -7.1      2.248      3.870
REMARK  Name = 
REMARK  7 active torsions:
REMARK  status: ('A' for Active; 'I' for Inactive)
REMARK    1  A    between atoms: C_1  and  C_2
REMARK    2  A    between atoms: C_2  and  C_3
REMARK    3  A    between atoms: C_3  and  C_4
REMARK    4  A    between atoms: C_6  and  C_7
REMARK    5  A    between atoms: C_7  and  N_8
REMARK    6  A    between atoms: C_13  and  C_14
REMARK    7  A    between atoms: C_14  and  N_15
REMARK                            x       y       z     vdW  Elec       q    Type
REMARK                         _______ _______ _______ _____ _____    ______ ____
ROOT
ATOM      1  N   UNL     1       4.743   5.162  18.062  0.00  0.00    +0.000 NA
ATOM      2  C   UNL     1       4.847   6.551  17.563  0.00  0.00    +0.000 C 
ATOM      3  C   UNL     1       3.649   7.417  17.942  0.00  0.00    +0.000 C 
ATOM      4  C   UNL     1       2.350   6.753  17.521  0.00  0.00    +0.000 C 
ATOM      5  C   UNL     1       2.283   5.345  18.103  0.00  0.00    +0.000 C 
ATOM      6  C   UNL     1       3.484   4.493  17.617  0.00  0.00    +0.000 C 
ENDROOT
BRANCH   1   7
ATOM      7  C   UNL     1       6.002   4.425  17.768  0.00  0.00    +0.000 C 
BRANCH   7  10
ATOM      8  C   UNL     1       6.745   4.375  14.317  0.00  0.00    +0.000 A 
ATOM      9  N   UNL     1       6.147   3.806  15.337  0.00  0.00    +0.000 NA
ATOM     10  C   UNL     1       6.522   4.619  16.378  0.00  0.00    +0.000 A 
ATOM     11  N   UNL     1       7.335   5.629  16.035  0.00  0.00    +0.000 NA
ATOM     12  O   UNL     1       7.475   5.478  14.654  0.00  0.00    +0.000 OA
BRANCH   8  13
ATOM     13  C   UNL     1       6.686   4.017  12.884  0.00  0.00    +0.000 C 
BRANCH  13  15
ATOM     14  C   UNL     1       5.393   2.322  11.547  0.00  0.00    +0.000 C 
ATOM     15  C   UNL     1       5.301   3.476  12.528  0.00  0.00    +0.000 C 
ENDBRANCH  13  15
ENDBRANCH   8  13
ENDBRANCH   7  10
ENDBRANCH   1   7
BRANCH   6  16
ATOM     16  C   UNL     1       3.325   3.033  18.117  0.00  0.00    +0.000 C 
BRANCH  16  17
ATOM     17  N   UNL     1       2.709   2.899  19.425  0.00  0.00    +0.000 N 
ATOM     18  C   UNL     1       1.416   2.596  19.729  0.00  0.00    +0.000 A 
ATOM     19  N   UNL     1       1.279   2.519  21.032  0.00  0.00    +0.000 NA
ATOM     20  C   UNL     1       2.538   2.760  21.492  0.00  0.00    +0.000 A 
ATOM     21  N   UNL     1       3.452   2.991  20.545  0.00  0.00    +0.000 NA
ENDBRANCH  16  17
ENDBRANCH   6  16
TORSDOF 6
ENDMDL
MODEL 5
REMARK VINA RESULT:      -7.0      1.435      1.797
REMARK  Name = 
REMARK  7 active torsions:
REMARK  status: ('A' for Active; 'I' for Inactive)
REMARK    1  A    between atoms: C_1  and  C_2
REMARK    2  A    between atoms: C_2  and  C_3
REMARK    3  A    between atoms: C_3  and  C_4
REMARK    4  A    between atoms: C_6  and  C_7
REMARK    5  A    between atoms: C_7  and  N_8
REMARK    6  A    between atoms: C_13  and  C_14
REMARK    7  A    between atoms: C_14  and  N_15
REMARK                            x       y       z     vdW  Elec       q    Type
REMARK                         _______ _______ _______ _____ _____    ______ ____
ROOT
ATOM      1  N   UNL     1       4.069   4.994  17.323  0.00  0.00    +0.000 NA
ATOM      2  C   UNL     1       4.276   3.591  17.743  0.00  0.00    +0.000 C 
ATOM      3  C   UNL     1       3.006   2.749  17.673  0.00  0.00    +0.000 C 
ATOM      4  C   UNL     1       1.875   3.415  18.437  0.00  0.00    +0.000 C 
ATOM      5  C   UNL     1       1.683   4.839  17.928  0.00  0.00    +0.000 C 
ATOM      6  C   UNL     1       2.984   5.664  18.100  0.00  0.00    +0.000 C 
ENDROOT
BRANCH   1   7
ATOM      7  C   UNL     1       5.375   5.709  17.292  0.00  0.00    +0.000 C 
BRANCH   7  10
ATOM      8  C   UNL     1       6.728   4.854  14.146  0.00  0.00    +0.000 A 
ATOM      9  N   UNL     1       5.691   4.855  14.951  0.00  0.00    +0.000 NA
ATOM     10  C   UNL     1       6.217   5.409  16.092  0.00  0.00    +0.000 A 
ATOM     11  N   UNL     1       7.521   5.713  16.019  0.00  0.00    +0.000 NA
ATOM     12  O   UNL     1       7.864   5.357  14.713  0.00  0.00    +0.000 OA
BRANCH   8  13
ATOM     13  C   UNL     1       6.808   4.440  12.729  0.00  0.00    +0.000 C 
BRANCH  13  15
ATOM     14  C   UNL     1       4.834   3.344  11.616  0.00  0.00    +0.000 C 
ATOM     15  C   UNL     1       6.040   3.135  12.514  0.00  0.00    +0.000 C 
ENDBRANCH  13  15
ENDBRANCH   8  13
ENDBRANCH   7  10
ENDBRANCH   1   7
BRANCH   6  16
ATOM     16  C   UNL     1       2.725   7.139  17.694  0.00  0.00    +0.000 C 
BRANCH  16  17
ATOM     17  N   UNL     1       2.125   7.961  18.728  0.00  0.00    +0.000 N 
ATOM     18  C   UNL     1       1.496   9.163  18.602  0.00  0.00    +0.000 A 
ATOM     19  N   UNL     1       1.046   9.547  19.773  0.00  0.00    +0.000 NA
ATOM     20  C   UNL     1       1.405   8.524  20.596  0.00  0.00    +0.000 A 
ATOM     21  N   UNL     1       2.061   7.523  20.001  0.00  0.00    +0.000 NA
ENDBRANCH  16  17
ENDBRANCH   6  16
TORSDOF 6
ENDMDL
MODEL 6
REMARK VINA RESULT:      -6.9      2.278      6.335
REMARK  Name = 
REMARK  7 active torsions:
REMARK  status: ('A' for Active; 'I' for Inactive)
REMARK    1  A    between atoms: C_1  and  C_2
REMARK    2  A    between atoms: C_2  and  C_3
REMARK    3  A    between atoms: C_3  and  C_4
REMARK    4  A    between atoms: C_6  and  C_7
REMARK    5  A    between atoms: C_7  and  N_8
REMARK    6  A    between atoms: C_13  and  C_14
REMARK    7  A    between atoms: C_14  and  N_15
REMARK                            x       y       z     vdW  Elec       q    Type
REMARK                         _______ _______ _______ _____ _____    ______ ____
ROOT
ATOM      1  N   UNL     1       2.706   4.888  18.873  0.00  0.00    +0.000 NA
ATOM      2  C   UNL     1       1.384   4.271  18.628  0.00  0.00    +0.000 C 
ATOM      3  C   UNL     1       1.092   3.089  19.546  0.00  0.00    +0.000 C 
ATOM      4  C   UNL     1       2.219   2.072  19.490  0.00  0.00    +0.000 C 
ATOM      5  C   UNL     1       3.544   2.760  19.795  0.00  0.00    +0.000 C 
ATOM      6  C   UNL     1       3.819   3.897  18.779  0.00  0.00    +0.000 C 
ENDROOT
BRANCH   1   7
ATOM      7  C   UNL     1       2.856   6.108  18.033  0.00  0.00    +0.000 C 
BRANCH   7  10
ATOM      8  C   UNL     1       1.404   9.233  18.798  0.00  0.00    +0.000 A 
ATOM      9  N   UNL     1       1.896   8.425  17.889  0.00  0.00    +0.000 NA
ATOM     10  C   UNL     1       2.301   7.354  18.647  0.00  0.00    +0.000 A 
ATOM     11  N   UNL     1       2.099   7.493  19.965  0.00  0.00    +0.000 NA
ATOM     12  O   UNL     1       1.485   8.743  20.070  0.00  0.00    +0.000 OA
BRANCH   8  13
ATOM     13  C   UNL     1       0.743  10.543  18.621  0.00  0.00    +0.000 C 
BRANCH  13  15
ATOM     14  C   UNL     1      -1.470  10.022  17.543  0.00  0.00    +0.000 C 
ATOM     15  C   UNL     1      -0.766  10.409  18.830  0.00  0.00    +0.000 C 
ENDBRANCH  13  15
ENDBRANCH   8  13
ENDBRANCH   7  10
ENDBRANCH   1   7
BRANCH   6  16
ATOM     16  C   UNL     1       5.228   4.496  19.032  0.00  0.00    +0.000 C 
BRANCH  16  17
ATOM     17  N   UNL     1       6.099   4.521  17.871  0.00  0.00    +0.000 N 
ATOM     18  C   UNL     1       7.454   4.655  17.826  0.00  0.00    +0.000 A 
ATOM     19  N   UNL     1       7.862   4.573  16.582  0.00  0.00    +0.000 NA
ATOM     20  C   UNL     1       6.709   4.360  15.890  0.00  0.00    +0.000 A 
ATOM     21  N   UNL     1       5.601   4.311  16.636  0.00  0.00    +0.000 NA
ENDBRANCH  16  17
ENDBRANCH   6  16
TORSDOF 6
ENDMDL
MODEL 7
REMARK VINA RESULT:      -6.9      2.384      4.116
REMARK  Name = 
REMARK  7 active torsions:
REMARK  status: ('A' for Active; 'I' for Inactive)
REMARK    1  A    between atoms: C_1  and  C_2
REMARK    2  A    between atoms: C_2  and  C_3
REMARK    3  A    between atoms: C_3  and  C_4
REMARK    4  A    between atoms: C_6  and  C_7
REMARK    5  A    between atoms: C_7  and  N_8
REMARK    6  A    between atoms: C_13  and  C_14
REMARK    7  A    between atoms: C_14  and  N_15
REMARK                            x       y       z     vdW  Elec       q    Type
REMARK                         _______ _______ _______ _____ _____    ______ ____
ROOT
ATOM      1  N   UNL     1       5.501   5.473  17.801  0.00  0.00    +0.000 NA
ATOM      2  C   UNL     1       5.243   6.553  16.824  0.00  0.00    +0.000 C 
ATOM      3  C   UNL     1       4.274   7.612  17.340  0.00  0.00    +0.000 C 
ATOM      4  C   UNL     1       2.990   6.972  17.837  0.00  0.00    +0.000 C 
ATOM      5  C   UNL     1       3.320   5.902  18.872  0.00  0.00    +0.000 C 
ATOM      6  C   UNL     1       4.242   4.815  18.262  0.00  0.00    +0.000 C 
ENDROOT
BRANCH   1   7
ATOM      7  C   UNL     1       6.551   4.558  17.276  0.00  0.00    +0.000 C 
BRANCH   7  10
ATOM      8  C   UNL     1       6.235   4.061  13.795  0.00  0.00    +0.000 A 
ATOM      9  N   UNL     1       5.897   3.695  15.009  0.00  0.00    +0.000 NA
ATOM     10  C   UNL     1       6.660   4.532  15.784  0.00  0.00    +0.000 A 
ATOM     11  N   UNL     1       7.457   5.362  15.095  0.00  0.00    +0.000 NA
ATOM     12  O   UNL     1       7.165   5.061  13.763  0.00  0.00    +0.000 OA
BRANCH   8  13
ATOM     13  C   UNL     1       5.714   3.582  12.498  0.00  0.00    +0.000 C 
BRANCH  13  15
ATOM     14  C   UNL     1       6.216   1.435  11.285  0.00  0.00    +0.000 C 
ATOM     15  C   UNL     1       6.777   2.759  11.770  0.00  0.00    +0.000 C 
ENDBRANCH  13  15
ENDBRANCH   8  13
ENDBRANCH   7  10
ENDBRANCH   1   7
BRANCH   6  16
ATOM     16  C   UNL     1       4.459   3.675  19.293  0.00  0.00    +0.000 C 
BRANCH  16  17
ATOM     17  N   UNL     1       3.240   3.081  19.811  0.00  0.00    +0.000 N 
ATOM     18  C   UNL     1       2.809   3.011  21.102  0.00  0.00    +0.000 A 
ATOM     19  N   UNL     1       1.629   2.439  21.140  0.00  0.00    +0.000 NA
ATOM     20  C   UNL     1       1.359   2.195  19.828  0.00  0.00    +0.000 A 
ATOM     21  N   UNL     1       2.312   2.578  18.973  0.00  0.00    +0.000 NA
ENDBRANCH  16  17
ENDBRANCH   6  16
TORSDOF 6
ENDMDL
MODEL 8
REMARK VINA RESULT:      -6.9      0.756      1.047
REMARK  Name = 
REMARK  7 active torsions:
REMARK  status: ('A' for Active; 'I' for Inactive)
REMARK    1  A    between atoms: C_1  and  C_2
REMARK    2  A    between atoms: C_2  and  C_3
REMARK    3  A    between atoms: C_3  and  C_4
REMARK    4  A    between atoms: C_6  and  C_7
REMARK    5  A    between atoms: C_7  and  N_8
REMARK    6  A    between atoms: C_13  and  C_14
REMARK    7  A    between atoms: C_14  and  N_15
REMARK                            x       y       z     vdW  Elec       q    Type
REMARK                         _______ _______ _______ _____ _____    ______ ____
ROOT
ATOM      1  N   UNL     1       3.952   4.211  19.031  0.00  0.00    +0.000 NA
ATOM      2  C   UNL     1       3.798   3.101  19.997  0.00  0.00    +0.000 C 
ATOM      3  C   UNL     1       2.425   2.439  19.939  0.00  0.00    +0.000 C 
ATOM      4  C   UNL     1       1.322   3.475  20.075  0.00  0.00    +0.000 C 
ATOM      5  C   UNL     1       1.511   4.564  19.025  0.00  0.00    +0.000 C 
ATOM      6  C   UNL     1       2.892   5.250  19.189  0.00  0.00    +0.000 C 
ENDROOT
BRANCH   1   7
ATOM      7  C   UNL     1       5.354   4.711  19.058  0.00  0.00    +0.000 C 
BRANCH   7  10
ATOM      8  C   UNL     1       6.483   4.208  15.751  0.00  0.00    +0.000 A 
ATOM      9  N   UNL     1       5.480   4.214  16.599  0.00  0.00    +0.000 NA
ATOM     10  C   UNL     1       6.111   4.502  17.784  0.00  0.00    +0.000 A 
ATOM     11  N   UNL     1       7.441   4.642  17.692  0.00  0.00    +0.000 NA
ATOM     12  O   UNL     1       7.693   4.460  16.331  0.00  0.00    +0.000 OA
BRANCH   8  13
ATOM     13  C   UNL     1       6.462   4.022  14.285  0.00  0.00    +0.000 C 
BRANCH  13  15
ATOM     14  C   UNL     1       7.458   4.801  12.110  0.00  0.00    +0.000 C 
ATOM     15  C   UNL     1       7.402   5.021  13.610  0.00  0.00    +0.000 C 
ENDBRANCH  13  15
ENDBRANCH   8  13
ENDBRANCH   7  10
ENDBRANCH   1   7
BRANCH   6  16
ATOM     16  C   UNL     1       3.008   6.436  18.195  0.00  0.00    +0.000 C 
BRANCH  16  17
ATOM     17  N   UNL     1       2.345   7.655  18.619  0.00  0.00    +0.000 N 
ATOM     18  C   UNL     1       1.983   8.733  17.868  0.00  0.00    +0.000 A 
ATOM     19  N   UNL     1       1.358   9.604  18.624  0.00  0.00    +0.000 NA
ATOM     20  C   UNL     1       1.336   8.999  19.843  0.00  0.00    +0.000 A 
ATOM     21  N   UNL     1       1.921   7.798  19.890  0.00  0.00    +0.000 NA
ENDBRANCH  16  17
ENDBRANCH   6  16
TORSDOF 6
ENDMDL
MODEL 9
REMARK VINA RESULT:      -6.8      2.554      6.709
REMARK  Name = 
REMARK  7 active torsions:
REMARK  status: ('A' for Active; 'I' for Inactive)
REMARK    1  A    between atoms: C_1  and  C_2
REMARK    2  A    between atoms: C_2  and  C_3
REMARK    3  A    between atoms: C_3  and  C_4
REMARK    4  A    between atoms: C_6  and  C_7
REMARK    5  A    between atoms: C_7  and  N_8
REMARK    6  A    between atoms: C_13  and  C_14
REMARK    7  A    between atoms: C_14  and  N_15
REMARK                            x       y       z     vdW  Elec       q    Type
REMARK                         _______ _______ _______ _____ _____    ______ ____
ROOT
ATOM      1  N   UNL     1       2.921   4.821  18.380  0.00  0.00    +0.000 NA
ATOM      2  C   UNL     1       1.563   4.308  18.096  0.00  0.00    +0.000 C 
ATOM      3  C   UNL     1       1.310   2.921  18.676  0.00  0.00    +0.000 C 
ATOM      4  C   UNL     1       2.393   1.948  18.240  0.00  0.00    +0.000 C 
ATOM      5  C   UNL     1       3.762   2.513  18.601  0.00  0.00    +0.000 C 
ATOM      6  C   UNL     1       3.988   3.885  17.916  0.00  0.00    +0.000 C 
ENDROOT
BRANCH   1   7
ATOM      7  C   UNL     1       3.041   6.224  17.898  0.00  0.00    +0.000 C 
BRANCH   7  10
ATOM      8  C   UNL     1       1.614   8.206  20.448  0.00  0.00    +0.000 A 
ATOM      9  N   UNL     1       2.198   7.082  20.104  0.00  0.00    +0.000 NA
ATOM     10  C   UNL     1       2.331   7.232  18.746  0.00  0.00    +0.000 A 
ATOM     11  N   UNL     1       1.833   8.378  18.258  0.00  0.00    +0.000 NA
ATOM     12  O   UNL     1       1.365   9.039  19.395  0.00  0.00    +0.000 OA
BRANCH   8  13
ATOM     13  C   UNL     1       1.252   8.694  21.795  0.00  0.00    +0.000 C 
BRANCH  13  15
ATOM     14  C   UNL     1      -0.482  10.466  22.225  0.00  0.00    +0.000 C 
ATOM     15  C   UNL     1      -0.242   9.013  21.860  0.00  0.00    +0.000 C 
ENDBRANCH  13  15
ENDBRANCH   8  13
ENDBRANCH   7  10
ENDBRANCH   1   7
BRANCH   6  16
ATOM     16  C   UNL     1       5.433   4.376  18.195  0.00  0.00    +0.000 C 
BRANCH  16  17
ATOM     17  N   UNL     1       6.185   4.764  17.016  0.00  0.00    +0.000 N 
ATOM     18  C   UNL     1       7.023   5.826  16.852  0.00  0.00    +0.000 A 
ATOM     19  N   UNL     1       7.547   5.789  15.650  0.00  0.00    +0.000 NA
ATOM     20  C   UNL     1       7.013   4.658  15.112  0.00  0.00    +0.000 A 
ATOM     21  N   UNL     1       6.179   3.989  15.913  0.00  0.00    +0.000 NA
ENDBRANCH  16  17
ENDBRANCH   6  16
TORSDOF 6
ENDMDL
