MODEL 1
REMARK VINA RESULT:      -7.6      0.000      0.000
REMARK  Name = 
REMARK  4 active torsions:
REMARK  status: ('A' for Active; 'I' for Inactive)
REMARK    1  A    between atoms: C_1  and  C_2
REMARK    2  A    between atoms: C_2  and  O_3
REMARK    3  A    between atoms: O_3  and  C_4
REMARK    4  A    between atoms: C_4  and  C_6
REMARK                            x       y       z     vdW  Elec       q    Type
REMARK                         _______ _______ _______ _____ _____    ______ ____
ROOT
ATOM      1  C   UNL     1       3.159   6.351  18.036  0.00  0.00    +0.000 A 
ATOM      2  C   UNL     1       4.276   6.731  17.283  0.00  0.00    +0.000 A 
ATOM      3  C   UNL     1       5.021   5.817  16.575  0.00  0.00    +0.000 A 
ATOM      4  N   UNL     1       6.060   6.298  15.871  0.00  0.00    +0.000 NA
ATOM      5  C   UNL     1       6.814   5.431  15.170  0.00  0.00    +0.000 A 
ATOM      6  C   UNL     1       6.578   4.076  15.141  0.00  0.00    +0.000 A 
ATOM      7  C   UNL     1       5.498   3.590  15.872  0.00  0.00    +0.000 A 
ATOM      8  C   UNL     1       4.665   4.453  16.623  0.00  0.00    +0.000 A 
ATOM      9  C   UNL     1       3.520   4.030  17.393  0.00  0.00    +0.000 A 
ATOM     10  C   UNL     1       3.106   2.674  17.471  0.00  0.00    +0.000 A 
ATOM     11  C   UNL     1       1.985   2.268  18.195  0.00  0.00    +0.000 A 
ATOM     12  C   UNL     1       1.226   3.211  18.860  0.00  0.00    +0.000 A 
ATOM     13  C   UNL     1       1.605   4.551  18.811  0.00  0.00    +0.000 A 
ATOM     14  C   UNL     1       2.752   4.994  18.101  0.00  0.00    +0.000 A 
ENDROOT
BRANCH   1  15
ATOM     15  C   UNL     1       2.399   7.431  18.726  0.00  0.00    +0.000 C 
ATOM     16  O   UNL     1       2.260   7.544  19.928  0.00  0.00    +0.000 OA
BRANCH  15  17
ATOM     17  O   UNL     1       1.776   8.171  17.774  0.00  0.00    +0.000 OA
BRANCH  17  19
ATOM     18  C   UNL     1       0.326   9.987  18.249  0.00  0.00    +0.000 C 
ATOM     19  C   UNL     1       1.769   9.584  18.002  0.00  0.00    +0.000 C 
ENDBRANCH  17  19
ENDBRANCH  15  17
ENDBRANCH   1  15
TORSDOF 3
ENDMDL
MODEL 2
REMARK VINA RESULT:      -7.5      3.166      5.641
REMARK  Name = 
REMARK  4 active torsions:
REMARK  status: ('A' for Active; 'I' for Inactive)
REMARK    1  A    between atoms: C_1  and  C_2
REMARK    2  A    between atoms: C_2  and  O_3
REMARK    3  A    between atoms: O_3  and  C_4
REMARK    4  A    between atoms: C_4  and  C_6
REMARK                            x       y       z     vdW  Elec       q    Type
REMARK                         _______ _______ _______ _____ _____    ______ ____
ROOT
ATOM      1  C   UNL     1       5.096   4.679  18.346  0.00  0.00    +0.000 A 
ATOM      2  C   UNL     1       4.809   3.588  19.174  0.00  0.00    +0.000 A 
ATOM      3  C   UNL     1       3.652   3.523  19.916  0.00  0.00    +0.000 A 
ATOM      4  N   UNL     1       3.470   2.419  20.660  0.00  0.00    +0.000 NA
ATOM      5  C   UNL     1       2.351   2.323  21.402  0.00  0.00    +0.000 A 
ATOM      6  C   UNL     1       1.385   3.302  21.440  0.00  0.00    +0.000 A 
ATOM      7  C   UNL     1       1.582   4.440  20.664  0.00  0.00    +0.000 A 
ATOM      8  C   UNL     1       2.735   4.594  19.858  0.00  0.00    +0.000 A 
ATOM      9  C   UNL     1       3.005   5.734  19.015  0.00  0.00    +0.000 A 
ATOM     10  C   UNL     1       2.117   6.836  18.906  0.00  0.00    +0.000 A 
ATOM     11  C   UNL     1       2.366   7.926  18.072  0.00  0.00    +0.000 A 
ATOM     12  C   UNL     1       3.513   7.947  17.303  0.00  0.00    +0.000 A 
ATOM     13  C   UNL     1       4.411   6.886  17.387  0.00  0.00    +0.000 A 
ATOM     14  C   UNL     1       4.198   5.771  18.242  0.00  0.00    +0.000 A 
ENDROOT
BRANCH   1  15
ATOM     15  C   UNL     1       6.356   4.622  17.554  0.00  0.00    +0.000 C 
ATOM     16  O   UNL     1       6.431   4.491  16.347  0.00  0.00    +0.000 OA
BRANCH  15  17
ATOM     17  O   UNL     1       7.394   4.594  18.428  0.00  0.00    +0.000 OA
BRANCH  17  19
ATOM     18  C   UNL     1       7.915   6.901  18.253  0.00  0.00    +0.000 C 
ATOM     19  C   UNL     1       7.567   5.779  19.214  0.00  0.00    +0.000 C 
ENDBRANCH  17  19
ENDBRANCH  15  17
ENDBRANCH   1  15
TORSDOF 3
ENDMDL
MODEL 3
REMARK VINA RESULT:      -7.4      3.000      5.737
REMARK  Name = 
REMARK  4 active torsions:
REMARK  status: ('A' for Active; 'I' for Inactive)
REMARK    1  A    between atoms: C_1  and  C_2
REMARK    2  A    between atoms: C_2  and  O_3
REMARK    3  A    between atoms: O_3  and  C_4
REMARK    4  A    between atoms: C_4  and  C_6
REMARK                            x       y       z     vdW  Elec       q    Type
REMARK                         _______ _______ _______ _____ _____    ______ ____
ROOT
ATOM      1  C   UNL     1       5.193   4.658  18.296  0.00  0.00    +0.000 A 
ATOM      2  C   UNL     1       4.862   3.585  19.131  0.00  0.00    +0.000 A 
ATOM      3  C   UNL     1       3.695   3.563  19.860  0.00  0.00    +0.000 A 
ATOM      4  N   UNL     1       3.470   2.472  20.611  0.00  0.00    +0.000 NA
ATOM      5  C   UNL     1       2.340   2.419  21.341  0.00  0.00    +0.000 A 
ATOM      6  C   UNL     1       1.405   3.427  21.359  0.00  0.00    +0.000 A 
ATOM      7  C   UNL     1       1.646   4.551  20.574  0.00  0.00    +0.000 A 
ATOM      8  C   UNL     1       2.813   4.662  19.781  0.00  0.00    +0.000 A 
ATOM      9  C   UNL     1       3.129   5.784  18.930  0.00  0.00    +0.000 A 
ATOM     10  C   UNL     1       2.277   6.913  18.801  0.00  0.00    +0.000 A 
ATOM     11  C   UNL     1       2.570   7.986  17.960  0.00  0.00    +0.000 A 
ATOM     12  C   UNL     1       3.726   7.964  17.205  0.00  0.00    +0.000 A 
ATOM     13  C   UNL     1       4.589   6.875  17.309  0.00  0.00    +0.000 A 
ATOM     14  C   UNL     1       4.331   5.776  18.171  0.00  0.00    +0.000 A 
ENDROOT
BRANCH   1  15
ATOM     15  C   UNL     1       6.460   4.554  17.520  0.00  0.00    +0.000 C 
ATOM     16  O   UNL     1       7.533   5.022  17.847  0.00  0.00    +0.000 OA
BRANCH  15  17
ATOM     17  O   UNL     1       6.168   3.978  16.326  0.00  0.00    +0.000 OA
BRANCH  17  19
ATOM     18  C   UNL     1       6.068   4.045  13.958  0.00  0.00    +0.000 C 
ATOM     19  C   UNL     1       6.779   4.587  15.184  0.00  0.00    +0.000 C 
ENDBRANCH  17  19
ENDBRANCH  15  17
ENDBRANCH   1  15
TORSDOF 3
ENDMDL
MODEL 4
REMARK VINA RESULT:      -7.4      2.849      5.763
REMARK  Name = 
REMARK  4 active torsions:
REMARK  status: ('A' for Active; 'I' for Inactive)
REMARK    1  A    between atoms: C_1  and  C_2
REMARK    2  A    between atoms: C_2  and  O_3
REMARK    3  A    between atoms: O_3  and  C_4
REMARK    4  A    between atoms: C_4  and  C_6
REMARK                            x       y       z     vdW  Elec       q    Type
REMARK                         _______ _______ _______ _____ _____    ______ ____
ROOT
ATOM      1  C   UNL     1       4.730   4.258  17.088  0.00  0.00    +0.000 A 
ATOM      2  C   UNL     1       4.188   3.075  17.603  0.00  0.00    +0.000 A 
ATOM      3  C   UNL     1       3.058   3.075  18.388  0.00  0.00    +0.000 A 
ATOM      4  N   UNL     1       2.614   1.879  18.810  0.00  0.00    +0.000 NA
ATOM      5  C   UNL     1       1.513   1.841  19.584  0.00  0.00    +0.000 A 
ATOM      6  C   UNL     1       0.821   2.966  19.967  0.00  0.00    +0.000 A 
ATOM      7  C   UNL     1       1.287   4.200  19.521  0.00  0.00    +0.000 A 
ATOM      8  C   UNL     1       2.436   4.302  18.700  0.00  0.00    +0.000 A 
ATOM      9  C   UNL     1       2.973   5.538  18.185  0.00  0.00    +0.000 A 
ATOM     10  C   UNL     1       2.387   6.802  18.456  0.00  0.00    +0.000 A 
ATOM     11  C   UNL     1       2.891   7.995  17.937  0.00  0.00    +0.000 A 
ATOM     12  C   UNL     1       4.001   7.964  17.115  0.00  0.00    +0.000 A 
ATOM     13  C   UNL     1       4.607   6.743  16.832  0.00  0.00    +0.000 A 
ATOM     14  C   UNL     1       4.131   5.514  17.360  0.00  0.00    +0.000 A 
ENDROOT
BRANCH   1  15
ATOM     15  C   UNL     1       5.930   4.136  16.213  0.00  0.00    +0.000 C 
ATOM     16  O   UNL     1       7.081   4.320  16.557  0.00  0.00    +0.000 OA
BRANCH  15  17
ATOM     17  O   UNL     1       5.497   3.929  14.943  0.00  0.00    +0.000 OA
BRANCH  17  19
ATOM     18  C   UNL     1       5.981   3.505  12.661  0.00  0.00    +0.000 C 
ATOM     19  C   UNL     1       6.450   4.220  13.915  0.00  0.00    +0.000 C 
ENDBRANCH  17  19
ENDBRANCH  15  17
ENDBRANCH   1  15
TORSDOF 3
ENDMDL
MODEL 5
REMARK VINA RESULT:      -7.4      2.547      5.324
REMARK  Name = 
REMARK  4 active torsions:
REMARK  status: ('A' for Active; 'I' for Inactive)
REMARK    1  A    between atoms: C_1  and  C_2
REMARK    2  A    between atoms: C_2  and  O_3
REMARK    3  A    between atoms: O_3  and  C_4
REMARK    4  A    between atoms: C_4  and  C_6
REMARK                            x       y       z     vdW  Elec       q    Type
REMARK                         _______ _______ _______ _____ _____    ______ ____
ROOT
ATOM      1  C   UNL     1       3.794   4.507  19.197  0.00  0.00    +0.000 A 
ATOM      2  C   UNL     1       2.951   5.391  19.880  0.00  0.00    +0.000 A 
ATOM      3  C   UNL     1       2.643   6.635  19.379  0.00  0.00    +0.000 A 
ATOM      4  N   UNL     1       1.807   7.391  20.109  0.00  0.00    +0.000 NA
ATOM      5  C   UNL     1       1.487   8.617  19.653  0.00  0.00    +0.000 A 
ATOM      6  C   UNL     1       1.976   9.135  18.476  0.00  0.00    +0.000 A 
ATOM      7  C   UNL     1       2.839   8.341  17.726  0.00  0.00    +0.000 A 
ATOM      8  C   UNL     1       3.207   7.042  18.152  0.00  0.00    +0.000 A 
ATOM      9  C   UNL     1       4.081   6.153  17.426  0.00  0.00    +0.000 A 
ATOM     10  C   UNL     1       4.671   6.502  16.182  0.00  0.00    +0.000 A 
ATOM     11  C   UNL     1       5.496   5.633  15.468  0.00  0.00    +0.000 A 
ATOM     12  C   UNL     1       5.754   4.373  15.970  0.00  0.00    +0.000 A 
ATOM     13  C   UNL     1       5.198   3.997  17.190  0.00  0.00    +0.000 A 
ATOM     14  C   UNL     1       4.371   4.865  17.952  0.00  0.00    +0.000 A 
ENDROOT
BRANCH   1  15
ATOM     15  C   UNL     1       4.022   3.168  19.810  0.00  0.00    +0.000 C 
ATOM     16  O   UNL     1       5.105   2.649  19.998  0.00  0.00    +0.000 OA
BRANCH  15  17
ATOM     17  O   UNL     1       2.811   2.580  19.982  0.00  0.00    +0.000 OA
BRANCH  17  19
ATOM     18  C   UNL     1       0.798   2.428  18.737  0.00  0.00    +0.000 C 
ATOM     19  C   UNL     1       2.247   1.981  18.811  0.00  0.00    +0.000 C 
ENDBRANCH  17  19
ENDBRANCH  15  17
ENDBRANCH   1  15
TORSDOF 3
ENDMDL
MODEL 6
REMARK VINA RESULT:      -7.4      2.698      5.245
REMARK  Name = 
REMARK  4 active torsions:
REMARK  status: ('A' for Active; 'I' for Inactive)
REMARK    1  A    between atoms: C_1  and  C_2
REMARK    2  A    between atoms: C_2  and  O_3
REMARK    3  A    between atoms: O_3  and  C_4
REMARK    4  A    between atoms: C_4  and  C_6
REMARK                            x       y       z     vdW  Elec       q    Type
REMARK                         _______ _______ _______ _____ _____    ______ ____
ROOT
ATOM      1  C   UNL     1       4.364   5.667  17.555  0.00  0.00    +0.000 A 
ATOM      2  C   UNL     1       4.474   4.423  18.186  0.00  0.00    +0.000 A 
ATOM      3  C   UNL     1       3.735   4.106  19.302  0.00  0.00    +0.000 A 
ATOM      4  N   UNL     1       3.906   2.874  19.812  0.00  0.00    +0.000 NA
ATOM      5  C   UNL     1       3.202   2.531  20.908  0.00  0.00    +0.000 A 
ATOM      6  C   UNL     1       2.319   3.379  21.534  0.00  0.00    +0.000 A 
ATOM      7  C   UNL     1       2.147   4.651  20.995  0.00  0.00    +0.000 A 
ATOM      8  C   UNL     1       2.855   5.067  19.842  0.00  0.00    +0.000 A 
ATOM      9  C   UNL     1       2.721   6.360  19.214  0.00  0.00    +0.000 A 
ATOM     10  C   UNL     1       1.845   7.364  19.703  0.00  0.00    +0.000 A 
ATOM     11  C   UNL     1       1.698   8.604  19.082  0.00  0.00    +0.000 A 
ATOM     12  C   UNL     1       2.417   8.882  17.937  0.00  0.00    +0.000 A 
ATOM     13  C   UNL     1       3.292   7.923  17.430  0.00  0.00    +0.000 A 
ATOM     14  C   UNL     1       3.480   6.659  18.050  0.00  0.00    +0.000 A 
ENDROOT
BRANCH   1  15
ATOM     15  C   UNL     1       5.178   5.885  16.327  0.00  0.00    +0.000 C 
ATOM     16  O   UNL     1       5.195   5.162  15.349  0.00  0.00    +0.000 OA
BRANCH  15  17
ATOM     17  O   UNL     1       5.999   6.942  16.556  0.00  0.00    +0.000 OA
BRANCH  17  19
ATOM     18  C   UNL     1       7.816   7.967  17.684  0.00  0.00    +0.000 C 
ATOM     19  C   UNL     1       7.201   6.641  17.272  0.00  0.00    +0.000 C 
ENDBRANCH  17  19
ENDBRANCH  15  17
ENDBRANCH   1  15
TORSDOF 3
ENDMDL
MODEL 7
REMARK VINA RESULT:      -7.3      2.625      5.519
REMARK  Name = 
REMARK  4 active torsions:
REMARK  status: ('A' for Active; 'I' for Inactive)
REMARK    1  A    between atoms: C_1  and  C_2
REMARK    2  A    between atoms: C_2  and  O_3
REMARK    3  A    between atoms: O_3  and  C_4
REMARK    4  A    between atoms: C_4  and  C_6
REMARK                            x       y       z     vdW  Elec       q    Type
REMARK                         _______ _______ _______ _____ _____    ______ ____
ROOT
ATOM      1  C   UNL     1       4.541   5.494  17.668  0.00  0.00    +0.000 A 
ATOM      2  C   UNL     1       4.626   4.271  18.343  0.00  0.00    +0.000 A 
ATOM      3  C   UNL     1       3.836   3.986  19.433  0.00  0.00    +0.000 A 
ATOM      4  N   UNL     1       3.987   2.773  19.989  0.00  0.00    +0.000 NA
ATOM      5  C   UNL     1       3.234   2.461  21.061  0.00  0.00    +0.000 A 
ATOM      6  C   UNL     1       2.318   3.324  21.616  0.00  0.00    +0.000 A 
ATOM      7  C   UNL     1       2.167   4.577  21.029  0.00  0.00    +0.000 A 
ATOM      8  C   UNL     1       2.927   4.959  19.898  0.00  0.00    +0.000 A 
ATOM      9  C   UNL     1       2.819   6.231  19.224  0.00  0.00    +0.000 A 
ATOM     10  C   UNL     1       1.916   7.245  19.638  0.00  0.00    +0.000 A 
ATOM     11  C   UNL     1       1.794   8.464  18.971  0.00  0.00    +0.000 A 
ATOM     12  C   UNL     1       2.566   8.709  17.853  0.00  0.00    +0.000 A 
ATOM     13  C   UNL     1       3.468   7.740  17.420  0.00  0.00    +0.000 A 
ATOM     14  C   UNL     1       3.631   6.497  18.088  0.00  0.00    +0.000 A 
ENDROOT
BRANCH   1  15
ATOM     15  C   UNL     1       5.413   5.677  16.474  0.00  0.00    +0.000 C 
ATOM     16  O   UNL     1       6.126   6.637  16.256  0.00  0.00    +0.000 OA
BRANCH  15  17
ATOM     17  O   UNL     1       5.155   4.659  15.613  0.00  0.00    +0.000 OA
BRANCH  17  19
ATOM     18  C   UNL     1       5.901   3.843  13.515  0.00  0.00    +0.000 C 
ATOM     19  C   UNL     1       6.301   4.107  14.956  0.00  0.00    +0.000 C 
ENDBRANCH  17  19
ENDBRANCH  15  17
ENDBRANCH   1  15
TORSDOF 3
ENDMDL
MODEL 8
REMARK VINA RESULT:      -7.1      0.971      1.401
REMARK  Name = 
REMARK  4 active torsions:
REMARK  status: ('A' for Active; 'I' for Inactive)
REMARK    1  A    between atoms: C_1  and  C_2
REMARK    2  A    between atoms: C_2  and  O_3
REMARK    3  A    between atoms: O_3  and  C_4
REMARK    4  A    between atoms: C_4  and  C_6
REMARK                            x       y       z     vdW  Elec       q    Type
REMARK                         _______ _______ _______ _____ _____    ______ ____
ROOT
ATOM      1  C   UNL     1       3.084   6.465  18.046  0.00  0.00    +0.000 A 
ATOM      2  C   UNL     1       4.229   6.862  17.346  0.00  0.00    +0.000 A 
ATOM      3  C   UNL     1       5.021   5.959  16.676  0.00  0.00    +0.000 A 
ATOM      4  N   UNL     1       6.084   6.454  16.021  0.00  0.00    +0.000 NA
ATOM      5  C   UNL     1       6.884   5.599  15.358  0.00  0.00    +0.000 A 
ATOM      6  C   UNL     1       6.670   4.240  15.320  0.00  0.00    +0.000 A 
ATOM      7  C   UNL     1       5.565   3.738  16.000  0.00  0.00    +0.000 A 
ATOM      8  C   UNL     1       4.684   4.589  16.710  0.00  0.00    +0.000 A 
ATOM      9  C   UNL     1       3.510   4.149  17.425  0.00  0.00    +0.000 A 
ATOM     10  C   UNL     1       3.114   2.787  17.486  0.00  0.00    +0.000 A 
ATOM     11  C   UNL     1       1.966   2.365  18.156  0.00  0.00    +0.000 A 
ATOM     12  C   UNL     1       1.162   3.297  18.784  0.00  0.00    +0.000 A 
ATOM     13  C   UNL     1       1.522   4.642  18.750  0.00  0.00    +0.000 A 
ATOM     14  C   UNL     1       2.695   5.102  18.094  0.00  0.00    +0.000 A 
ENDROOT
BRANCH   1  15
ATOM     15  C   UNL     1       2.276   7.534  18.697  0.00  0.00    +0.000 C 
ATOM     16  O   UNL     1       1.689   8.430  18.122  0.00  0.00    +0.000 OA
BRANCH  15  17
ATOM     17  O   UNL     1       2.434   7.413  20.040  0.00  0.00    +0.000 OA
BRANCH  17  19
ATOM     18  C   UNL     1       1.446   8.842  21.655  0.00  0.00    +0.000 C 
ATOM     19  C   UNL     1       1.245   7.592  20.816  0.00  0.00    +0.000 C 
ENDBRANCH  17  19
ENDBRANCH  15  17
ENDBRANCH   1  15
TORSDOF 3
ENDMDL
MODEL 9
REMARK VINA RESULT:      -7.1      2.733      5.490
REMARK  Name = 
REMARK  4 active torsions:
REMARK  status: ('A' for Active; 'I' for Inactive)
REMARK    1  A    between atoms: C_1  and  C_2
REMARK    2  A    between atoms: C_2  and  O_3
REMARK    3  A    between atoms: O_3  and  C_4
REMARK    4  A    between atoms: C_4  and  C_6
REMARK                            x       y       z     vdW  Elec       q    Type
REMARK                         _______ _______ _______ _____ _____    ______ ____
ROOT
ATOM      1  C   UNL     1       4.482   4.639  16.960  0.00  0.00    +0.000 A 
ATOM      2  C   UNL     1       4.077   3.377  17.408  0.00  0.00    +0.000 A 
ATOM      3  C   UNL     1       3.036   3.219  18.293  0.00  0.00    +0.000 A 
ATOM      4  N   UNL     1       2.720   1.960  18.638  0.00  0.00    +0.000 NA
ATOM      5  C   UNL     1       1.709   1.767  19.505  0.00  0.00    +0.000 A 
ATOM      6  C   UNL     1       0.984   2.797  20.060  0.00  0.00    +0.000 A 
ATOM      7  C   UNL     1       1.317   4.097  19.693  0.00  0.00    +0.000 A 
ATOM      8  C   UNL     1       2.367   4.361  18.780  0.00  0.00    +0.000 A 
ATOM      9  C   UNL     1       2.763   5.677  18.338  0.00  0.00    +0.000 A 
ATOM     10  C   UNL     1       2.123   6.862  18.785  0.00  0.00    +0.000 A 
ATOM     11  C   UNL     1       2.490   8.132  18.339  0.00  0.00    +0.000 A 
ATOM     12  C   UNL     1       3.509   8.261  17.416  0.00  0.00    +0.000 A 
ATOM     13  C   UNL     1       4.165   7.121  16.959  0.00  0.00    +0.000 A 
ATOM     14  C   UNL     1       3.830   5.816  17.409  0.00  0.00    +0.000 A 
ENDROOT
BRANCH   1  15
ATOM     15  C   UNL     1       5.592   4.689  15.968  0.00  0.00    +0.000 C 
ATOM     16  O   UNL     1       5.615   4.108  14.899  0.00  0.00    +0.000 OA
BRANCH  15  17
ATOM     17  O   UNL     1       6.622   5.371  16.531  0.00  0.00    +0.000 OA
BRANCH  17  19
ATOM     18  C   UNL     1       7.626   5.575  18.670  0.00  0.00    +0.000 C 
ATOM     19  C   UNL     1       7.385   4.641  17.497  0.00  0.00    +0.000 C 
ENDBRANCH  17  19
ENDBRANCH  15  17
ENDBRANCH   1  15
TORSDOF 3
ENDMDL
