MODEL 1
REMARK VINA RESULT:      -7.2      0.000      0.000
REMARK  Name = 
REMARK  7 active torsions:
REMARK  status: ('A' for Active; 'I' for Inactive)
REMARK    1  A    between atoms: C_4  and  O_5
REMARK    2  A    between atoms: O_5  and  C_6
REMARK    3  A    between atoms: C_6  and  C_7
REMARK    4  A    between atoms: C_10  and  S_11
REMARK    5  A    between atoms: S_11  and  C_12
REMARK    6  A    between atoms: C_12  and  C_13
REMARK    7  A    between atoms: N_19  and  C_20
REMARK                            x       y       z     vdW  Elec       q    Type
REMARK                         _______ _______ _______ _____ _____    ______ ____
ROOT
ATOM      1  C   UNL     1       3.888   6.461  17.974  0.00  0.00    +0.000 A 
ATOM      2  N   UNL     1       4.616   7.536  17.719  0.00  0.00    +0.000 NA
ATOM      3  N   UNL     1       5.859   7.139  17.302  0.00  0.00    +0.000 NA
ATOM      4  C   UNL     1       5.884   5.829  17.294  0.00  0.00    +0.000 A 
ATOM      5  N   UNL     1       4.670   5.320  17.771  0.00  0.00    +0.000 N 
ENDROOT
BRANCH   5   6
ATOM      6  C   UNL     1       4.314   3.955  18.042  0.00  0.00    +0.000 A 
ATOM      7  C   UNL     1       3.378   3.287  17.243  0.00  0.00    +0.000 A 
ATOM      8  C   UNL     1       2.953   1.994  17.570  0.00  0.00    +0.000 A 
ATOM      9  C   UNL     1       3.437   1.358  18.709  0.00  0.00    +0.000 A 
ATOM     10  C   UNL     1       4.388   1.996  19.496  0.00  0.00    +0.000 A 
ATOM     11  C   UNL     1       4.844   3.268  19.144  0.00  0.00    +0.000 A 
ENDBRANCH   5   6
BRANCH   1  12
ATOM     12  C   UNL     1       2.413   6.501  18.263  0.00  0.00    +0.000 C 
BRANCH  12  13
ATOM     13  O   UNL     1       2.255   6.358  19.677  0.00  0.00    +0.000 OA
BRANCH  13  17
ATOM     14  C   UNL     1       1.267   2.691  21.393  0.00  0.00    +0.000 A 
ATOM     15  C   UNL     1       2.257   3.509  21.930  0.00  0.00    +0.000 A 
ATOM     16  C   UNL     1       2.561   4.723  21.311  0.00  0.00    +0.000 A 
ATOM     17  C   UNL     1       1.899   5.126  20.145  0.00  0.00    +0.000 A 
ATOM     18  C   UNL     1       0.910   4.297  19.609  0.00  0.00    +0.000 A 
ATOM     19  C   UNL     1       0.596   3.084  20.236  0.00  0.00    +0.000 A 
ENDBRANCH  13  17
ENDBRANCH  12  13
ENDBRANCH   1  12
BRANCH   4  20
ATOM     20  S   UNL     1       7.221   4.870  16.751  0.00  0.00    +0.000 S 
BRANCH  20  21
ATOM     21  C   UNL     1       6.596   3.665  15.550  0.00  0.00    +0.000 C 
BRANCH  21  22
ATOM     22  C   UNL     1       6.037   4.401  14.294  0.00  0.00    +0.000 C 
ATOM     23  C   UNL     1       6.972   5.541  13.840  0.00  0.00    +0.000 C 
ATOM     24  C   UNL     1       8.000   5.135  12.789  0.00  0.00    +0.000 C 
ATOM     25  C   UNL     1       7.307   4.536  11.575  0.00  0.00    +0.000 C 
ATOM     26  C   UNL     1       6.577   3.269  11.982  0.00  0.00    +0.000 C 
ATOM     27  C   UNL     1       5.576   3.505  13.111  0.00  0.00    +0.000 C 
ENDBRANCH  21  22
ENDBRANCH  20  21
ENDBRANCH   4  20
TORSDOF 7
ENDMDL
MODEL 2
REMARK VINA RESULT:      -7.1      0.295      1.333
REMARK  Name = 
REMARK  7 active torsions:
REMARK  status: ('A' for Active; 'I' for Inactive)
REMARK    1  A    between atoms: C_4  and  O_5
REMARK    2  A    between atoms: O_5  and  C_6
REMARK    3  A    between atoms: C_6  and  C_7
REMARK    4  A    between atoms: C_10  and  S_11
REMARK    5  A    between atoms: S_11  and  C_12
REMARK    6  A    between atoms: C_12  and  C_13
REMARK    7  A    between atoms: N_19  and  C_20
REMARK                            x       y       z     vdW  Elec       q    Type
REMARK                         _______ _______ _______ _____ _____    ______ ____
ROOT
ATOM      1  C   UNL     1       3.864   6.416  17.907  0.00  0.00    +0.000 A 
ATOM      2  N   UNL     1       4.578   7.481  17.583  0.00  0.00    +0.000 NA
ATOM      3  N   UNL     1       5.856   7.084  17.287  0.00  0.00    +0.000 NA
ATOM      4  C   UNL     1       5.915   5.781  17.420  0.00  0.00    +0.000 A 
ATOM      5  N   UNL     1       4.687   5.286  17.874  0.00  0.00    +0.000 N 
ENDROOT
BRANCH   5   6
ATOM      6  C   UNL     1       4.350   3.946  18.267  0.00  0.00    +0.000 A 
ATOM      7  C   UNL     1       4.814   3.416  19.477  0.00  0.00    +0.000 A 
ATOM      8  C   UNL     1       4.575   2.078  19.810  0.00  0.00    +0.000 A 
ATOM      9  C   UNL     1       3.890   1.243  18.932  0.00  0.00    +0.000 A 
ATOM     10  C   UNL     1       3.399   1.760  17.741  0.00  0.00    +0.000 A 
ATOM     11  C   UNL     1       3.599   3.107  17.429  0.00  0.00    +0.000 A 
ENDBRANCH   5   6
BRANCH   1  12
ATOM     12  C   UNL     1       2.373   6.437  18.100  0.00  0.00    +0.000 C 
BRANCH  12  13
ATOM     13  O   UNL     1       2.129   6.465  19.509  0.00  0.00    +0.000 OA
BRANCH  13  17
ATOM     14  C   UNL     1       1.230   2.714  21.087  0.00  0.00    +0.000 A 
ATOM     15  C   UNL     1       0.697   3.147  19.874  0.00  0.00    +0.000 A 
ATOM     16  C   UNL     1       1.018   4.418  19.394  0.00  0.00    +0.000 A 
ATOM     17  C   UNL     1       1.854   5.276  20.120  0.00  0.00    +0.000 A 
ATOM     18  C   UNL     1       2.380   4.836  21.337  0.00  0.00    +0.000 A 
ATOM     19  C   UNL     1       2.068   3.556  21.815  0.00  0.00    +0.000 A 
ENDBRANCH  13  17
ENDBRANCH  12  13
ENDBRANCH   1  12
BRANCH   4  20
ATOM     20  S   UNL     1       7.309   4.815  17.064  0.00  0.00    +0.000 S 
BRANCH  20  21
ATOM     21  C   UNL     1       6.897   3.727  15.674  0.00  0.00    +0.000 C 
BRANCH  21  22
ATOM     22  C   UNL     1       6.268   4.557  14.513  0.00  0.00    +0.000 C 
ATOM     23  C   UNL     1       7.275   5.568  13.926  0.00  0.00    +0.000 C 
ATOM     24  C   UNL     1       8.073   5.045  12.737  0.00  0.00    +0.000 C 
ATOM     25  C   UNL     1       7.136   4.569  11.638  0.00  0.00    +0.000 C 
ATOM     26  C   UNL     1       6.305   3.406  12.148  0.00  0.00    +0.000 C 
ATOM     27  C   UNL     1       5.521   3.755  13.412  0.00  0.00    +0.000 C 
ENDBRANCH  21  22
ENDBRANCH  20  21
ENDBRANCH   4  20
TORSDOF 7
ENDMDL
MODEL 3
REMARK VINA RESULT:      -6.9      3.414      8.061
REMARK  Name = 
REMARK  7 active torsions:
REMARK  status: ('A' for Active; 'I' for Inactive)
REMARK    1  A    between atoms: C_4  and  O_5
REMARK    2  A    between atoms: O_5  and  C_6
REMARK    3  A    between atoms: C_6  and  C_7
REMARK    4  A    between atoms: C_10  and  S_11
REMARK    5  A    between atoms: S_11  and  C_12
REMARK    6  A    between atoms: C_12  and  C_13
REMARK    7  A    between atoms: N_19  and  C_20
REMARK                            x       y       z     vdW  Elec       q    Type
REMARK                         _______ _______ _______ _____ _____    ______ ____
ROOT
ATOM      1  C   UNL     1       3.908   5.906  17.403  0.00  0.00    +0.000 A 
ATOM      2  N   UNL     1       4.091   7.180  17.099  0.00  0.00    +0.000 NA
ATOM      3  N   UNL     1       3.359   7.951  17.964  0.00  0.00    +0.000 NA
ATOM      4  C   UNL     1       2.742   7.148  18.796  0.00  0.00    +0.000 A 
ATOM      5  N   UNL     1       3.000   5.814  18.462  0.00  0.00    +0.000 N 
ENDROOT
BRANCH   5   6
ATOM      6  C   UNL     1       2.433   4.621  19.028  0.00  0.00    +0.000 A 
ATOM      7  C   UNL     1       2.896   4.119  20.250  0.00  0.00    +0.000 A 
ATOM      8  C   UNL     1       2.418   2.902  20.750  0.00  0.00    +0.000 A 
ATOM      9  C   UNL     1       1.492   2.157  20.027  0.00  0.00    +0.000 A 
ATOM     10  C   UNL     1       1.002   2.654  18.827  0.00  0.00    +0.000 A 
ATOM     11  C   UNL     1       1.445   3.890  18.351  0.00  0.00    +0.000 A 
ENDBRANCH   5   6
BRANCH   1  12
ATOM     12  C   UNL     1       4.703   4.781  16.799  0.00  0.00    +0.000 C 
BRANCH  12  13
ATOM     13  O   UNL     1       5.893   5.352  16.248  0.00  0.00    +0.000 OA
BRANCH  13  17
ATOM     14  C   UNL     1       6.737   4.016  12.393  0.00  0.00    +0.000 A 
ATOM     15  C   UNL     1       5.619   3.572  13.094  0.00  0.00    +0.000 A 
ATOM     16  C   UNL     1       5.387   4.039  14.390  0.00  0.00    +0.000 A 
ATOM     17  C   UNL     1       6.269   4.935  15.004  0.00  0.00    +0.000 A 
ATOM     18  C   UNL     1       7.392   5.371  14.295  0.00  0.00    +0.000 A 
ATOM     19  C   UNL     1       7.621   4.913  12.992  0.00  0.00    +0.000 A 
ENDBRANCH  13  17
ENDBRANCH  12  13
ENDBRANCH   1  12
BRANCH   4  20
ATOM     20  S   UNL     1       1.765   7.670  20.130  0.00  0.00    +0.000 S 
BRANCH  20  21
ATOM     21  C   UNL     1       1.166   9.341  19.764  0.00  0.00    +0.000 C 
BRANCH  21  22
ATOM     22  C   UNL     1      -0.247   9.551  20.390  0.00  0.00    +0.000 C 
ATOM     23  C   UNL     1      -0.433   8.711  21.671  0.00  0.00    +0.000 C 
ATOM     24  C   UNL     1      -0.070   9.439  22.961  0.00  0.00    +0.000 C 
ATOM     25  C   UNL     1      -0.864  10.729  23.083  0.00  0.00    +0.000 C 
ATOM     26  C   UNL     1      -0.498  11.661  21.942  0.00  0.00    +0.000 C 
ATOM     27  C   UNL     1      -0.714  11.022  20.572  0.00  0.00    +0.000 C 
ENDBRANCH  21  22
ENDBRANCH  20  21
ENDBRANCH   4  20
TORSDOF 7
ENDMDL
MODEL 4
REMARK VINA RESULT:      -6.9      3.559      7.308
REMARK  Name = 
REMARK  7 active torsions:
REMARK  status: ('A' for Active; 'I' for Inactive)
REMARK    1  A    between atoms: C_4  and  O_5
REMARK    2  A    between atoms: O_5  and  C_6
REMARK    3  A    between atoms: C_6  and  C_7
REMARK    4  A    between atoms: C_10  and  S_11
REMARK    5  A    between atoms: S_11  and  C_12
REMARK    6  A    between atoms: C_12  and  C_13
REMARK    7  A    between atoms: N_19  and  C_20
REMARK                            x       y       z     vdW  Elec       q    Type
REMARK                         _______ _______ _______ _____ _____    ______ ____
ROOT
ATOM      1  C   UNL     1       6.861   6.578  17.781  0.00  0.00    +0.000 A 
ATOM      2  N   UNL     1       7.801   5.649  17.713  0.00  0.00    +0.000 NA
ATOM      3  N   UNL     1       7.209   4.415  17.760  0.00  0.00    +0.000 NA
ATOM      4  C   UNL     1       5.913   4.592  17.845  0.00  0.00    +0.000 A 
ATOM      5  N   UNL     1       5.616   5.958  17.923  0.00  0.00    +0.000 N 
ENDROOT
BRANCH   5   6
ATOM      6  C   UNL     1       4.345   6.588  18.149  0.00  0.00    +0.000 A 
ATOM      7  C   UNL     1       3.844   7.533  17.245  0.00  0.00    +0.000 A 
ATOM      8  C   UNL     1       2.658   8.224  17.518  0.00  0.00    +0.000 A 
ATOM      9  C   UNL     1       1.966   7.999  18.704  0.00  0.00    +0.000 A 
ATOM     10  C   UNL     1       2.434   7.045  19.598  0.00  0.00    +0.000 A 
ATOM     11  C   UNL     1       3.594   6.324  19.304  0.00  0.00    +0.000 A 
ENDBRANCH   5   6
BRANCH   1  12
ATOM     12  C   UNL     1       7.117   8.043  17.560  0.00  0.00    +0.000 C 
BRANCH  12  13
ATOM     13  O   UNL     1       8.354   8.358  18.204  0.00  0.00    +0.000 OA
BRANCH  13  17
ATOM     14  C   UNL     1       9.431  12.296  19.040  0.00  0.00    +0.000 A 
ATOM     15  C   UNL     1       9.684  11.260  19.937  0.00  0.00    +0.000 A 
ATOM     16  C   UNL     1       9.291   9.959  19.617  0.00  0.00    +0.000 A 
ATOM     17  C   UNL     1       8.630   9.678  18.415  0.00  0.00    +0.000 A 
ATOM     18  C   UNL     1       8.376  10.724  17.523  0.00  0.00    +0.000 A 
ATOM     19  C   UNL     1       8.779  12.028  17.838  0.00  0.00    +0.000 A 
ENDBRANCH  13  17
ENDBRANCH  12  13
ENDBRANCH   1  12
BRANCH   4  20
ATOM     20  S   UNL     1       4.740   3.316  17.841  0.00  0.00    +0.000 S 
BRANCH  20  21
ATOM     21  C   UNL     1       4.570   2.706  19.539  0.00  0.00    +0.000 C 
BRANCH  21  22
ATOM     22  C   UNL     1       3.124   2.169  19.773  0.00  0.00    +0.000 C 
ATOM     23  C   UNL     1       2.589   2.563  21.165  0.00  0.00    +0.000 C 
ATOM     24  C   UNL     1       1.800   3.868  21.191  0.00  0.00    +0.000 C 
ATOM     25  C   UNL     1       0.645   3.808  20.204  0.00  0.00    +0.000 C 
ATOM     26  C   UNL     1       1.189   3.658  18.795  0.00  0.00    +0.000 C 
ATOM     27  C   UNL     1       2.093   2.437  18.642  0.00  0.00    +0.000 C 
ENDBRANCH  21  22
ENDBRANCH  20  21
ENDBRANCH   4  20
TORSDOF 7
ENDMDL
MODEL 5
REMARK VINA RESULT:      -6.9      3.311      7.929
REMARK  Name = 
REMARK  7 active torsions:
REMARK  status: ('A' for Active; 'I' for Inactive)
REMARK    1  A    between atoms: C_4  and  O_5
REMARK    2  A    between atoms: O_5  and  C_6
REMARK    3  A    between atoms: C_6  and  C_7
REMARK    4  A    between atoms: C_10  and  S_11
REMARK    5  A    between atoms: S_11  and  C_12
REMARK    6  A    between atoms: C_12  and  C_13
REMARK    7  A    between atoms: N_19  and  C_20
REMARK                            x       y       z     vdW  Elec       q    Type
REMARK                         _______ _______ _______ _____ _____    ______ ____
ROOT
ATOM      1  C   UNL     1       4.306   5.799  17.354  0.00  0.00    +0.000 A 
ATOM      2  N   UNL     1       4.461   7.084  17.082  0.00  0.00    +0.000 NA
ATOM      3  N   UNL     1       3.613   7.810  17.876  0.00  0.00    +0.000 NA
ATOM      4  C   UNL     1       2.953   6.970  18.636  0.00  0.00    +0.000 A 
ATOM      5  N   UNL     1       3.302   5.653  18.316  0.00  0.00    +0.000 N 
ENDROOT
BRANCH   5   6
ATOM      6  C   UNL     1       2.736   4.429  18.812  0.00  0.00    +0.000 A 
ATOM      7  C   UNL     1       1.711   3.780  18.113  0.00  0.00    +0.000 A 
ATOM      8  C   UNL     1       1.088   2.647  18.649  0.00  0.00    +0.000 A 
ATOM      9  C   UNL     1       1.461   2.159  19.897  0.00  0.00    +0.000 A 
ATOM     10  C   UNL     1       2.495   2.774  20.590  0.00  0.00    +0.000 A 
ATOM     11  C   UNL     1       3.147   3.878  20.035  0.00  0.00    +0.000 A 
ENDBRANCH   5   6
BRANCH   1  12
ATOM     12  C   UNL     1       5.206   4.718  16.821  0.00  0.00    +0.000 C 
BRANCH  12  13
ATOM     13  O   UNL     1       4.702   4.342  15.537  0.00  0.00    +0.000 OA
BRANCH  13  17
ATOM     14  C   UNL     1       7.164   4.210  12.178  0.00  0.00    +0.000 A 
ATOM     15  C   UNL     1       5.939   3.549  12.216  0.00  0.00    +0.000 A 
ATOM     16  C   UNL     1       5.156   3.612  13.370  0.00  0.00    +0.000 A 
ATOM     17  C   UNL     1       5.589   4.316  14.500  0.00  0.00    +0.000 A 
ATOM     18  C   UNL     1       6.822   4.972  14.456  0.00  0.00    +0.000 A 
ATOM     19  C   UNL     1       7.604   4.919  13.295  0.00  0.00    +0.000 A 
ENDBRANCH  13  17
ENDBRANCH  12  13
ENDBRANCH   1  12
BRANCH   4  20
ATOM     20  S   UNL     1       1.826   7.431  19.870  0.00  0.00    +0.000 S 
BRANCH  20  21
ATOM     21  C   UNL     1       1.342   9.152  19.571  0.00  0.00    +0.000 C 
BRANCH  21  22
ATOM     22  C   UNL     1      -0.064   9.427  20.188  0.00  0.00    +0.000 C 
ATOM     23  C   UNL     1      -0.272   8.644  21.501  0.00  0.00    +0.000 C 
ATOM     24  C   UNL     1       0.113   9.412  22.761  0.00  0.00    +0.000 C 
ATOM     25  C   UNL     1      -0.644  10.729  22.832  0.00  0.00    +0.000 C 
ATOM     26  C   UNL     1      -0.253  11.603  21.654  0.00  0.00    +0.000 C 
ATOM     27  C   UNL     1      -0.489  10.916  20.310  0.00  0.00    +0.000 C 
ENDBRANCH  21  22
ENDBRANCH  20  21
ENDBRANCH   4  20
TORSDOF 7
ENDMDL
MODEL 6
REMARK VINA RESULT:      -6.8      3.658      7.830
REMARK  Name = 
REMARK  7 active torsions:
REMARK  status: ('A' for Active; 'I' for Inactive)
REMARK    1  A    between atoms: C_4  and  O_5
REMARK    2  A    between atoms: O_5  and  C_6
REMARK    3  A    between atoms: C_6  and  C_7
REMARK    4  A    between atoms: C_10  and  S_11
REMARK    5  A    between atoms: S_11  and  C_12
REMARK    6  A    between atoms: C_12  and  C_13
REMARK    7  A    between atoms: N_19  and  C_20
REMARK                            x       y       z     vdW  Elec       q    Type
REMARK                         _______ _______ _______ _____ _____    ______ ____
ROOT
ATOM      1  C   UNL     1       3.436   5.876  17.691  0.00  0.00    +0.000 A 
ATOM      2  N   UNL     1       3.575   7.094  17.194  0.00  0.00    +0.000 NA
ATOM      3  N   UNL     1       2.947   7.985  18.024  0.00  0.00    +0.000 NA
ATOM      4  C   UNL     1       2.437   7.312  19.027  0.00  0.00    +0.000 A 
ATOM      5  N   UNL     1       2.660   5.942  18.852  0.00  0.00    +0.000 N 
ENDROOT
BRANCH   5   6
ATOM      6  C   UNL     1       2.171   4.846  19.641  0.00  0.00    +0.000 A 
ATOM      7  C   UNL     1       2.653   4.624  20.937  0.00  0.00    +0.000 A 
ATOM      8  C   UNL     1       2.255   3.497  21.665  0.00  0.00    +0.000 A 
ATOM      9  C   UNL     1       1.390   2.564  21.104  0.00  0.00    +0.000 A 
ATOM     10  C   UNL     1       0.880   2.782  19.831  0.00  0.00    +0.000 A 
ATOM     11  C   UNL     1       1.243   3.930  19.122  0.00  0.00    +0.000 A 
ENDBRANCH   5   6
BRANCH   1  12
ATOM     12  C   UNL     1       4.158   4.669  17.159  0.00  0.00    +0.000 C 
BRANCH  12  13
ATOM     13  O   UNL     1       5.331   5.139  16.489  0.00  0.00    +0.000 OA
BRANCH  13  17
ATOM     14  C   UNL     1       8.275   6.858  18.886  0.00  0.00    +0.000 A 
ATOM     15  C   UNL     1       7.747   5.599  19.162  0.00  0.00    +0.000 A 
ATOM     16  C   UNL     1       6.752   5.072  18.336  0.00  0.00    +0.000 A 
ATOM     17  C   UNL     1       6.261   5.795  17.243  0.00  0.00    +0.000 A 
ATOM     18  C   UNL     1       6.793   7.059  16.976  0.00  0.00    +0.000 A 
ATOM     19  C   UNL     1       7.799   7.585  17.796  0.00  0.00    +0.000 A 
ENDBRANCH  13  17
ENDBRANCH  12  13
ENDBRANCH   1  12
BRANCH   4  20
ATOM     20  S   UNL     1       1.623   8.025  20.381  0.00  0.00    +0.000 S 
BRANCH  20  21
ATOM     21  C   UNL     1       0.938   9.616  19.848  0.00  0.00    +0.000 C 
BRANCH  21  22
ATOM     22  C   UNL     1      -0.478   9.823  20.468  0.00  0.00    +0.000 C 
ATOM     23  C   UNL     1      -0.674   8.969  21.738  0.00  0.00    +0.000 C 
ATOM     24  C   UNL     1      -0.316   9.680  23.038  0.00  0.00    +0.000 C 
ATOM     25  C   UNL     1      -1.107  10.971  23.172  0.00  0.00    +0.000 C 
ATOM     26  C   UNL     1      -0.731  11.915  22.043  0.00  0.00    +0.000 C 
ATOM     27  C   UNL     1      -0.942  11.293  20.664  0.00  0.00    +0.000 C 
ENDBRANCH  21  22
ENDBRANCH  20  21
ENDBRANCH   4  20
TORSDOF 7
ENDMDL
MODEL 7
REMARK VINA RESULT:      -6.8      3.313      4.872
REMARK  Name = 
REMARK  7 active torsions:
REMARK  status: ('A' for Active; 'I' for Inactive)
REMARK    1  A    between atoms: C_4  and  O_5
REMARK    2  A    between atoms: O_5  and  C_6
REMARK    3  A    between atoms: C_6  and  C_7
REMARK    4  A    between atoms: C_10  and  S_11
REMARK    5  A    between atoms: S_11  and  C_12
REMARK    6  A    between atoms: C_12  and  C_13
REMARK    7  A    between atoms: N_19  and  C_20
REMARK                            x       y       z     vdW  Elec       q    Type
REMARK                         _______ _______ _______ _____ _____    ______ ____
ROOT
ATOM      1  C   UNL     1       2.295   7.372  19.226  0.00  0.00    +0.000 A 
ATOM      2  N   UNL     1       3.016   8.118  18.405  0.00  0.00    +0.000 NA
ATOM      3  N   UNL     1       3.756   7.297  17.595  0.00  0.00    +0.000 NA
ATOM      4  C   UNL     1       3.478   6.056  17.916  0.00  0.00    +0.000 A 
ATOM      5  N   UNL     1       2.589   6.025  18.998  0.00  0.00    +0.000 N 
ENDROOT
BRANCH   5   6
ATOM      6  C   UNL     1       2.122   4.888  19.741  0.00  0.00    +0.000 A 
ATOM      7  C   UNL     1       2.576   4.648  21.044  0.00  0.00    +0.000 A 
ATOM      8  C   UNL     1       2.203   3.486  21.728  0.00  0.00    +0.000 A 
ATOM      9  C   UNL     1       1.391   2.536  21.117  0.00  0.00    +0.000 A 
ATOM     10  C   UNL     1       0.909   2.771  19.836  0.00  0.00    +0.000 A 
ATOM     11  C   UNL     1       1.246   3.953  19.170  0.00  0.00    +0.000 A 
ENDBRANCH   5   6
BRANCH   1  12
ATOM     12  C   UNL     1       1.217   7.918  20.121  0.00  0.00    +0.000 C 
BRANCH  12  13
ATOM     13  O   UNL     1       1.180   9.334  19.923  0.00  0.00    +0.000 OA
BRANCH  13  17
ATOM     14  C   UNL     1      -0.915  11.369  22.896  0.00  0.00    +0.000 A 
ATOM     15  C   UNL     1      -0.732   9.989  22.941  0.00  0.00    +0.000 A 
ATOM     16  C   UNL     1      -0.034   9.351  21.914  0.00  0.00    +0.000 A 
ATOM     17  C   UNL     1       0.471  10.073  20.826  0.00  0.00    +0.000 A 
ATOM     18  C   UNL     1       0.279  11.457  20.786  0.00  0.00    +0.000 A 
ATOM     19  C   UNL     1      -0.411  12.100  21.821  0.00  0.00    +0.000 A 
ENDBRANCH  13  17
ENDBRANCH  12  13
ENDBRANCH   1  12
BRANCH   4  20
ATOM     20  S   UNL     1       4.107   4.661  17.102  0.00  0.00    +0.000 S 
BRANCH  20  21
ATOM     21  C   UNL     1       5.270   5.231  15.834  0.00  0.00    +0.000 C 
BRANCH  21  22
ATOM     22  C   UNL     1       6.732   5.144  16.370  0.00  0.00    +0.000 C 
ATOM     23  C   UNL     1       7.466   6.495  16.242  0.00  0.00    +0.000 C 
ATOM     24  C   UNL     1       7.370   7.386  17.476  0.00  0.00    +0.000 C 
ATOM     25  C   UNL     1       7.882   6.647  18.703  0.00  0.00    +0.000 C 
ATOM     26  C   UNL     1       7.004   5.438  18.970  0.00  0.00    +0.000 C 
ATOM     27  C   UNL     1       6.920   4.497  17.770  0.00  0.00    +0.000 C 
ENDBRANCH  21  22
ENDBRANCH  20  21
ENDBRANCH   4  20
TORSDOF 7
ENDMDL
MODEL 8
REMARK VINA RESULT:      -6.8      4.039      8.039
REMARK  Name = 
REMARK  7 active torsions:
REMARK  status: ('A' for Active; 'I' for Inactive)
REMARK    1  A    between atoms: C_4  and  O_5
REMARK    2  A    between atoms: O_5  and  C_6
REMARK    3  A    between atoms: C_6  and  C_7
REMARK    4  A    between atoms: C_10  and  S_11
REMARK    5  A    between atoms: S_11  and  C_12
REMARK    6  A    between atoms: C_12  and  C_13
REMARK    7  A    between atoms: N_19  and  C_20
REMARK                            x       y       z     vdW  Elec       q    Type
REMARK                         _______ _______ _______ _____ _____    ______ ____
ROOT
ATOM      1  C   UNL     1       3.206   6.261  17.910  0.00  0.00    +0.000 A 
ATOM      2  N   UNL     1       3.193   7.535  17.553  0.00  0.00    +0.000 NA
ATOM      3  N   UNL     1       2.516   8.254  18.502  0.00  0.00    +0.000 NA
ATOM      4  C   UNL     1       2.128   7.422  19.438  0.00  0.00    +0.000 A 
ATOM      5  N   UNL     1       2.484   6.112  19.098  0.00  0.00    +0.000 N 
ENDROOT
BRANCH   5   6
ATOM      6  C   UNL     1       2.150   4.888  19.772  0.00  0.00    +0.000 A 
ATOM      7  C   UNL     1       1.260   3.974  19.196  0.00  0.00    +0.000 A 
ATOM      8  C   UNL     1       0.854   2.833  19.898  0.00  0.00    +0.000 A 
ATOM      9  C   UNL     1       1.310   2.600  21.191  0.00  0.00    +0.000 A 
ATOM     10  C   UNL     1       2.215   3.482  21.766  0.00  0.00    +0.000 A 
ATOM     11  C   UNL     1       2.655   4.597  21.048  0.00  0.00    +0.000 A 
ENDBRANCH   5   6
BRANCH   1  12
ATOM     12  C   UNL     1       4.025   5.208  17.216  0.00  0.00    +0.000 C 
BRANCH  12  13
ATOM     13  O   UNL     1       5.123   5.872  16.585  0.00  0.00    +0.000 OA
BRANCH  13  17
ATOM     14  C   UNL     1       8.383   7.043  18.900  0.00  0.00    +0.000 A 
ATOM     15  C   UNL     1       7.874   7.853  17.889  0.00  0.00    +0.000 A 
ATOM     16  C   UNL     1       6.788   7.410  17.131  0.00  0.00    +0.000 A 
ATOM     17  C   UNL     1       6.211   6.155  17.359  0.00  0.00    +0.000 A 
ATOM     18  C   UNL     1       6.732   5.346  18.373  0.00  0.00    +0.000 A 
ATOM     19  C   UNL     1       7.814   5.793  19.141  0.00  0.00    +0.000 A 
ENDBRANCH  13  17
ENDBRANCH  12  13
ENDBRANCH   1  12
BRANCH   4  20
ATOM     20  S   UNL     1       1.310   7.887  20.894  0.00  0.00    +0.000 S 
BRANCH  20  21
ATOM     21  C   UNL     1       0.347   9.382  20.543  0.00  0.00    +0.000 C 
BRANCH  21  22
ATOM     22  C   UNL     1       0.568  10.438  21.669  0.00  0.00    +0.000 C 
ATOM     23  C   UNL     1       0.516  11.877  21.116  0.00  0.00    +0.000 C 
ATOM     24  C   UNL     1      -0.862  12.527  21.174  0.00  0.00    +0.000 C 
ATOM     25  C   UNL     1      -1.396  12.512  22.598  0.00  0.00    +0.000 C 
ATOM     26  C   UNL     1      -1.572  11.077  23.059  0.00  0.00    +0.000 C 
ATOM     27  C   UNL     1      -0.282  10.265  22.958  0.00  0.00    +0.000 C 
ENDBRANCH  21  22
ENDBRANCH  20  21
ENDBRANCH   4  20
TORSDOF 7
ENDMDL
MODEL 9
REMARK VINA RESULT:      -6.8      3.619      7.046
REMARK  Name = 
REMARK  7 active torsions:
REMARK  status: ('A' for Active; 'I' for Inactive)
REMARK    1  A    between atoms: C_4  and  O_5
REMARK    2  A    between atoms: O_5  and  C_6
REMARK    3  A    between atoms: C_6  and  C_7
REMARK    4  A    between atoms: C_10  and  S_11
REMARK    5  A    between atoms: S_11  and  C_12
REMARK    6  A    between atoms: C_12  and  C_13
REMARK    7  A    between atoms: N_19  and  C_20
REMARK                            x       y       z     vdW  Elec       q    Type
REMARK                         _______ _______ _______ _____ _____    ______ ____
ROOT
ATOM      1  C   UNL     1       6.882   6.995  17.226  0.00  0.00    +0.000 A 
ATOM      2  N   UNL     1       7.826   6.306  16.605  0.00  0.00    +0.000 NA
ATOM      3  N   UNL     1       7.305   5.105  16.201  0.00  0.00    +0.000 NA
ATOM      4  C   UNL     1       6.046   5.068  16.566  0.00  0.00    +0.000 A 
ATOM      5  N   UNL     1       5.717   6.225  17.283  0.00  0.00    +0.000 N 
ENDROOT
BRANCH   5   6
ATOM      6  C   UNL     1       4.493   6.538  17.966  0.00  0.00    +0.000 A 
ATOM      7  C   UNL     1       3.603   7.483  17.443  0.00  0.00    +0.000 A 
ATOM      8  C   UNL     1       2.463   7.866  18.161  0.00  0.00    +0.000 A 
ATOM      9  C   UNL     1       2.207   7.329  19.418  0.00  0.00    +0.000 A 
ATOM     10  C   UNL     1       3.065   6.369  19.939  0.00  0.00    +0.000 A 
ATOM     11  C   UNL     1       4.178   5.955  19.203  0.00  0.00    +0.000 A 
ENDBRANCH   5   6
BRANCH   1  12
ATOM     12  C   UNL     1       7.029   8.435  17.632  0.00  0.00    +0.000 C 
BRANCH  12  13
ATOM     13  O   UNL     1       8.325   8.579  18.220  0.00  0.00    +0.000 OA
BRANCH  13  17
ATOM     14  C   UNL     1       9.360  12.551  18.938  0.00  0.00    +0.000 A 
ATOM     15  C   UNL     1       8.691  12.165  17.779  0.00  0.00    +0.000 A 
ATOM     16  C   UNL     1       8.378  10.820  17.578  0.00  0.00    +0.000 A 
ATOM     17  C   UNL     1       8.741   9.845  18.515  0.00  0.00    +0.000 A 
ATOM     18  C   UNL     1       9.416  10.240  19.673  0.00  0.00    +0.000 A 
ATOM     19  C   UNL     1       9.721  11.591  19.882  0.00  0.00    +0.000 A 
ENDBRANCH  13  17
ENDBRANCH  12  13
ENDBRANCH   1  12
BRANCH   4  20
ATOM     20  S   UNL     1       4.949   3.780  16.194  0.00  0.00    +0.000 S 
BRANCH  20  21
ATOM     21  C   UNL     1       4.652   2.840  17.716  0.00  0.00    +0.000 C 
BRANCH  21  22
ATOM     22  C   UNL     1       3.197   2.280  17.724  0.00  0.00    +0.000 C 
ATOM     23  C   UNL     1       2.804   1.738  19.114  0.00  0.00    +0.000 C 
ATOM     24  C   UNL     1       2.111   2.755  20.015  0.00  0.00    +0.000 C 
ATOM     25  C   UNL     1       0.880   3.322  19.327  0.00  0.00    +0.000 C 
ATOM     26  C   UNL     1       1.297   4.067  18.072  0.00  0.00    +0.000 C 
ATOM     27  C   UNL     1       2.099   3.192  17.110  0.00  0.00    +0.000 C 
ENDBRANCH  21  22
ENDBRANCH  20  21
ENDBRANCH   4  20
TORSDOF 7
ENDMDL
