MODEL 1
REMARK VINA RESULT:      -6.7      0.000      0.000
REMARK  Name = 
REMARK  6 active torsions:
REMARK  status: ('A' for Active; 'I' for Inactive)
REMARK    1  A    between atoms: C_2  and  C_4
REMARK    2  A    between atoms: C_8  and  N_9
REMARK    3  A    between atoms: N_10  and  N_11
REMARK    4  A    between atoms: N_11  and  C_12
REMARK    5  A    between atoms: N_11  and  N_15
REMARK    6  A    between atoms: C_12  and  C_13
REMARK                            x       y       z     vdW  Elec       q    Type
REMARK                         _______ _______ _______ _____ _____    ______ ____
ROOT
ATOM      1  C   UNL     1       6.102   4.705  18.575  0.00  0.00    +0.000 A 
ATOM      2  N   UNL     1       6.724   5.351  19.620  0.00  0.00    +0.000 N 
ATOM      3  C   UNL     1       7.792   6.036  19.122  0.00  0.00    +0.000 A 
ATOM      4  N   UNL     1       7.886   5.898  17.822  0.00  0.00    +0.000 NA
ATOM      5  C   UNL     1       6.845   5.070  17.469  0.00  0.00    +0.000 A 
ATOM      6  H   UNL     1       6.429   5.305  20.587  0.00  0.00    +0.000 HD
ENDROOT
BRANCH   1   8
ATOM      7  N   UNL     1       5.121   2.743  19.500  0.00  0.00    +0.000 N 
ATOM      8  C   UNL     1       4.953   3.874  18.760  0.00  0.00    +0.000 C 
ATOM      9  O   UNL     1       3.847   4.154  18.305  0.00  0.00    +0.000 OA
ATOM     10  H   UNL     1       4.300   2.194  19.705  0.00  0.00    +0.000 HD
ATOM     11  H   UNL     1       5.977   2.549  20.002  0.00  0.00    +0.000 HD
ENDBRANCH   1   8
BRANCH   5  12
ATOM     12  N   UNL     1       6.524   4.680  16.159  0.00  0.00    +0.000 NA
ATOM     13  N   UNL     1       7.363   5.091  15.336  0.00  0.00    +0.000 NA
BRANCH  13  14
ATOM     14  N   UNL     1       7.073   4.771  14.036  0.00  0.00    +0.000 N 
BRANCH  14  15
ATOM     15  N   UNL     1       7.789   5.386  13.010  0.00  0.00    +0.000 NA
ATOM     16  O   UNL     1       8.793   5.994  13.400  0.00  0.00    +0.000 OA
ENDBRANCH  14  15
BRANCH  14  17
ATOM     17  C   UNL     1       5.976   3.893  13.646  0.00  0.00    +0.000 C 
BRANCH  17  18
ATOM     18  C   UNL     1       6.077   3.414  12.204  0.00  0.00    +0.000 C 
ATOM     19 CL   UNL     1       4.445   3.243  11.502  0.00  0.00    +0.000 Cl
ENDBRANCH  17  18
ENDBRANCH  14  17
ENDBRANCH  13  14
ENDBRANCH   5  12
TORSDOF 6
ENDMDL
MODEL 2
REMARK VINA RESULT:      -6.6      3.442      5.839
REMARK  Name = 
REMARK  6 active torsions:
REMARK  status: ('A' for Active; 'I' for Inactive)
REMARK    1  A    between atoms: C_2  and  C_4
REMARK    2  A    between atoms: C_8  and  N_9
REMARK    3  A    between atoms: N_10  and  N_11
REMARK    4  A    between atoms: N_11  and  C_12
REMARK    5  A    between atoms: N_11  and  N_15
REMARK    6  A    between atoms: C_12  and  C_13
REMARK                            x       y       z     vdW  Elec       q    Type
REMARK                         _______ _______ _______ _____ _____    ______ ____
ROOT
ATOM      1  C   UNL     1       6.543   4.732  17.677  0.00  0.00    +0.000 A 
ATOM      2  N   UNL     1       7.787   5.308  17.805  0.00  0.00    +0.000 N 
ATOM      3  C   UNL     1       7.925   5.746  19.089  0.00  0.00    +0.000 A 
ATOM      4  N   UNL     1       6.863   5.467  19.805  0.00  0.00    +0.000 NA
ATOM      5  C   UNL     1       5.995   4.841  18.940  0.00  0.00    +0.000 A 
ATOM      6  H   UNL     1       8.467   5.392  17.058  0.00  0.00    +0.000 HD
ENDROOT
BRANCH   1   8
ATOM      7  N   UNL     1       5.062   3.276  16.513  0.00  0.00    +0.000 N 
ATOM      8  C   UNL     1       6.071   4.190  16.441  0.00  0.00    +0.000 C 
ATOM      9  O   UNL     1       6.516   4.530  15.349  0.00  0.00    +0.000 OA
ATOM     10  H   UNL     1       4.667   2.950  15.644  0.00  0.00    +0.000 HD
ATOM     11  H   UNL     1       4.579   3.072  17.378  0.00  0.00    +0.000 HD
ENDBRANCH   1   8
BRANCH   5  12
ATOM     12  N   UNL     1       4.738   4.321  19.285  0.00  0.00    +0.000 NA
ATOM     13  N   UNL     1       4.808   3.122  19.614  0.00  0.00    +0.000 NA
BRANCH  13  14
ATOM     14  N   UNL     1       3.598   2.555  19.920  0.00  0.00    +0.000 N 
BRANCH  14  15
ATOM     15  N   UNL     1       2.870   1.925  18.913  0.00  0.00    +0.000 NA
ATOM     16  O   UNL     1       3.572   1.308  18.104  0.00  0.00    +0.000 OA
ENDBRANCH  14  15
BRANCH  14  17
ATOM     17  C   UNL     1       2.967   2.661  21.230  0.00  0.00    +0.000 C 
BRANCH  17  18
ATOM     18  C   UNL     1       1.464   2.899  21.152  0.00  0.00    +0.000 C 
ATOM     19 CL   UNL     1       1.136   4.546  20.549  0.00  0.00    +0.000 Cl
ENDBRANCH  17  18
ENDBRANCH  14  17
ENDBRANCH  13  14
ENDBRANCH   5  12
TORSDOF 6
ENDMDL
MODEL 3
REMARK VINA RESULT:      -6.4      3.658      6.075
REMARK  Name = 
REMARK  6 active torsions:
REMARK  status: ('A' for Active; 'I' for Inactive)
REMARK    1  A    between atoms: C_2  and  C_4
REMARK    2  A    between atoms: C_8  and  N_9
REMARK    3  A    between atoms: N_10  and  N_11
REMARK    4  A    between atoms: N_11  and  C_12
REMARK    5  A    between atoms: N_11  and  N_15
REMARK    6  A    between atoms: C_12  and  C_13
REMARK                            x       y       z     vdW  Elec       q    Type
REMARK                         _______ _______ _______ _____ _____    ______ ____
ROOT
ATOM      1  C   UNL     1       6.723   5.892  17.886  0.00  0.00    +0.000 A 
ATOM      2  N   UNL     1       6.572   6.416  16.622  0.00  0.00    +0.000 N 
ATOM      3  C   UNL     1       5.504   5.806  16.033  0.00  0.00    +0.000 A 
ATOM      4  N   UNL     1       4.940   4.943  16.842  0.00  0.00    +0.000 NA
ATOM      5  C   UNL     1       5.689   4.983  17.996  0.00  0.00    +0.000 A 
ATOM      6  H   UNL     1       7.168   7.126  16.213  0.00  0.00    +0.000 HD
ENDROOT
BRANCH   1   8
ATOM      7  N   UNL     1       8.133   5.427  19.747  0.00  0.00    +0.000 N 
ATOM      8  C   UNL     1       7.773   6.302  18.768  0.00  0.00    +0.000 C 
ATOM      9  O   UNL     1       8.356   7.376  18.656  0.00  0.00    +0.000 OA
ATOM     10  H   UNL     1       8.926   5.672  20.321  0.00  0.00    +0.000 HD
ATOM     11  H   UNL     1       7.773   4.483  19.788  0.00  0.00    +0.000 HD
ENDBRANCH   1   8
BRANCH   5  12
ATOM     12  N   UNL     1       5.425   4.250  19.163  0.00  0.00    +0.000 NA
ATOM     13  N   UNL     1       4.709   3.257  18.933  0.00  0.00    +0.000 NA
BRANCH  13  14
ATOM     14  N   UNL     1       4.387   2.530  20.049  0.00  0.00    +0.000 N 
BRANCH  14  15
ATOM     15  N   UNL     1       5.183   1.441  20.402  0.00  0.00    +0.000 NA
ATOM     16  O   UNL     1       5.453   1.393  21.607  0.00  0.00    +0.000 OA
ENDBRANCH  14  15
BRANCH  14  17
ATOM     17  C   UNL     1       3.189   2.763  20.845  0.00  0.00    +0.000 C 
BRANCH  17  18
ATOM     18  C   UNL     1       1.899   2.549  20.062  0.00  0.00    +0.000 C 
ATOM     19 CL   UNL     1       0.821   3.955  20.265  0.00  0.00    +0.000 Cl
ENDBRANCH  17  18
ENDBRANCH  14  17
ENDBRANCH  13  14
ENDBRANCH   5  12
TORSDOF 6
ENDMDL
MODEL 4
REMARK VINA RESULT:      -6.4      1.726      2.657
REMARK  Name = 
REMARK  6 active torsions:
REMARK  status: ('A' for Active; 'I' for Inactive)
REMARK    1  A    between atoms: C_2  and  C_4
REMARK    2  A    between atoms: C_8  and  N_9
REMARK    3  A    between atoms: N_10  and  N_11
REMARK    4  A    between atoms: N_11  and  C_12
REMARK    5  A    between atoms: N_11  and  N_15
REMARK    6  A    between atoms: C_12  and  C_13
REMARK                            x       y       z     vdW  Elec       q    Type
REMARK                         _______ _______ _______ _____ _____    ______ ____
ROOT
ATOM      1  C   UNL     1       5.196   4.407  18.591  0.00  0.00    +0.000 A 
ATOM      2  N   UNL     1       4.207   4.452  19.548  0.00  0.00    +0.000 N 
ATOM      3  C   UNL     1       3.033   4.072  18.966  0.00  0.00    +0.000 A 
ATOM      4  N   UNL     1       3.205   3.761  17.704  0.00  0.00    +0.000 NA
ATOM      5  C   UNL     1       4.542   3.968  17.457  0.00  0.00    +0.000 A 
ATOM      6  H   UNL     1       4.344   4.730  20.512  0.00  0.00    +0.000 HD
ENDROOT
BRANCH   1   8
ATOM      7  N   UNL     1       7.488   4.414  17.947  0.00  0.00    +0.000 N 
ATOM      8  C   UNL     1       6.551   4.771  18.870  0.00  0.00    +0.000 C 
ATOM      9  O   UNL     1       6.882   5.396  19.873  0.00  0.00    +0.000 OA
ATOM     10  H   UNL     1       8.432   4.737  18.094  0.00  0.00    +0.000 HD
ATOM     11  H   UNL     1       7.240   4.021  17.049  0.00  0.00    +0.000 HD
ENDBRANCH   1   8
BRANCH   5  12
ATOM     12  N   UNL     1       5.192   3.718  16.238  0.00  0.00    +0.000 NA
ATOM     13  N   UNL     1       5.376   4.765  15.589  0.00  0.00    +0.000 NA
BRANCH  13  14
ATOM     14  N   UNL     1       5.971   4.570  14.370  0.00  0.00    +0.000 N 
BRANCH  14  15
ATOM     15  N   UNL     1       7.210   5.156  14.118  0.00  0.00    +0.000 NA
ATOM     16  O   UNL     1       7.732   5.665  15.117  0.00  0.00    +0.000 OA
ENDBRANCH  14  15
BRANCH  14  17
ATOM     17  C   UNL     1       5.335   3.862  13.266  0.00  0.00    +0.000 C 
BRANCH  17  18
ATOM     18  C   UNL     1       6.330   3.341  12.237  0.00  0.00    +0.000 C 
ATOM     19 CL   UNL     1       5.675   1.887  11.435  0.00  0.00    +0.000 Cl
ENDBRANCH  17  18
ENDBRANCH  14  17
ENDBRANCH  13  14
ENDBRANCH   5  12
TORSDOF 6
ENDMDL
MODEL 5
REMARK VINA RESULT:      -6.4      3.293      5.622
REMARK  Name = 
REMARK  6 active torsions:
REMARK  status: ('A' for Active; 'I' for Inactive)
REMARK    1  A    between atoms: C_2  and  C_4
REMARK    2  A    between atoms: C_8  and  N_9
REMARK    3  A    between atoms: N_10  and  N_11
REMARK    4  A    between atoms: N_11  and  C_12
REMARK    5  A    between atoms: N_11  and  N_15
REMARK    6  A    between atoms: C_12  and  C_13
REMARK                            x       y       z     vdW  Elec       q    Type
REMARK                         _______ _______ _______ _____ _____    ______ ____
ROOT
ATOM      1  C   UNL     1       6.697   4.715  17.452  0.00  0.00    +0.000 A 
ATOM      2  N   UNL     1       7.807   5.058  18.190  0.00  0.00    +0.000 N 
ATOM      3  C   UNL     1       7.415   5.266  19.479  0.00  0.00    +0.000 A 
ATOM      4  N   UNL     1       6.130   5.054  19.628  0.00  0.00    +0.000 NA
ATOM      5  C   UNL     1       5.670   4.715  18.376  0.00  0.00    +0.000 A 
ATOM      6  H   UNL     1       8.745   5.146  17.819  0.00  0.00    +0.000 HD
ENDROOT
BRANCH   1   8
ATOM      7  N   UNL     1       6.148   3.316  15.606  0.00  0.00    +0.000 N 
ATOM      8  C   UNL     1       6.758   4.451  16.048  0.00  0.00    +0.000 C 
ATOM      9  O   UNL     1       7.307   5.206  15.250  0.00  0.00    +0.000 OA
ATOM     10  H   UNL     1       6.115   3.164  14.609  0.00  0.00    +0.000 HD
ATOM     11  H   UNL     1       5.572   2.743  16.207  0.00  0.00    +0.000 HD
ENDBRANCH   1   8
BRANCH   5  12
ATOM     12  N   UNL     1       4.350   4.356  18.065  0.00  0.00    +0.000 NA
ATOM     13  N   UNL     1       4.011   3.301  18.634  0.00  0.00    +0.000 NA
BRANCH  13  14
ATOM     14  N   UNL     1       2.741   2.885  18.329  0.00  0.00    +0.000 N 
BRANCH  14  15
ATOM     15  N   UNL     1       2.172   3.275  17.118  0.00  0.00    +0.000 NA
ATOM     16  O   UNL     1       1.156   3.967  17.247  0.00  0.00    +0.000 OA
ENDBRANCH  14  15
BRANCH  14  17
ATOM     17  C   UNL     1       1.896   2.135  19.250  0.00  0.00    +0.000 C 
BRANCH  17  18
ATOM     18  C   UNL     1       1.912   2.694  20.667  0.00  0.00    +0.000 C 
ATOM     19 CL   UNL     1       1.275   4.361  20.673  0.00  0.00    +0.000 Cl
ENDBRANCH  17  18
ENDBRANCH  14  17
ENDBRANCH  13  14
ENDBRANCH   5  12
TORSDOF 6
ENDMDL
MODEL 6
REMARK VINA RESULT:      -6.4      1.726      2.857
REMARK  Name = 
REMARK  6 active torsions:
REMARK  status: ('A' for Active; 'I' for Inactive)
REMARK    1  A    between atoms: C_2  and  C_4
REMARK    2  A    between atoms: C_8  and  N_9
REMARK    3  A    between atoms: N_10  and  N_11
REMARK    4  A    between atoms: N_11  and  C_12
REMARK    5  A    between atoms: N_11  and  N_15
REMARK    6  A    between atoms: C_12  and  C_13
REMARK                            x       y       z     vdW  Elec       q    Type
REMARK                         _______ _______ _______ _____ _____    ______ ____
ROOT
ATOM      1  C   UNL     1       5.057   4.158  18.542  0.00  0.00    +0.000 A 
ATOM      2  N   UNL     1       4.472   3.421  19.547  0.00  0.00    +0.000 N 
ATOM      3  C   UNL     1       3.616   2.526  18.976  0.00  0.00    +0.000 A 
ATOM      4  N   UNL     1       3.630   2.618  17.668  0.00  0.00    +0.000 NA
ATOM      5  C   UNL     1       4.518   3.631  17.385  0.00  0.00    +0.000 A 
ATOM      6  H   UNL     1       4.651   3.544  20.536  0.00  0.00    +0.000 HD
ENDROOT
BRANCH   1   8
ATOM      7  N   UNL     1       6.041   6.231  17.908  0.00  0.00    +0.000 N 
ATOM      8  C   UNL     1       5.995   5.206  18.804  0.00  0.00    +0.000 C 
ATOM      9  O   UNL     1       6.721   5.220  19.794  0.00  0.00    +0.000 OA
ATOM     10  H   UNL     1       6.639   7.014  18.126  0.00  0.00    +0.000 HD
ATOM     11  H   UNL     1       5.369   6.324  17.158  0.00  0.00    +0.000 HD
ENDBRANCH   1   8
BRANCH   5  12
ATOM     12  N   UNL     1       4.888   4.051  16.098  0.00  0.00    +0.000 NA
ATOM     13  N   UNL     1       6.079   3.789  15.850  0.00  0.00    +0.000 NA
BRANCH  13  14
ATOM     14  N   UNL     1       6.501   4.217  14.619  0.00  0.00    +0.000 N 
BRANCH  14  15
ATOM     15  N   UNL     1       7.496   5.190  14.543  0.00  0.00    +0.000 NA
ATOM     16  O   UNL     1       7.568   5.907  15.548  0.00  0.00    +0.000 OA
ENDBRANCH  14  15
BRANCH  14  17
ATOM     17  C   UNL     1       5.895   3.789  13.364  0.00  0.00    +0.000 C 
BRANCH  17  18
ATOM     18  C   UNL     1       6.872   3.793  12.195  0.00  0.00    +0.000 C 
ATOM     19 CL   UNL     1       6.885   2.194  11.404  0.00  0.00    +0.000 Cl
ENDBRANCH  17  18
ENDBRANCH  14  17
ENDBRANCH  13  14
ENDBRANCH   5  12
TORSDOF 6
ENDMDL
MODEL 7
REMARK VINA RESULT:      -6.3      3.054      5.292
REMARK  Name = 
REMARK  6 active torsions:
REMARK  status: ('A' for Active; 'I' for Inactive)
REMARK    1  A    between atoms: C_2  and  C_4
REMARK    2  A    between atoms: C_8  and  N_9
REMARK    3  A    between atoms: N_10  and  N_11
REMARK    4  A    between atoms: N_11  and  C_12
REMARK    5  A    between atoms: N_11  and  N_15
REMARK    6  A    between atoms: C_12  and  C_13
REMARK                            x       y       z     vdW  Elec       q    Type
REMARK                         _______ _______ _______ _____ _____    ______ ____
ROOT
ATOM      1  C   UNL     1       6.917   5.323  16.539  0.00  0.00    +0.000 A 
ATOM      2  N   UNL     1       7.475   6.575  16.410  0.00  0.00    +0.000 N 
ATOM      3  C   UNL     1       7.534   7.145  17.648  0.00  0.00    +0.000 A 
ATOM      4  N   UNL     1       7.076   6.334  18.570  0.00  0.00    +0.000 NA
ATOM      5  C   UNL     1       6.685   5.200  17.894  0.00  0.00    +0.000 A 
ATOM      6  H   UNL     1       7.776   6.989  15.536  0.00  0.00    +0.000 HD
ENDROOT
BRANCH   1   8
ATOM      7  N   UNL     1       6.082   3.271  15.668  0.00  0.00    +0.000 N 
ATOM      8  C   UNL     1       6.691   4.464  15.418  0.00  0.00    +0.000 C 
ATOM      9  O   UNL     1       6.998   4.771  14.270  0.00  0.00    +0.000 OA
ATOM     10  H   UNL     1       5.845   2.694  14.874  0.00  0.00    +0.000 HD
ATOM     11  H   UNL     1       5.694   3.041  16.573  0.00  0.00    +0.000 HD
ENDBRANCH   1   8
BRANCH   5  12
ATOM     12  N   UNL     1       6.171   4.037  18.488  0.00  0.00    +0.000 NA
ATOM     13  N   UNL     1       4.930   3.984  18.403  0.00  0.00    +0.000 NA
BRANCH  13  14
ATOM     14  N   UNL     1       4.374   2.886  19.005  0.00  0.00    +0.000 N 
BRANCH  14  15
ATOM     15  N   UNL     1       4.717   2.589  20.324  0.00  0.00    +0.000 NA
ATOM     16  O   UNL     1       5.211   1.466  20.467  0.00  0.00    +0.000 OA
ENDBRANCH  14  15
BRANCH  14  17
ATOM     17  C   UNL     1       3.514   1.934  18.312  0.00  0.00    +0.000 C 
BRANCH  17  18
ATOM     18  C   UNL     1       2.135   2.497  17.992  0.00  0.00    +0.000 C 
ATOM     19 CL   UNL     1       1.169   2.634  19.485  0.00  0.00    +0.000 Cl
ENDBRANCH  17  18
ENDBRANCH  14  17
ENDBRANCH  13  14
ENDBRANCH   5  12
TORSDOF 6
ENDMDL
MODEL 8
REMARK VINA RESULT:      -6.3      2.421      3.548
REMARK  Name = 
REMARK  6 active torsions:
REMARK  status: ('A' for Active; 'I' for Inactive)
REMARK    1  A    between atoms: C_2  and  C_4
REMARK    2  A    between atoms: C_8  and  N_9
REMARK    3  A    between atoms: N_10  and  N_11
REMARK    4  A    between atoms: N_11  and  C_12
REMARK    5  A    between atoms: N_11  and  N_15
REMARK    6  A    between atoms: C_12  and  C_13
REMARK                            x       y       z     vdW  Elec       q    Type
REMARK                         _______ _______ _______ _____ _____    ______ ____
ROOT
ATOM      1  C   UNL     1       3.496   3.249  18.795  0.00  0.00    +0.000 A 
ATOM      2  N   UNL     1       2.245   3.236  19.370  0.00  0.00    +0.000 N 
ATOM      3  C   UNL     1       1.329   3.524  18.402  0.00  0.00    +0.000 A 
ATOM      4  N   UNL     1       1.903   3.696  17.236  0.00  0.00    +0.000 NA
ATOM      5  C   UNL     1       3.249   3.532  17.467  0.00  0.00    +0.000 A 
ATOM      6  H   UNL     1       2.058   3.051  20.348  0.00  0.00    +0.000 HD
ENDROOT
BRANCH   1   8
ATOM      7  N   UNL     1       5.746   3.833  19.311  0.00  0.00    +0.000 N 
ATOM      8  C   UNL     1       4.689   3.006  19.546  0.00  0.00    +0.000 C 
ATOM      9  O   UNL     1       4.778   2.117  20.388  0.00  0.00    +0.000 OA
ATOM     10  H   UNL     1       6.563   3.722  19.893  0.00  0.00    +0.000 HD
ATOM     11  H   UNL     1       5.669   4.656  18.729  0.00  0.00    +0.000 HD
ENDBRANCH   1   8
BRANCH   5  12
ATOM     12  N   UNL     1       4.253   3.583  16.487  0.00  0.00    +0.000 NA
ATOM     13  N   UNL     1       4.971   4.592  16.613  0.00  0.00    +0.000 NA
BRANCH  13  14
ATOM     14  N   UNL     1       5.943   4.710  15.654  0.00  0.00    +0.000 N 
BRANCH  14  15
ATOM     15  N   UNL     1       7.275   4.822  16.048  0.00  0.00    +0.000 NA
ATOM     16  O   UNL     1       7.490   4.414  17.195  0.00  0.00    +0.000 OA
ENDBRANCH  14  15
BRANCH  14  17
ATOM     17  C   UNL     1       5.660   4.832  14.229  0.00  0.00    +0.000 C 
BRANCH  17  18
ATOM     18  C   UNL     1       6.414   3.816  13.381  0.00  0.00    +0.000 C 
ATOM     19 CL   UNL     1       5.378   3.247  12.044  0.00  0.00    +0.000 Cl
ENDBRANCH  17  18
ENDBRANCH  14  17
ENDBRANCH  13  14
ENDBRANCH   5  12
TORSDOF 6
ENDMDL
MODEL 9
REMARK VINA RESULT:      -6.2      3.417      5.705
REMARK  Name = 
REMARK  6 active torsions:
REMARK  status: ('A' for Active; 'I' for Inactive)
REMARK    1  A    between atoms: C_2  and  C_4
REMARK    2  A    between atoms: C_8  and  N_9
REMARK    3  A    between atoms: N_10  and  N_11
REMARK    4  A    between atoms: N_11  and  C_12
REMARK    5  A    between atoms: N_11  and  N_15
REMARK    6  A    between atoms: C_12  and  C_13
REMARK                            x       y       z     vdW  Elec       q    Type
REMARK                         _______ _______ _______ _____ _____    ______ ____
ROOT
ATOM      1  C   UNL     1       6.756   5.351  17.352  0.00  0.00    +0.000 A 
ATOM      2  N   UNL     1       7.852   5.956  17.925  0.00  0.00    +0.000 N 
ATOM      3  C   UNL     1       7.746   5.836  19.279  0.00  0.00    +0.000 A 
ATOM      4  N   UNL     1       6.668   5.170  19.617  0.00  0.00    +0.000 NA
ATOM      5  C   UNL     1       6.042   4.866  18.430  0.00  0.00    +0.000 A 
ATOM      6  H   UNL     1       8.595   6.415  17.413  0.00  0.00    +0.000 HD
ENDROOT
BRANCH   1   8
ATOM      7  N   UNL     1       5.259   5.224  15.505  0.00  0.00    +0.000 N 
ATOM      8  C   UNL     1       6.548   5.319  15.937  0.00  0.00    +0.000 C 
ATOM      9  O   UNL     1       7.466   5.397  15.126  0.00  0.00    +0.000 OA
ATOM     10  H   UNL     1       5.096   5.284  14.511  0.00  0.00    +0.000 HD
ATOM     11  H   UNL     1       4.471   5.294  16.135  0.00  0.00    +0.000 HD
ENDBRANCH   1   8
BRANCH   5  12
ATOM     12  N   UNL     1       4.863   4.115  18.302  0.00  0.00    +0.000 NA
ATOM     13  N   UNL     1       3.847   4.823  18.431  0.00  0.00    +0.000 NA
BRANCH  13  14
ATOM     14  N   UNL     1       2.668   4.128  18.355  0.00  0.00    +0.000 N 
BRANCH  14  15
ATOM     15  N   UNL     1       2.377   3.410  17.196  0.00  0.00    +0.000 NA
ATOM     16  O   UNL     1       2.137   2.215  17.399  0.00  0.00    +0.000 OA
ENDBRANCH  14  15
BRANCH  14  17
ATOM     17  C   UNL     1       1.636   4.176  19.384  0.00  0.00    +0.000 C 
BRANCH  17  18
ATOM     18  C   UNL     1       2.197   4.100  20.798  0.00  0.00    +0.000 C 
ATOM     19 CL   UNL     1       1.448   2.742  21.681  0.00  0.00    +0.000 Cl
ENDBRANCH  17  18
ENDBRANCH  14  17
ENDBRANCH  13  14
ENDBRANCH   5  12
TORSDOF 6
ENDMDL
