MODEL 1
REMARK VINA RESULT:      -8.5      0.000      0.000
REMARK  Name = 
REMARK  7 active torsions:
REMARK  status: ('A' for Active; 'I' for Inactive)
REMARK    1  A    between atoms: C_1  and  C_2
REMARK    2  A    between atoms: C_2  and  C_3
REMARK    3  A    between atoms: C_3  and  O_4
REMARK    4  A    between atoms: O_4  and  C_5
REMARK    5  A    between atoms: C_8  and  O_9
REMARK    6  A    between atoms: O_9  and  C_10
REMARK    7  A    between atoms: C_21  and  N_22
REMARK                            x       y       z     vdW  Elec       q    Type
REMARK                         _______ _______ _______ _____ _____    ______ ____
ROOT
ATOM      1  O   UNL     1       2.919   6.185  20.076  0.00  0.00    +0.000 OA
ENDROOT
BRANCH   1   2
ATOM      2  C   UNL     1       2.254   7.327  19.702  0.00  0.00    +0.000 A 
ATOM      3  C   UNL     1       1.443   8.094  20.541  0.00  0.00    +0.000 A 
ATOM      4  C   UNL     1       0.818   9.244  20.064  0.00  0.00    +0.000 A 
ATOM      5  C   UNL     1       0.997   9.645  18.744  0.00  0.00    +0.000 A 
ATOM      6  C   UNL     1       1.765   8.858  17.883  0.00  0.00    +0.000 A 
ATOM      7  C   UNL     1       2.413   7.717  18.370  0.00  0.00    +0.000 A 
BRANCH   5   8
ATOM      8  O   UNL     1       0.313  10.779  18.386  0.00  0.00    +0.000 OA
BRANCH   8   9
ATOM      9  C   UNL     1      -1.043  10.741  18.176  0.00  0.00    +0.000 A 
ATOM     10  C   UNL     1      -1.780  11.690  18.888  0.00  0.00    +0.000 A 
ATOM     11  C   UNL     1      -3.167  11.735  18.767  0.00  0.00    +0.000 A 
ATOM     12  C   UNL     1      -3.822  10.831  17.930  0.00  0.00    +0.000 A 
ATOM     13  C   UNL     1      -3.084   9.917  17.178  0.00  0.00    +0.000 A 
ATOM     14  C   UNL     1      -1.692   9.887  17.280  0.00  0.00    +0.000 A 
ENDBRANCH   8   9
ENDBRANCH   5   8
ENDBRANCH   1   2
BRANCH   1  15
ATOM     15  C   UNL     1       2.236   4.963  19.765  0.00  0.00    +0.000 C 
BRANCH  15  17
ATOM     16  C   UNL     1       3.124   2.617  20.107  0.00  0.00    +0.000 C 
ATOM     17  C   UNL     1       3.212   3.890  19.263  0.00  0.00    +0.000 C 
ATOM     18  C   UNL     1       4.664   4.429  19.202  0.00  0.00    +0.000 C 
ATOM     19  N   UNL     1       5.082   4.411  17.815  0.00  0.00    +0.000 N 
ATOM     20  C   UNL     1       6.237   4.763  17.200  0.00  0.00    +0.000 A 
ATOM     21  C   UNL     1       5.979   4.502  15.857  0.00  0.00    +0.000 A 
ATOM     22  N   UNL     1       4.696   4.003  15.670  0.00  0.00    +0.000 NA
ATOM     23  C   UNL     1       4.212   3.967  16.879  0.00  0.00    +0.000 A 
ATOM     24  S   UNL     1       2.710   3.460  17.517  0.00  0.00    +0.000 S 
BRANCH  21  25
ATOM     25  N   UNL     1       6.879   4.684  14.740  0.00  0.00    +0.000 N 
ATOM     26  O   UNL     1       7.798   5.502  14.898  0.00  0.00    +0.000 OA
ATOM     27  O   UNL     1       6.671   4.021  13.716  0.00  0.00    +0.000 OA
ENDBRANCH  21  25
ENDBRANCH  15  17
ENDBRANCH   1  15
TORSDOF 6
ENDMDL
MODEL 2
REMARK VINA RESULT:      -8.3      0.287      1.344
REMARK  Name = 
REMARK  7 active torsions:
REMARK  status: ('A' for Active; 'I' for Inactive)
REMARK    1  A    between atoms: C_1  and  C_2
REMARK    2  A    between atoms: C_2  and  C_3
REMARK    3  A    between atoms: C_3  and  O_4
REMARK    4  A    between atoms: O_4  and  C_5
REMARK    5  A    between atoms: C_8  and  O_9
REMARK    6  A    between atoms: O_9  and  C_10
REMARK    7  A    between atoms: C_21  and  N_22
REMARK                            x       y       z     vdW  Elec       q    Type
REMARK                         _______ _______ _______ _____ _____    ______ ____
ROOT
ATOM      1  O   UNL     1       2.966   5.961  20.131  0.00  0.00    +0.000 OA
ENDROOT
BRANCH   1   2
ATOM      2  C   UNL     1       2.402   7.109  19.632  0.00  0.00    +0.000 A 
ATOM      3  C   UNL     1       2.555   7.575  18.325  0.00  0.00    +0.000 A 
ATOM      4  C   UNL     1       1.932   8.752  17.914  0.00  0.00    +0.000 A 
ATOM      5  C   UNL     1       1.144   9.477  18.804  0.00  0.00    +0.000 A 
ATOM      6  C   UNL     1       1.025   9.047  20.127  0.00  0.00    +0.000 A 
ATOM      7  C   UNL     1       1.632   7.851  20.531  0.00  0.00    +0.000 A 
BRANCH   5   8
ATOM      8  O   UNL     1       0.602  10.628  18.291  0.00  0.00    +0.000 OA
BRANCH   8   9
ATOM      9  C   UNL     1      -0.758  10.813  18.273  0.00  0.00    +0.000 A 
ATOM     10  C   UNL     1      -1.463   9.940  17.441  0.00  0.00    +0.000 A 
ATOM     11  C   UNL     1      -2.848  10.044  17.329  0.00  0.00    +0.000 A 
ATOM     12  C   UNL     1      -3.533  11.021  18.053  0.00  0.00    +0.000 A 
ATOM     13  C   UNL     1      -2.837  11.859  18.923  0.00  0.00    +0.000 A 
ATOM     14  C   UNL     1      -1.452  11.740  19.055  0.00  0.00    +0.000 A 
ENDBRANCH   8   9
ENDBRANCH   5   8
ENDBRANCH   1   2
BRANCH   1  15
ATOM     15  C   UNL     1       2.215   4.765  19.879  0.00  0.00    +0.000 C 
BRANCH  15  17
ATOM     16  C   UNL     1       2.842   2.313  19.806  0.00  0.00    +0.000 C 
ATOM     17  C   UNL     1       3.080   3.697  19.197  0.00  0.00    +0.000 C 
ATOM     18  C   UNL     1       4.582   4.078  19.229  0.00  0.00    +0.000 C 
ATOM     19  N   UNL     1       5.020   4.256  17.859  0.00  0.00    +0.000 N 
ATOM     20  C   UNL     1       6.216   4.582  17.313  0.00  0.00    +0.000 A 
ATOM     21  C   UNL     1       5.955   4.587  15.946  0.00  0.00    +0.000 A 
ATOM     22  N   UNL     1       4.629   4.270  15.677  0.00  0.00    +0.000 NA
ATOM     23  C   UNL     1       4.124   4.077  16.861  0.00  0.00    +0.000 A 
ATOM     24  S   UNL     1       2.566   3.632  17.403  0.00  0.00    +0.000 S 
BRANCH  21  25
ATOM     25  N   UNL     1       6.888   4.862  14.876  0.00  0.00    +0.000 N 
ATOM     26  O   UNL     1       7.721   5.757  15.086  0.00  0.00    +0.000 OA
ATOM     27  O   UNL     1       6.792   4.195  13.838  0.00  0.00    +0.000 OA
ENDBRANCH  21  25
ENDBRANCH  15  17
ENDBRANCH   1  15
TORSDOF 6
ENDMDL
MODEL 3
REMARK VINA RESULT:      -8.2      0.906      1.342
REMARK  Name = 
REMARK  7 active torsions:
REMARK  status: ('A' for Active; 'I' for Inactive)
REMARK    1  A    between atoms: C_1  and  C_2
REMARK    2  A    between atoms: C_2  and  C_3
REMARK    3  A    between atoms: C_3  and  O_4
REMARK    4  A    between atoms: O_4  and  C_5
REMARK    5  A    between atoms: C_8  and  O_9
REMARK    6  A    between atoms: O_9  and  C_10
REMARK    7  A    between atoms: C_21  and  N_22
REMARK                            x       y       z     vdW  Elec       q    Type
REMARK                         _______ _______ _______ _____ _____    ______ ____
ROOT
ATOM      1  O   UNL     1       2.353   5.742  20.654  0.00  0.00    +0.000 OA
ENDROOT
BRANCH   1   2
ATOM      2  C   UNL     1       1.950   6.982  20.221  0.00  0.00    +0.000 A 
ATOM      3  C   UNL     1       1.220   7.899  20.979  0.00  0.00    +0.000 A 
ATOM      4  C   UNL     1       0.867   9.137  20.447  0.00  0.00    +0.000 A 
ATOM      5  C   UNL     1       1.243   9.478  19.151  0.00  0.00    +0.000 A 
ATOM      6  C   UNL     1       1.930   8.549  18.366  0.00  0.00    +0.000 A 
ATOM      7  C   UNL     1       2.305   7.315  18.911  0.00  0.00    +0.000 A 
BRANCH   5   8
ATOM      8  O   UNL     1       0.819  10.713  18.731  0.00  0.00    +0.000 OA
BRANCH   8   9
ATOM      9  C   UNL     1      -0.520  10.996  18.633  0.00  0.00    +0.000 A 
ATOM     10  C   UNL     1      -1.246  10.144  17.798  0.00  0.00    +0.000 A 
ATOM     11  C   UNL     1      -2.612  10.345  17.608  0.00  0.00    +0.000 A 
ATOM     12  C   UNL     1      -3.257  11.398  18.257  0.00  0.00    +0.000 A 
ATOM     13  C   UNL     1      -2.545  12.218  19.131  0.00  0.00    +0.000 A 
ATOM     14  C   UNL     1      -1.181  12.003  19.342  0.00  0.00    +0.000 A 
ENDBRANCH   8   9
ENDBRANCH   5   8
ENDBRANCH   1   2
BRANCH   1  15
ATOM     15  C   UNL     1       1.506   4.659  20.246  0.00  0.00    +0.000 C 
BRANCH  15  17
ATOM     16  C   UNL     1       1.777   2.187  19.772  0.00  0.00    +0.000 C 
ATOM     17  C   UNL     1       2.296   3.595  19.472  0.00  0.00    +0.000 C 
ATOM     18  C   UNL     1       3.818   3.707  19.746  0.00  0.00    +0.000 C 
ATOM     19  N   UNL     1       4.466   4.044  18.495  0.00  0.00    +0.000 N 
ATOM     20  C   UNL     1       5.763   4.254  18.161  0.00  0.00    +0.000 A 
ATOM     21  C   UNL     1       5.702   4.538  16.800  0.00  0.00    +0.000 A 
ATOM     22  N   UNL     1       4.396   4.500  16.327  0.00  0.00    +0.000 NA
ATOM     23  C   UNL     1       3.705   4.193  17.387  0.00  0.00    +0.000 A 
ATOM     24  S   UNL     1       2.038   3.928  17.653  0.00  0.00    +0.000 S 
BRANCH  21  25
ATOM     25  N   UNL     1       6.808   4.834  15.916  0.00  0.00    +0.000 N 
ATOM     26  O   UNL     1       7.940   4.544  16.332  0.00  0.00    +0.000 OA
ATOM     27  O   UNL     1       6.551   5.350  14.821  0.00  0.00    +0.000 OA
ENDBRANCH  21  25
ENDBRANCH  15  17
ENDBRANCH   1  15
TORSDOF 6
ENDMDL
MODEL 4
REMARK VINA RESULT:      -7.9      0.901      1.533
REMARK  Name = 
REMARK  7 active torsions:
REMARK  status: ('A' for Active; 'I' for Inactive)
REMARK    1  A    between atoms: C_1  and  C_2
REMARK    2  A    between atoms: C_2  and  C_3
REMARK    3  A    between atoms: C_3  and  O_4
REMARK    4  A    between atoms: O_4  and  C_5
REMARK    5  A    between atoms: C_8  and  O_9
REMARK    6  A    between atoms: O_9  and  C_10
REMARK    7  A    between atoms: C_21  and  N_22
REMARK                            x       y       z     vdW  Elec       q    Type
REMARK                         _______ _______ _______ _____ _____    ______ ____
ROOT
ATOM      1  O   UNL     1       2.426   5.468  20.591  0.00  0.00    +0.000 OA
ENDROOT
BRANCH   1   2
ATOM      2  C   UNL     1       2.096   6.700  20.083  0.00  0.00    +0.000 A 
ATOM      3  C   UNL     1       2.439   7.163  18.812  0.00  0.00    +0.000 A 
ATOM      4  C   UNL     1       2.047   8.430  18.388  0.00  0.00    +0.000 A 
ATOM      5  C   UNL     1       1.301   9.252  19.228  0.00  0.00    +0.000 A 
ATOM      6  C   UNL     1       0.995   8.820  20.520  0.00  0.00    +0.000 A 
ATOM      7  C   UNL     1       1.369   7.536  20.935  0.00  0.00    +0.000 A 
BRANCH   5   8
ATOM      8  O   UNL     1       0.994  10.484  18.708  0.00  0.00    +0.000 OA
BRANCH   8   9
ATOM      9  C   UNL     1      -0.292  10.962  18.755  0.00  0.00    +0.000 A 
ATOM     10  C   UNL     1      -0.478  12.082  19.569  0.00  0.00    +0.000 A 
ATOM     11  C   UNL     1      -1.745  12.645  19.708  0.00  0.00    +0.000 A 
ATOM     12  C   UNL     1      -2.830  12.090  19.029  0.00  0.00    +0.000 A 
ATOM     13  C   UNL     1      -2.637  11.004  18.175  0.00  0.00    +0.000 A 
ATOM     14  C   UNL     1      -1.363  10.455  18.016  0.00  0.00    +0.000 A 
ENDBRANCH   8   9
ENDBRANCH   5   8
ENDBRANCH   1   2
BRANCH   1  15
ATOM     15  C   UNL     1       1.773   4.361  19.953  0.00  0.00    +0.000 C 
BRANCH  15  17
ATOM     16  C   UNL     1       2.520   1.969  19.595  0.00  0.00    +0.000 C 
ATOM     17  C   UNL     1       2.787   3.439  19.264  0.00  0.00    +0.000 C 
ATOM     18  C   UNL     1       4.245   3.840  19.607  0.00  0.00    +0.000 C 
ATOM     19  N   UNL     1       4.889   4.251  18.377  0.00  0.00    +0.000 N 
ATOM     20  C   UNL     1       6.141   4.688  18.098  0.00  0.00    +0.000 A 
ATOM     21  C   UNL     1       6.105   4.914  16.725  0.00  0.00    +0.000 A 
ATOM     22  N   UNL     1       4.857   4.619  16.190  0.00  0.00    +0.000 NA
ATOM     23  C   UNL     1       4.176   4.222  17.227  0.00  0.00    +0.000 A 
ATOM     24  S   UNL     1       2.574   3.661  17.422  0.00  0.00    +0.000 S 
BRANCH  21  25
ATOM     25  N   UNL     1       7.185   5.381  15.885  0.00  0.00    +0.000 N 
ATOM     26  O   UNL     1       7.537   4.626  14.966  0.00  0.00    +0.000 OA
ATOM     27  O   UNL     1       7.678   6.488  16.139  0.00  0.00    +0.000 OA
ENDBRANCH  21  25
ENDBRANCH  15  17
ENDBRANCH   1  15
TORSDOF 6
ENDMDL
MODEL 5
REMARK VINA RESULT:      -7.9      0.847      1.082
REMARK  Name = 
REMARK  7 active torsions:
REMARK  status: ('A' for Active; 'I' for Inactive)
REMARK    1  A    between atoms: C_1  and  C_2
REMARK    2  A    between atoms: C_2  and  C_3
REMARK    3  A    between atoms: C_3  and  O_4
REMARK    4  A    between atoms: O_4  and  C_5
REMARK    5  A    between atoms: C_8  and  O_9
REMARK    6  A    between atoms: O_9  and  C_10
REMARK    7  A    between atoms: C_21  and  N_22
REMARK                            x       y       z     vdW  Elec       q    Type
REMARK                         _______ _______ _______ _____ _____    ______ ____
ROOT
ATOM      1  O   UNL     1       2.191   5.481  20.612  0.00  0.00    +0.000 OA
ENDROOT
BRANCH   1   2
ATOM      2  C   UNL     1       1.831   6.739  20.196  0.00  0.00    +0.000 A 
ATOM      3  C   UNL     1       1.100   7.656  20.954  0.00  0.00    +0.000 A 
ATOM      4  C   UNL     1       0.793   8.914  20.441  0.00  0.00    +0.000 A 
ATOM      5  C   UNL     1       1.216   9.275  19.165  0.00  0.00    +0.000 A 
ATOM      6  C   UNL     1       1.904   8.348  18.379  0.00  0.00    +0.000 A 
ATOM      7  C   UNL     1       2.233   7.093  18.906  0.00  0.00    +0.000 A 
BRANCH   5   8
ATOM      8  O   UNL     1       0.834  10.530  18.762  0.00  0.00    +0.000 OA
BRANCH   8   9
ATOM      9  C   UNL     1      -0.485  10.811  18.507  0.00  0.00    +0.000 A 
ATOM     10  C   UNL     1      -0.987  11.939  19.161  0.00  0.00    +0.000 A 
ATOM     11  C   UNL     1      -2.319  12.312  18.991  0.00  0.00    +0.000 A 
ATOM     12  C   UNL     1      -3.152  11.559  18.163  0.00  0.00    +0.000 A 
ATOM     13  C   UNL     1      -2.639  10.464  17.468  0.00  0.00    +0.000 A 
ATOM     14  C   UNL     1      -1.299  10.104  17.618  0.00  0.00    +0.000 A 
ENDBRANCH   8   9
ENDBRANCH   5   8
ENDBRANCH   1   2
BRANCH   1  15
ATOM     15  C   UNL     1       1.588   4.409  19.873  0.00  0.00    +0.000 C 
BRANCH  15  17
ATOM     16  C   UNL     1       2.415   2.026  19.660  0.00  0.00    +0.000 C 
ATOM     17  C   UNL     1       2.651   3.485  19.265  0.00  0.00    +0.000 C 
ATOM     18  C   UNL     1       4.084   3.946  19.637  0.00  0.00    +0.000 C 
ATOM     19  N   UNL     1       4.759   4.316  18.409  0.00  0.00    +0.000 N 
ATOM     20  C   UNL     1       6.008   4.776  18.151  0.00  0.00    +0.000 A 
ATOM     21  C   UNL     1       6.013   4.933  16.768  0.00  0.00    +0.000 A 
ATOM     22  N   UNL     1       4.793   4.575  16.208  0.00  0.00    +0.000 NA
ATOM     23  C   UNL     1       4.088   4.209  17.240  0.00  0.00    +0.000 A 
ATOM     24  S   UNL     1       2.497   3.610  17.408  0.00  0.00    +0.000 S 
BRANCH  21  25
ATOM     25  N   UNL     1       7.108   5.392  15.942  0.00  0.00    +0.000 N 
ATOM     26  O   UNL     1       7.438   4.653  15.002  0.00  0.00    +0.000 OA
ATOM     27  O   UNL     1       7.635   6.474  16.229  0.00  0.00    +0.000 OA
ENDBRANCH  21  25
ENDBRANCH  15  17
ENDBRANCH   1  15
TORSDOF 6
ENDMDL
MODEL 6
REMARK VINA RESULT:      -7.9      1.096      1.346
REMARK  Name = 
REMARK  7 active torsions:
REMARK  status: ('A' for Active; 'I' for Inactive)
REMARK    1  A    between atoms: C_1  and  C_2
REMARK    2  A    between atoms: C_2  and  C_3
REMARK    3  A    between atoms: C_3  and  O_4
REMARK    4  A    between atoms: O_4  and  C_5
REMARK    5  A    between atoms: C_8  and  O_9
REMARK    6  A    between atoms: O_9  and  C_10
REMARK    7  A    between atoms: C_21  and  N_22
REMARK                            x       y       z     vdW  Elec       q    Type
REMARK                         _______ _______ _______ _____ _____    ______ ____
ROOT
ATOM      1  O   UNL     1       3.309   6.415  18.418  0.00  0.00    +0.000 OA
ENDROOT
BRANCH   1   2
ATOM      2  C   UNL     1       2.513   7.431  18.888  0.00  0.00    +0.000 A 
ATOM      3  C   UNL     1       1.959   7.489  20.168  0.00  0.00    +0.000 A 
ATOM      4  C   UNL     1       1.170   8.571  20.551  0.00  0.00    +0.000 A 
ATOM      5  C   UNL     1       0.927   9.613  19.660  0.00  0.00    +0.000 A 
ATOM      6  C   UNL     1       1.434   9.542  18.361  0.00  0.00    +0.000 A 
ATOM      7  C   UNL     1       2.248   8.465  17.986  0.00  0.00    +0.000 A 
BRANCH   5   8
ATOM      8  O   UNL     1       0.118  10.611  20.143  0.00  0.00    +0.000 OA
BRANCH   8   9
ATOM      9  C   UNL     1      -1.082  10.891  19.539  0.00  0.00    +0.000 A 
ATOM     10  C   UNL     1      -1.788  11.961  20.094  0.00  0.00    +0.000 A 
ATOM     11  C   UNL     1      -3.028  12.328  19.574  0.00  0.00    +0.000 A 
ATOM     12  C   UNL     1      -3.564  11.626  18.493  0.00  0.00    +0.000 A 
ATOM     13  C   UNL     1      -2.836  10.592  17.905  0.00  0.00    +0.000 A 
ATOM     14  C   UNL     1      -1.583  10.240  18.409  0.00  0.00    +0.000 A 
ENDBRANCH   8   9
ENDBRANCH   5   8
ENDBRANCH   1   2
BRANCH   1  15
ATOM     15  C   UNL     1       3.578   5.375  19.368  0.00  0.00    +0.000 C 
BRANCH  15  17
ATOM     16  C   UNL     1       4.449   3.012  19.634  0.00  0.00    +0.000 C 
ATOM     17  C   UNL     1       4.426   4.258  18.745  0.00  0.00    +0.000 C 
ATOM     18  C   UNL     1       5.861   4.747  18.422  0.00  0.00    +0.000 C 
ATOM     19  N   UNL     1       6.036   4.676  16.985  0.00  0.00    +0.000 N 
ATOM     20  C   UNL     1       7.079   4.973  16.172  0.00  0.00    +0.000 A 
ATOM     21  C   UNL     1       6.590   4.681  14.903  0.00  0.00    +0.000 A 
ATOM     22  N   UNL     1       5.281   4.219  14.952  0.00  0.00    +0.000 NA
ATOM     23  C   UNL     1       5.009   4.233  16.226  0.00  0.00    +0.000 A 
ATOM     24  S   UNL     1       3.624   3.792  17.125  0.00  0.00    +0.000 S 
BRANCH  21  25
ATOM     25  N   UNL     1       7.292   4.803  13.644  0.00  0.00    +0.000 N 
ATOM     26  O   UNL     1       6.918   4.054  12.728  0.00  0.00    +0.000 OA
ATOM     27  O   UNL     1       8.207   5.633  13.569  0.00  0.00    +0.000 OA
ENDBRANCH  21  25
ENDBRANCH  15  17
ENDBRANCH   1  15
TORSDOF 6
ENDMDL
MODEL 7
REMARK VINA RESULT:      -7.7      5.686     10.204
REMARK  Name = 
REMARK  7 active torsions:
REMARK  status: ('A' for Active; 'I' for Inactive)
REMARK    1  A    between atoms: C_1  and  C_2
REMARK    2  A    between atoms: C_2  and  C_3
REMARK    3  A    between atoms: C_3  and  O_4
REMARK    4  A    between atoms: O_4  and  C_5
REMARK    5  A    between atoms: C_8  and  O_9
REMARK    6  A    between atoms: O_9  and  C_10
REMARK    7  A    between atoms: C_21  and  N_22
REMARK                            x       y       z     vdW  Elec       q    Type
REMARK                         _______ _______ _______ _____ _____    ______ ____
ROOT
ATOM      1  O   UNL     1       0.423  11.023  18.638  0.00  0.00    +0.000 OA
ENDROOT
BRANCH   1   2
ATOM      2  C   UNL     1       1.049   9.835  18.924  0.00  0.00    +0.000 A 
ATOM      3  C   UNL     1       1.022   9.191  20.162  0.00  0.00    +0.000 A 
ATOM      4  C   UNL     1       1.686   7.981  20.347  0.00  0.00    +0.000 A 
ATOM      5  C   UNL     1       2.382   7.394  19.295  0.00  0.00    +0.000 A 
ATOM      6  C   UNL     1       2.459   8.053  18.067  0.00  0.00    +0.000 A 
ATOM      7  C   UNL     1       1.770   9.258  17.875  0.00  0.00    +0.000 A 
BRANCH   5   8
ATOM      8  O   UNL     1       3.014   6.216  19.604  0.00  0.00    +0.000 OA
BRANCH   8   9
ATOM      9  C   UNL     1       2.342   5.021  19.525  0.00  0.00    +0.000 A 
ATOM     10  C   UNL     1       2.073   4.411  20.752  0.00  0.00    +0.000 A 
ATOM     11  C   UNL     1       1.411   3.185  20.795  0.00  0.00    +0.000 A 
ATOM     12  C   UNL     1       1.012   2.568  19.608  0.00  0.00    +0.000 A 
ATOM     13  C   UNL     1       1.234   3.201  18.385  0.00  0.00    +0.000 A 
ATOM     14  C   UNL     1       1.876   4.440  18.343  0.00  0.00    +0.000 A 
ENDBRANCH   8   9
ENDBRANCH   5   8
ENDBRANCH   1   2
BRANCH   1  15
ATOM     15  C   UNL     1      -0.964  11.073  19.000  0.00  0.00    +0.000 C 
BRANCH  15  17
ATOM     16  C   UNL     1      -0.567  13.563  19.229  0.00  0.00    +0.000 C 
ATOM     17  C   UNL     1      -1.285  12.340  19.803  0.00  0.00    +0.000 C 
ATOM     18  C   UNL     1      -0.966  12.153  21.309  0.00  0.00    +0.000 C 
ATOM     19  N   UNL     1      -2.213  12.260  22.039  0.00  0.00    +0.000 N 
ATOM     20  C   UNL     1      -2.514  12.183  23.358  0.00  0.00    +0.000 A 
ATOM     21  C   UNL     1      -3.893  12.371  23.385  0.00  0.00    +0.000 A 
ATOM     22  N   UNL     1      -4.409  12.556  22.109  0.00  0.00    +0.000 NA
ATOM     23  C   UNL     1      -3.355  12.486  21.348  0.00  0.00    +0.000 A 
ATOM     24  S   UNL     1      -3.124  12.634  19.662  0.00  0.00    +0.000 S 
BRANCH  21  25
ATOM     25  N   UNL     1      -4.752  12.396  24.549  0.00  0.00    +0.000 N 
ATOM     26  O   UNL     1      -5.967  12.263  24.342  0.00  0.00    +0.000 OA
ATOM     27  O   UNL     1      -4.220  12.549  25.656  0.00  0.00    +0.000 OA
ENDBRANCH  21  25
ENDBRANCH  15  17
ENDBRANCH   1  15
TORSDOF 6
ENDMDL
MODEL 8
REMARK VINA RESULT:      -7.6      2.139      2.820
REMARK  Name = 
REMARK  7 active torsions:
REMARK  status: ('A' for Active; 'I' for Inactive)
REMARK    1  A    between atoms: C_1  and  C_2
REMARK    2  A    between atoms: C_2  and  C_3
REMARK    3  A    between atoms: C_3  and  O_4
REMARK    4  A    between atoms: O_4  and  C_5
REMARK    5  A    between atoms: C_8  and  O_9
REMARK    6  A    between atoms: O_9  and  C_10
REMARK    7  A    between atoms: C_21  and  N_22
REMARK                            x       y       z     vdW  Elec       q    Type
REMARK                         _______ _______ _______ _____ _____    ______ ____
ROOT
ATOM      1  O   UNL     1       2.328   6.495  20.400  0.00  0.00    +0.000 OA
ENDROOT
BRANCH   1   2
ATOM      2  C   UNL     1       1.841   7.707  19.975  0.00  0.00    +0.000 A 
ATOM      3  C   UNL     1       1.146   8.617  20.773  0.00  0.00    +0.000 A 
ATOM      4  C   UNL     1       0.700   9.827  20.246  0.00  0.00    +0.000 A 
ATOM      5  C   UNL     1       0.946  10.146  18.914  0.00  0.00    +0.000 A 
ATOM      6  C   UNL     1       1.596   9.222  18.093  0.00  0.00    +0.000 A 
ATOM      7  C   UNL     1       2.066   8.017  18.631  0.00  0.00    +0.000 A 
BRANCH   5   8
ATOM      8  O   UNL     1       0.439  11.353  18.505  0.00  0.00    +0.000 OA
BRANCH   8   9
ATOM      9  C   UNL     1       1.181  12.501  18.628  0.00  0.00    +0.000 A 
ATOM     10  C   UNL     1       0.536  13.557  19.276  0.00  0.00    +0.000 A 
ATOM     11  C   UNL     1       1.185  14.779  19.444  0.00  0.00    +0.000 A 
ATOM     12  C   UNL     1       2.485  14.946  18.967  0.00  0.00    +0.000 A 
ATOM     13  C   UNL     1       3.150  13.877  18.366  0.00  0.00    +0.000 A 
ATOM     14  C   UNL     1       2.509  12.646  18.219  0.00  0.00    +0.000 A 
ENDBRANCH   8   9
ENDBRANCH   5   8
ENDBRANCH   1   2
BRANCH   1  15
ATOM     15  C   UNL     1       1.416   5.398  20.255  0.00  0.00    +0.000 C 
BRANCH  15  17
ATOM     16  C   UNL     1       1.413   2.873  20.064  0.00  0.00    +0.000 C 
ATOM     17  C   UNL     1       2.112   4.171  19.652  0.00  0.00    +0.000 C 
ATOM     18  C   UNL     1       3.620   4.139  20.011  0.00  0.00    +0.000 C 
ATOM     19  N   UNL     1       4.369   4.257  18.776  0.00  0.00    +0.000 N 
ATOM     20  C   UNL     1       5.697   4.279  18.507  0.00  0.00    +0.000 A 
ATOM     21  C   UNL     1       5.741   4.414  17.122  0.00  0.00    +0.000 A 
ATOM     22  N   UNL     1       4.467   4.471  16.572  0.00  0.00    +0.000 NA
ATOM     23  C   UNL     1       3.689   4.365  17.611  0.00  0.00    +0.000 A 
ATOM     24  S   UNL     1       1.991   4.324  17.795  0.00  0.00    +0.000 S 
BRANCH  21  25
ATOM     25  N   UNL     1       6.920   4.480  16.286  0.00  0.00    +0.000 N 
ATOM     26  O   UNL     1       8.012   4.357  16.860  0.00  0.00    +0.000 OA
ATOM     27  O   UNL     1       6.757   4.655  15.071  0.00  0.00    +0.000 OA
ENDBRANCH  21  25
ENDBRANCH  15  17
ENDBRANCH   1  15
TORSDOF 6
ENDMDL
MODEL 9
REMARK VINA RESULT:      -7.6      1.797      2.683
REMARK  Name = 
REMARK  7 active torsions:
REMARK  status: ('A' for Active; 'I' for Inactive)
REMARK    1  A    between atoms: C_1  and  C_2
REMARK    2  A    between atoms: C_2  and  C_3
REMARK    3  A    between atoms: C_3  and  O_4
REMARK    4  A    between atoms: O_4  and  C_5
REMARK    5  A    between atoms: C_8  and  O_9
REMARK    6  A    between atoms: O_9  and  C_10
REMARK    7  A    between atoms: C_21  and  N_22
REMARK                            x       y       z     vdW  Elec       q    Type
REMARK                         _______ _______ _______ _____ _____    ______ ____
ROOT
ATOM      1  O   UNL     1       3.186   6.580  18.266  0.00  0.00    +0.000 OA
ENDROOT
BRANCH   1   2
ATOM      2  C   UNL     1       2.380   7.614  18.674  0.00  0.00    +0.000 A 
ATOM      3  C   UNL     1       1.902   8.633  17.848  0.00  0.00    +0.000 A 
ATOM      4  C   UNL     1       1.080   9.634  18.359  0.00  0.00    +0.000 A 
ATOM      5  C   UNL     1       0.720   9.628  19.704  0.00  0.00    +0.000 A 
ATOM      6  C   UNL     1       1.232   8.643  20.550  0.00  0.00    +0.000 A 
ATOM      7  C   UNL     1       2.038   7.623  20.029  0.00  0.00    +0.000 A 
BRANCH   5   8
ATOM      8  O   UNL     1      -0.074  10.677  20.095  0.00  0.00    +0.000 OA
BRANCH   8   9
ATOM      9  C   UNL     1       0.311  11.972  19.855  0.00  0.00    +0.000 A 
ATOM     10  C   UNL     1      -0.563  12.712  19.055  0.00  0.00    +0.000 A 
ATOM     11  C   UNL     1      -0.267  14.035  18.730  0.00  0.00    +0.000 A 
ATOM     12  C   UNL     1       0.904  14.623  19.210  0.00  0.00    +0.000 A 
ATOM     13  C   UNL     1       1.751  13.903  20.052  0.00  0.00    +0.000 A 
ATOM     14  C   UNL     1       1.444  12.586  20.397  0.00  0.00    +0.000 A 
ENDBRANCH   8   9
ENDBRANCH   5   8
ENDBRANCH   1   2
BRANCH   1  15
ATOM     15  C   UNL     1       3.335   5.522  19.223  0.00  0.00    +0.000 C 
BRANCH  15  17
ATOM     16  C   UNL     1       4.367   3.255  19.679  0.00  0.00    +0.000 C 
ATOM     17  C   UNL     1       4.289   4.436  18.709  0.00  0.00    +0.000 C 
ATOM     18  C   UNL     1       5.696   5.012  18.406  0.00  0.00    +0.000 C 
ATOM     19  N   UNL     1       5.937   4.863  16.985  0.00  0.00    +0.000 N 
ATOM     20  C   UNL     1       6.988   5.186  16.193  0.00  0.00    +0.000 A 
ATOM     21  C   UNL     1       6.575   4.777  14.929  0.00  0.00    +0.000 A 
ATOM     22  N   UNL     1       5.303   4.220  14.960  0.00  0.00    +0.000 NA
ATOM     23  C   UNL     1       4.977   4.294  16.219  0.00  0.00    +0.000 A 
ATOM     24  S   UNL     1       3.593   3.807  17.094  0.00  0.00    +0.000 S 
BRANCH  21  25
ATOM     25  N   UNL     1       7.318   4.871  13.691  0.00  0.00    +0.000 N 
ATOM     26  O   UNL     1       6.928   4.154  12.757  0.00  0.00    +0.000 OA
ATOM     27  O   UNL     1       8.280   5.649  13.652  0.00  0.00    +0.000 OA
ENDBRANCH  21  25
ENDBRANCH  15  17
ENDBRANCH   1  15
TORSDOF 6
ENDMDL
