MODEL 1
REMARK VINA RESULT:      -8.5      0.000      0.000
REMARK  Name = 
REMARK  9 active torsions:
REMARK  status: ('A' for Active; 'I' for Inactive)
REMARK    1  A    between atoms: C_1  and  C_2
REMARK    2  A    between atoms: C_2  and  O_3
REMARK    3  A    between atoms: O_3  and  C_4
REMARK    4  A    between atoms: C_4  and  C_6
REMARK    5  A    between atoms: C_8  and  C_9
REMARK    6  A    between atoms: C_10  and  C_11
REMARK    7  A    between atoms: C_16  and  N_17
REMARK    8  A    between atoms: C_22  and  O_23
REMARK    9  A    between atoms: O_23  and  C_24
REMARK                            x       y       z     vdW  Elec       q    Type
REMARK                         _______ _______ _______ _____ _____    ______ ____
ROOT
ATOM      1  C   UNL     1       5.268   5.468  16.948  0.00  0.00    +0.000 A 
ATOM      2  C   UNL     1       4.542   6.438  17.615  0.00  0.00    +0.000 A 
ATOM      3  C   UNL     1       3.492   6.016  18.425  0.00  0.00    +0.000 A 
ATOM      4  C   UNL     1       3.198   4.637  18.557  0.00  0.00    +0.000 A 
ATOM      5  C   UNL     1       2.181   4.104  19.385  0.00  0.00    +0.000 A 
ATOM      6  C   UNL     1       1.997   2.727  19.524  0.00  0.00    +0.000 A 
ATOM      7  C   UNL     1       2.811   1.862  18.803  0.00  0.00    +0.000 A 
ATOM      8  C   UNL     1       3.785   2.380  17.949  0.00  0.00    +0.000 A 
ATOM      9  C   UNL     1       4.003   3.742  17.828  0.00  0.00    +0.000 A 
ATOM     10  N   UNL     1       4.998   4.141  17.034  0.00  0.00    +0.000 NA
ENDROOT
BRANCH   1  11
ATOM     11  C   UNL     1       6.376   5.876  16.036  0.00  0.00    +0.000 C 
ATOM     12  O   UNL     1       7.377   6.476  16.395  0.00  0.00    +0.000 OA
BRANCH  11  13
ATOM     13  O   UNL     1       6.028   5.581  14.757  0.00  0.00    +0.000 OA
BRANCH  13  15
ATOM     14  C   UNL     1       6.050   3.765  13.217  0.00  0.00    +0.000 C 
ATOM     15  C   UNL     1       6.905   4.690  14.066  0.00  0.00    +0.000 C 
ENDBRANCH  13  15
ENDBRANCH  11  13
ENDBRANCH   1  11
BRANCH   3  16
ATOM     16  C   UNL     1       2.737   7.009  19.133  0.00  0.00    +0.000 C 
ATOM     17  C   UNL     1       2.081   7.816  19.742  0.00  0.00    +0.000 C 
BRANCH  17  18
ATOM     18  C   UNL     1       1.264   8.739  20.472  0.00  0.00    +0.000 A 
ATOM     19  C   UNL     1       1.067   8.529  21.842  0.00  0.00    +0.000 A 
ATOM     20  C   UNL     1       0.225   9.372  22.576  0.00  0.00    +0.000 A 
ATOM     21  C   UNL     1      -0.428  10.438  21.955  0.00  0.00    +0.000 A 
ATOM     22  C   UNL     1      -0.238  10.667  20.592  0.00  0.00    +0.000 A 
ATOM     23  C   UNL     1       0.607   9.815  19.866  0.00  0.00    +0.000 A 
BRANCH  23  24
ATOM     24  N   UNL     1       0.770  10.078  18.449  0.00  0.00    +0.000 N 
ATOM     25  O   UNL     1       1.827  10.608  18.083  0.00  0.00    +0.000 OA
ATOM     26  O   UNL     1      -0.185   9.791  17.714  0.00  0.00    +0.000 OA
ENDBRANCH  23  24
ENDBRANCH  17  18
ENDBRANCH   3  16
BRANCH   6  27
ATOM     27  O   UNL     1       1.007   2.365  20.392  0.00  0.00    +0.000 OA
ATOM     28  C   UNL     1       1.217   2.668  21.766  0.00  0.00    +0.000 C 
ENDBRANCH   6  27
TORSDOF 7
ENDMDL
MODEL 2
REMARK VINA RESULT:      -8.4      0.946      1.764
REMARK  Name = 
REMARK  9 active torsions:
REMARK  status: ('A' for Active; 'I' for Inactive)
REMARK    1  A    between atoms: C_1  and  C_2
REMARK    2  A    between atoms: C_2  and  O_3
REMARK    3  A    between atoms: O_3  and  C_4
REMARK    4  A    between atoms: C_4  and  C_6
REMARK    5  A    between atoms: C_8  and  C_9
REMARK    6  A    between atoms: C_10  and  C_11
REMARK    7  A    between atoms: C_16  and  N_17
REMARK    8  A    between atoms: C_22  and  O_23
REMARK    9  A    between atoms: O_23  and  C_24
REMARK                            x       y       z     vdW  Elec       q    Type
REMARK                         _______ _______ _______ _____ _____    ______ ____
ROOT
ATOM      1  C   UNL     1       4.829   5.741  16.854  0.00  0.00    +0.000 A 
ATOM      2  C   UNL     1       4.117   6.691  17.563  0.00  0.00    +0.000 A 
ATOM      3  C   UNL     1       3.132   6.240  18.437  0.00  0.00    +0.000 A 
ATOM      4  C   UNL     1       2.889   4.854  18.590  0.00  0.00    +0.000 A 
ATOM      5  C   UNL     1       1.941   4.293  19.479  0.00  0.00    +0.000 A 
ATOM      6  C   UNL     1       1.808   2.912  19.632  0.00  0.00    +0.000 A 
ATOM      7  C   UNL     1       2.602   2.069  18.864  0.00  0.00    +0.000 A 
ATOM      8  C   UNL     1       3.506   2.613  17.949  0.00  0.00    +0.000 A 
ATOM      9  C   UNL     1       3.674   3.981  17.813  0.00  0.00    +0.000 A 
ATOM     10  N   UNL     1       4.605   4.407  16.959  0.00  0.00    +0.000 NA
ENDROOT
BRANCH   1  11
ATOM     11  C   UNL     1       5.865   6.179  15.875  0.00  0.00    +0.000 C 
ATOM     12  O   UNL     1       6.118   5.596  14.832  0.00  0.00    +0.000 OA
BRANCH  11  13
ATOM     13  O   UNL     1       6.543   7.238  16.390  0.00  0.00    +0.000 OA
BRANCH  13  15
ATOM     14  C   UNL     1       8.057   8.238  17.932  0.00  0.00    +0.000 C 
ATOM     15  C   UNL     1       7.497   6.927  17.407  0.00  0.00    +0.000 C 
ENDBRANCH  13  15
ENDBRANCH  11  13
ENDBRANCH   1  11
BRANCH   3  16
ATOM     16  C   UNL     1       2.392   7.213  19.189  0.00  0.00    +0.000 C 
ATOM     17  C   UNL     1       1.779   8.011  19.852  0.00  0.00    +0.000 C 
BRANCH  17  18
ATOM     18  C   UNL     1       1.050   8.925  20.680  0.00  0.00    +0.000 A 
ATOM     19  C   UNL     1       0.905   8.633  22.042  0.00  0.00    +0.000 A 
ATOM     20  C   UNL     1       0.147   9.469  22.870  0.00  0.00    +0.000 A 
ATOM     21  C   UNL     1      -0.471  10.608  22.353  0.00  0.00    +0.000 A 
ATOM     22  C   UNL     1      -0.330  10.919  21.000  0.00  0.00    +0.000 A 
ATOM     23  C   UNL     1       0.430  10.074  20.180  0.00  0.00    +0.000 A 
BRANCH  23  24
ATOM     24  N   UNL     1       0.543  10.424  18.776  0.00  0.00    +0.000 N 
ATOM     25  O   UNL     1      -0.312   9.973  18.004  0.00  0.00    +0.000 OA
ATOM     26  O   UNL     1       1.518  11.115  18.450  0.00  0.00    +0.000 OA
ENDBRANCH  23  24
ENDBRANCH  17  18
ENDBRANCH   3  16
BRANCH   6  27
ATOM     27  O   UNL     1       0.885   2.523  20.560  0.00  0.00    +0.000 OA
ATOM     28  C   UNL     1       1.296   2.549  21.922  0.00  0.00    +0.000 C 
ENDBRANCH   6  27
TORSDOF 7
ENDMDL
MODEL 3
REMARK VINA RESULT:      -8.2      1.628      2.033
REMARK  Name = 
REMARK  9 active torsions:
REMARK  status: ('A' for Active; 'I' for Inactive)
REMARK    1  A    between atoms: C_1  and  C_2
REMARK    2  A    between atoms: C_2  and  O_3
REMARK    3  A    between atoms: O_3  and  C_4
REMARK    4  A    between atoms: C_4  and  C_6
REMARK    5  A    between atoms: C_8  and  C_9
REMARK    6  A    between atoms: C_10  and  C_11
REMARK    7  A    between atoms: C_16  and  N_17
REMARK    8  A    between atoms: C_22  and  O_23
REMARK    9  A    between atoms: O_23  and  C_24
REMARK                            x       y       z     vdW  Elec       q    Type
REMARK                         _______ _______ _______ _____ _____    ______ ____
ROOT
ATOM      1  C   UNL     1       5.805   5.601  17.194  0.00  0.00    +0.000 A 
ATOM      2  C   UNL     1       4.907   6.619  17.457  0.00  0.00    +0.000 A 
ATOM      3  C   UNL     1       3.725   6.284  18.110  0.00  0.00    +0.000 A 
ATOM      4  C   UNL     1       3.472   4.944  18.493  0.00  0.00    +0.000 A 
ATOM      5  C   UNL     1       2.322   4.509  19.195  0.00  0.00    +0.000 A 
ATOM      6  C   UNL     1       2.176   3.182  19.606  0.00  0.00    +0.000 A 
ATOM      7  C   UNL     1       3.167   2.264  19.286  0.00  0.00    +0.000 A 
ATOM      8  C   UNL     1       4.281   2.675  18.553  0.00  0.00    +0.000 A 
ATOM      9  C   UNL     1       4.458   3.993  18.169  0.00  0.00    +0.000 A 
ATOM     10  N   UNL     1       5.584   4.304  17.526  0.00  0.00    +0.000 NA
ENDROOT
BRANCH   1  11
ATOM     11  C   UNL     1       7.067   5.906  16.459  0.00  0.00    +0.000 C 
ATOM     12  O   UNL     1       7.644   6.982  16.497  0.00  0.00    +0.000 OA
BRANCH  11  13
ATOM     13  O   UNL     1       7.385   4.850  15.667  0.00  0.00    +0.000 OA
BRANCH  13  15
ATOM     14  C   UNL     1       6.101   3.839  13.934  0.00  0.00    +0.000 C 
ATOM     15  C   UNL     1       7.037   4.982  14.287  0.00  0.00    +0.000 C 
ENDBRANCH  13  15
ENDBRANCH  11  13
ENDBRANCH   1  11
BRANCH   3  16
ATOM     16  C   UNL     1       2.787   7.331  18.401  0.00  0.00    +0.000 C 
ATOM     17  C   UNL     1       2.004   8.202  18.682  0.00  0.00    +0.000 C 
BRANCH  17  18
ATOM     18  C   UNL     1       1.065   9.215  19.064  0.00  0.00    +0.000 A 
ATOM     19  C   UNL     1       0.495  10.017  18.068  0.00  0.00    +0.000 A 
ATOM     20  C   UNL     1      -0.377  11.057  18.408  0.00  0.00    +0.000 A 
ATOM     21  C   UNL     1      -0.696  11.308  19.744  0.00  0.00    +0.000 A 
ATOM     22  C   UNL     1      -0.144  10.513  20.749  0.00  0.00    +0.000 A 
ATOM     23  C   UNL     1       0.730   9.475  20.396  0.00  0.00    +0.000 A 
BRANCH  23  24
ATOM     24  N   UNL     1       1.294   8.678  21.470  0.00  0.00    +0.000 N 
ATOM     25  O   UNL     1       1.140   7.451  21.414  0.00  0.00    +0.000 OA
ATOM     26  O   UNL     1       1.850   9.294  22.389  0.00  0.00    +0.000 OA
ENDBRANCH  23  24
ENDBRANCH  17  18
ENDBRANCH   3  16
BRANCH   6  27
ATOM     27  O   UNL     1       1.036   2.924  20.313  0.00  0.00    +0.000 OA
ATOM     28  C   UNL     1       1.182   2.732  21.716  0.00  0.00    +0.000 C 
ENDBRANCH   6  27
TORSDOF 7
ENDMDL
MODEL 4
REMARK VINA RESULT:      -8.2      0.731      1.018
REMARK  Name = 
REMARK  9 active torsions:
REMARK  status: ('A' for Active; 'I' for Inactive)
REMARK    1  A    between atoms: C_1  and  C_2
REMARK    2  A    between atoms: C_2  and  O_3
REMARK    3  A    between atoms: O_3  and  C_4
REMARK    4  A    between atoms: C_4  and  C_6
REMARK    5  A    between atoms: C_8  and  C_9
REMARK    6  A    between atoms: C_10  and  C_11
REMARK    7  A    between atoms: C_16  and  N_17
REMARK    8  A    between atoms: C_22  and  O_23
REMARK    9  A    between atoms: O_23  and  C_24
REMARK                            x       y       z     vdW  Elec       q    Type
REMARK                         _______ _______ _______ _____ _____    ______ ____
ROOT
ATOM      1  C   UNL     1       4.486   5.734  16.800  0.00  0.00    +0.000 A 
ATOM      2  C   UNL     1       3.845   6.706  17.546  0.00  0.00    +0.000 A 
ATOM      3  C   UNL     1       2.930   6.284  18.507  0.00  0.00    +0.000 A 
ATOM      4  C   UNL     1       2.687   4.903  18.707  0.00  0.00    +0.000 A 
ATOM      5  C   UNL     1       1.809   4.372  19.682  0.00  0.00    +0.000 A 
ATOM      6  C   UNL     1       1.675   2.995  19.873  0.00  0.00    +0.000 A 
ATOM      7  C   UNL     1       2.393   2.129  19.059  0.00  0.00    +0.000 A 
ATOM      8  C   UNL     1       3.225   2.644  18.062  0.00  0.00    +0.000 A 
ATOM      9  C   UNL     1       3.395   4.007  17.886  0.00  0.00    +0.000 A 
ATOM     10  N   UNL     1       4.257   4.405  16.949  0.00  0.00    +0.000 NA
ENDROOT
BRANCH   1  11
ATOM     11  C   UNL     1       5.442   6.141  15.731  0.00  0.00    +0.000 C 
ATOM     12  O   UNL     1       5.221   7.011  14.902  0.00  0.00    +0.000 OA
BRANCH  11  13
ATOM     13  O   UNL     1       6.519   5.314  15.761  0.00  0.00    +0.000 OA
BRANCH  13  15
ATOM     14  C   UNL     1       6.124   3.854  13.921  0.00  0.00    +0.000 C 
ATOM     15  C   UNL     1       7.039   4.926  14.487  0.00  0.00    +0.000 C 
ENDBRANCH  13  15
ENDBRANCH  11  13
ENDBRANCH   1  11
BRANCH   3  16
ATOM     16  C   UNL     1       2.266   7.279  19.298  0.00  0.00    +0.000 C 
ATOM     17  C   UNL     1       1.694   8.088  19.984  0.00  0.00    +0.000 C 
BRANCH  17  18
ATOM     18  C   UNL     1       0.985   9.010  20.820  0.00  0.00    +0.000 A 
ATOM     19  C   UNL     1       0.829   8.708  22.178  0.00  0.00    +0.000 A 
ATOM     20  C   UNL     1       0.089   9.553  23.013  0.00  0.00    +0.000 A 
ATOM     21  C   UNL     1      -0.501  10.712  22.506  0.00  0.00    +0.000 A 
ATOM     22  C   UNL     1      -0.350  11.033  21.157  0.00  0.00    +0.000 A 
ATOM     23  C   UNL     1       0.393  10.179  20.330  0.00  0.00    +0.000 A 
BRANCH  23  24
ATOM     24  N   UNL     1       0.518  10.540  18.930  0.00  0.00    +0.000 N 
ATOM     25  O   UNL     1      -0.347  10.118  18.151  0.00  0.00    +0.000 OA
ATOM     26  O   UNL     1       1.510  11.210  18.613  0.00  0.00    +0.000 OA
ENDBRANCH  23  24
ENDBRANCH  17  18
ENDBRANCH   3  16
BRANCH   6  27
ATOM     27  O   UNL     1       0.827   2.635  20.881  0.00  0.00    +0.000 OA
ATOM     28  C   UNL     1       1.405   2.449  22.168  0.00  0.00    +0.000 C 
ENDBRANCH   6  27
TORSDOF 7
ENDMDL
MODEL 5
REMARK VINA RESULT:      -8.1      1.918      2.728
REMARK  Name = 
REMARK  9 active torsions:
REMARK  status: ('A' for Active; 'I' for Inactive)
REMARK    1  A    between atoms: C_1  and  C_2
REMARK    2  A    between atoms: C_2  and  O_3
REMARK    3  A    between atoms: O_3  and  C_4
REMARK    4  A    between atoms: C_4  and  C_6
REMARK    5  A    between atoms: C_8  and  C_9
REMARK    6  A    between atoms: C_10  and  C_11
REMARK    7  A    between atoms: C_16  and  N_17
REMARK    8  A    between atoms: C_22  and  O_23
REMARK    9  A    between atoms: O_23  and  C_24
REMARK                            x       y       z     vdW  Elec       q    Type
REMARK                         _______ _______ _______ _____ _____    ______ ____
ROOT
ATOM      1  C   UNL     1       5.647   5.996  17.101  0.00  0.00    +0.000 A 
ATOM      2  C   UNL     1       4.710   6.956  17.436  0.00  0.00    +0.000 A 
ATOM      3  C   UNL     1       3.547   6.530  18.069  0.00  0.00    +0.000 A 
ATOM      4  C   UNL     1       3.352   5.158  18.363  0.00  0.00    +0.000 A 
ATOM      5  C   UNL     1       2.226   4.629  19.039  0.00  0.00    +0.000 A 
ATOM      6  C   UNL     1       2.136   3.274  19.361  0.00  0.00    +0.000 A 
ATOM      7  C   UNL     1       3.162   2.420  18.976  0.00  0.00    +0.000 A 
ATOM      8  C   UNL     1       4.254   2.925  18.267  0.00  0.00    +0.000 A 
ATOM      9  C   UNL     1       4.373   4.272  17.972  0.00  0.00    +0.000 A 
ATOM     10  N   UNL     1       5.481   4.672  17.346  0.00  0.00    +0.000 NA
ENDROOT
BRANCH   1  11
ATOM     11  C   UNL     1       6.890   6.401  16.383  0.00  0.00    +0.000 C 
ATOM     12  O   UNL     1       7.540   5.661  15.659  0.00  0.00    +0.000 OA
BRANCH  11  13
ATOM     13  O   UNL     1       7.231   7.660  16.762  0.00  0.00    +0.000 OA
BRANCH  13  15
ATOM     14  C   UNL     1       8.386   9.220  18.142  0.00  0.00    +0.000 C 
ATOM     15  C   UNL     1       8.022   7.758  17.948  0.00  0.00    +0.000 C 
ENDBRANCH  13  15
ENDBRANCH  11  13
ENDBRANCH   1  11
BRANCH   3  16
ATOM     16  C   UNL     1       2.570   7.515  18.434  0.00  0.00    +0.000 C 
ATOM     17  C   UNL     1       1.776   8.362  18.756  0.00  0.00    +0.000 C 
BRANCH  17  18
ATOM     18  C   UNL     1       0.868   9.388  19.176  0.00  0.00    +0.000 A 
ATOM     19  C   UNL     1       0.274  10.202  18.204  0.00  0.00    +0.000 A 
ATOM     20  C   UNL     1      -0.569  11.254  18.580  0.00  0.00    +0.000 A 
ATOM     21  C   UNL     1      -0.836  11.505  19.926  0.00  0.00    +0.000 A 
ATOM     22  C   UNL     1      -0.259  10.697  20.908  0.00  0.00    +0.000 A 
ATOM     23  C   UNL     1       0.585   9.647  20.521  0.00  0.00    +0.000 A 
BRANCH  23  24
ATOM     24  N   UNL     1       1.175   8.838  21.570  0.00  0.00    +0.000 N 
ATOM     25  O   UNL     1       0.988   7.615  21.523  0.00  0.00    +0.000 OA
ATOM     26  O   UNL     1       1.787   9.441  22.463  0.00  0.00    +0.000 OA
ENDBRANCH  23  24
ENDBRANCH  17  18
ENDBRANCH   3  16
BRANCH   6  27
ATOM     27  O   UNL     1       1.013   2.922  20.054  0.00  0.00    +0.000 OA
ATOM     28  C   UNL     1       1.150   2.770  21.462  0.00  0.00    +0.000 C 
ENDBRANCH   6  27
TORSDOF 7
ENDMDL
MODEL 6
REMARK VINA RESULT:      -8.0      1.671      2.106
REMARK  Name = 
REMARK  9 active torsions:
REMARK  status: ('A' for Active; 'I' for Inactive)
REMARK    1  A    between atoms: C_1  and  C_2
REMARK    2  A    between atoms: C_2  and  O_3
REMARK    3  A    between atoms: O_3  and  C_4
REMARK    4  A    between atoms: C_4  and  C_6
REMARK    5  A    between atoms: C_8  and  C_9
REMARK    6  A    between atoms: C_10  and  C_11
REMARK    7  A    between atoms: C_16  and  N_17
REMARK    8  A    between atoms: C_22  and  O_23
REMARK    9  A    between atoms: O_23  and  C_24
REMARK                            x       y       z     vdW  Elec       q    Type
REMARK                         _______ _______ _______ _____ _____    ______ ____
ROOT
ATOM      1  C   UNL     1       5.300   4.768  16.295  0.00  0.00    +0.000 A 
ATOM      2  C   UNL     1       4.666   5.917  16.731  0.00  0.00    +0.000 A 
ATOM      3  C   UNL     1       3.588   5.769  17.599  0.00  0.00    +0.000 A 
ATOM      4  C   UNL     1       3.177   4.481  18.019  0.00  0.00    +0.000 A 
ATOM      5  C   UNL     1       2.122   4.226  18.929  0.00  0.00    +0.000 A 
ATOM      6  C   UNL     1       1.821   2.932  19.356  0.00  0.00    +0.000 A 
ATOM      7  C   UNL     1       2.552   1.867  18.846  0.00  0.00    +0.000 A 
ATOM      8  C   UNL     1       3.563   2.104  17.913  0.00  0.00    +0.000 A 
ATOM      9  C   UNL     1       3.896   3.385  17.507  0.00  0.00    +0.000 A 
ATOM     10  N   UNL     1       4.917   3.518  16.658  0.00  0.00    +0.000 NA
ENDROOT
BRANCH   1  11
ATOM     11  C   UNL     1       6.433   4.875  15.330  0.00  0.00    +0.000 C 
ATOM     12  O   UNL     1       7.177   5.840  15.246  0.00  0.00    +0.000 OA
BRANCH  11  13
ATOM     13  O   UNL     1       6.415   3.797  14.504  0.00  0.00    +0.000 OA
BRANCH  13  15
ATOM     14  C   UNL     1       5.453   3.365  12.369  0.00  0.00    +0.000 C 
ATOM     15  C   UNL     1       6.568   4.080  13.112  0.00  0.00    +0.000 C 
ENDBRANCH  13  15
ENDBRANCH  11  13
ENDBRANCH   1  11
BRANCH   3  16
ATOM     16  C   UNL     1       2.926   6.952  18.070  0.00  0.00    +0.000 C 
ATOM     17  C   UNL     1       2.385   7.964  18.437  0.00  0.00    +0.000 C 
BRANCH  17  18
ATOM     18  C   UNL     1       1.777   9.195  18.844  0.00  0.00    +0.000 A 
ATOM     19  C   UNL     1       1.948  10.330  18.042  0.00  0.00    +0.000 A 
ATOM     20  C   UNL     1       1.422  11.565  18.438  0.00  0.00    +0.000 A 
ATOM     21  C   UNL     1       0.715  11.684  19.635  0.00  0.00    +0.000 A 
ATOM     22  C   UNL     1       0.527  10.562  20.443  0.00  0.00    +0.000 A 
ATOM     23  C   UNL     1       1.060   9.330  20.037  0.00  0.00    +0.000 A 
BRANCH  23  24
ATOM     24  N   UNL     1       0.855   8.189  20.910  0.00  0.00    +0.000 N 
ATOM     25  O   UNL     1      -0.289   7.999  21.343  0.00  0.00    +0.000 OA
ATOM     26  O   UNL     1       1.855   7.515  21.192  0.00  0.00    +0.000 OA
ENDBRANCH  23  24
ENDBRANCH  17  18
ENDBRANCH   3  16
BRANCH   6  27
ATOM     27  O   UNL     1       0.809   2.850  20.269  0.00  0.00    +0.000 OA
ATOM     28  C   UNL     1       1.183   2.846  21.642  0.00  0.00    +0.000 C 
ENDBRANCH   6  27
TORSDOF 7
ENDMDL
MODEL 7
REMARK VINA RESULT:      -7.9      2.058      5.130
REMARK  Name = 
REMARK  9 active torsions:
REMARK  status: ('A' for Active; 'I' for Inactive)
REMARK    1  A    between atoms: C_1  and  C_2
REMARK    2  A    between atoms: C_2  and  O_3
REMARK    3  A    between atoms: O_3  and  C_4
REMARK    4  A    between atoms: C_4  and  C_6
REMARK    5  A    between atoms: C_8  and  C_9
REMARK    6  A    between atoms: C_10  and  C_11
REMARK    7  A    between atoms: C_16  and  N_17
REMARK    8  A    between atoms: C_22  and  O_23
REMARK    9  A    between atoms: O_23  and  C_24
REMARK                            x       y       z     vdW  Elec       q    Type
REMARK                         _______ _______ _______ _____ _____    ______ ____
ROOT
ATOM      1  C   UNL     1       2.566   3.779  18.393  0.00  0.00    +0.000 A 
ATOM      2  C   UNL     1       2.064   5.045  18.633  0.00  0.00    +0.000 A 
ATOM      3  C   UNL     1       2.904   6.128  18.393  0.00  0.00    +0.000 A 
ATOM      4  C   UNL     1       4.219   5.922  17.909  0.00  0.00    +0.000 A 
ATOM      5  C   UNL     1       5.134   6.955  17.595  0.00  0.00    +0.000 A 
ATOM      6  C   UNL     1       6.390   6.679  17.050  0.00  0.00    +0.000 A 
ATOM      7  C   UNL     1       6.760   5.357  16.846  0.00  0.00    +0.000 A 
ATOM      8  C   UNL     1       5.882   4.329  17.197  0.00  0.00    +0.000 A 
ATOM      9  C   UNL     1       4.620   4.589  17.705  0.00  0.00    +0.000 A 
ATOM     10  N   UNL     1       3.827   3.546  17.953  0.00  0.00    +0.000 NA
ENDROOT
BRANCH   1  11
ATOM     11  C   UNL     1       1.716   2.586  18.677  0.00  0.00    +0.000 C 
ATOM     12  O   UNL     1       0.615   2.392  18.186  0.00  0.00    +0.000 OA
BRANCH  11  13
ATOM     13  O   UNL     1       2.310   1.838  19.643  0.00  0.00    +0.000 OA
BRANCH  13  15
ATOM     14  C   UNL     1       1.334   2.671  21.649  0.00  0.00    +0.000 C 
ATOM     15  C   UNL     1       2.621   2.526  20.856  0.00  0.00    +0.000 C 
ENDBRANCH  13  15
ENDBRANCH  11  13
ENDBRANCH   1  11
BRANCH   3  16
ATOM     16  C   UNL     1       2.395   7.449  18.626  0.00  0.00    +0.000 C 
ATOM     17  C   UNL     1       1.976   8.555  18.857  0.00  0.00    +0.000 C 
BRANCH  17  18
ATOM     18  C   UNL     1       1.476   9.857  19.184  0.00  0.00    +0.000 A 
ATOM     19  C   UNL     1       1.674  10.904  18.276  0.00  0.00    +0.000 A 
ATOM     20  C   UNL     1       1.255  12.203  18.588  0.00  0.00    +0.000 A 
ATOM     21  C   UNL     1       0.631  12.473  19.806  0.00  0.00    +0.000 A 
ATOM     22  C   UNL     1       0.418  11.440  20.720  0.00  0.00    +0.000 A 
ATOM     23  C   UNL     1       0.843  10.144  20.398  0.00  0.00    +0.000 A 
BRANCH  23  24
ATOM     24  N   UNL     1       0.615   9.099  21.378  0.00  0.00    +0.000 N 
ATOM     25  O   UNL     1      -0.458   8.484  21.321  0.00  0.00    +0.000 OA
ATOM     26  O   UNL     1       1.498   8.932  22.231  0.00  0.00    +0.000 OA
ENDBRANCH  23  24
ENDBRANCH  17  18
ENDBRANCH   3  16
BRANCH   6  27
ATOM     27  O   UNL     1       7.143   7.780  16.757  0.00  0.00    +0.000 OA
ATOM     28  C   UNL     1       7.910   8.333  17.819  0.00  0.00    +0.000 C 
ENDBRANCH   6  27
TORSDOF 7
ENDMDL
MODEL 8
REMARK VINA RESULT:      -7.8      1.769      2.094
REMARK  Name = 
REMARK  9 active torsions:
REMARK  status: ('A' for Active; 'I' for Inactive)
REMARK    1  A    between atoms: C_1  and  C_2
REMARK    2  A    between atoms: C_2  and  O_3
REMARK    3  A    between atoms: O_3  and  C_4
REMARK    4  A    between atoms: C_4  and  C_6
REMARK    5  A    between atoms: C_8  and  C_9
REMARK    6  A    between atoms: C_10  and  C_11
REMARK    7  A    between atoms: C_16  and  N_17
REMARK    8  A    between atoms: C_22  and  O_23
REMARK    9  A    between atoms: O_23  and  C_24
REMARK                            x       y       z     vdW  Elec       q    Type
REMARK                         _______ _______ _______ _____ _____    ______ ____
ROOT
ATOM      1  C   UNL     1       5.267   5.287  16.718  0.00  0.00    +0.000 A 
ATOM      2  C   UNL     1       4.446   6.356  17.025  0.00  0.00    +0.000 A 
ATOM      3  C   UNL     1       3.595   6.223  18.118  0.00  0.00    +0.000 A 
ATOM      4  C   UNL     1       3.594   5.033  18.885  0.00  0.00    +0.000 A 
ATOM      5  C   UNL     1       2.799   4.814  20.036  0.00  0.00    +0.000 A 
ATOM      6  C   UNL     1       2.905   3.642  20.787  0.00  0.00    +0.000 A 
ATOM      7  C   UNL     1       3.786   2.652  20.370  0.00  0.00    +0.000 A 
ATOM      8  C   UNL     1       4.539   2.839  19.210  0.00  0.00    +0.000 A 
ATOM      9  C   UNL     1       4.471   4.011  18.475  0.00  0.00    +0.000 A 
ATOM     10  N   UNL     1       5.273   4.124  17.416  0.00  0.00    +0.000 NA
ENDROOT
BRANCH   1  11
ATOM     11  C   UNL     1       6.165   5.368  15.529  0.00  0.00    +0.000 C 
ATOM     12  O   UNL     1       7.230   5.965  15.509  0.00  0.00    +0.000 OA
BRANCH  11  13
ATOM     13  O   UNL     1       5.549   4.784  14.468  0.00  0.00    +0.000 OA
BRANCH  13  15
ATOM     14  C   UNL     1       5.604   3.514  12.454  0.00  0.00    +0.000 C 
ATOM     15  C   UNL     1       6.324   3.817  13.757  0.00  0.00    +0.000 C 
ENDBRANCH  13  15
ENDBRANCH  11  13
ENDBRANCH   1  11
BRANCH   3  16
ATOM     16  C   UNL     1       2.745   7.328  18.458  0.00  0.00    +0.000 C 
ATOM     17  C   UNL     1       2.007   8.232  18.760  0.00  0.00    +0.000 C 
BRANCH  17  18
ATOM     18  C   UNL     1       1.092   9.270  19.128  0.00  0.00    +0.000 A 
ATOM     19  C   UNL     1       0.578  10.103  18.126  0.00  0.00    +0.000 A 
ATOM     20  C   UNL     1      -0.270  11.167  18.455  0.00  0.00    +0.000 A 
ATOM     21  C   UNL     1      -0.620  11.412  19.783  0.00  0.00    +0.000 A 
ATOM     22  C   UNL     1      -0.124  10.587  20.794  0.00  0.00    +0.000 A 
ATOM     23  C   UNL     1       0.726   9.525  20.453  0.00  0.00    +0.000 A 
BRANCH  23  24
ATOM     24  N   UNL     1       1.231   8.697  21.532  0.00  0.00    +0.000 N 
ATOM     25  O   UNL     1       1.859   9.259  22.439  0.00  0.00    +0.000 OA
ATOM     26  O   UNL     1       1.033   7.478  21.441  0.00  0.00    +0.000 OA
ENDBRANCH  23  24
ENDBRANCH  17  18
ENDBRANCH   3  16
BRANCH   6  27
ATOM     27  O   UNL     1       2.108   3.596  21.895  0.00  0.00    +0.000 OA
ATOM     28  C   UNL     1       1.196   2.508  21.983  0.00  0.00    +0.000 C 
ENDBRANCH   6  27
TORSDOF 7
ENDMDL
MODEL 9
REMARK VINA RESULT:      -7.8      2.219      5.239
REMARK  Name = 
REMARK  9 active torsions:
REMARK  status: ('A' for Active; 'I' for Inactive)
REMARK    1  A    between atoms: C_1  and  C_2
REMARK    2  A    between atoms: C_2  and  O_3
REMARK    3  A    between atoms: O_3  and  C_4
REMARK    4  A    between atoms: C_4  and  C_6
REMARK    5  A    between atoms: C_8  and  C_9
REMARK    6  A    between atoms: C_10  and  C_11
REMARK    7  A    between atoms: C_16  and  N_17
REMARK    8  A    between atoms: C_22  and  O_23
REMARK    9  A    between atoms: O_23  and  C_24
REMARK                            x       y       z     vdW  Elec       q    Type
REMARK                         _______ _______ _______ _____ _____    ______ ____
ROOT
ATOM      1  C   UNL     1       2.229   4.383  18.348  0.00  0.00    +0.000 A 
ATOM      2  C   UNL     1       1.888   5.721  18.403  0.00  0.00    +0.000 A 
ATOM      3  C   UNL     1       2.884   6.654  18.129  0.00  0.00    +0.000 A 
ATOM      4  C   UNL     1       4.193   6.227  17.796  0.00  0.00    +0.000 A 
ATOM      5  C   UNL     1       5.263   7.092  17.462  0.00  0.00    +0.000 A 
ATOM      6  C   UNL     1       6.508   6.597  17.071  0.00  0.00    +0.000 A 
ATOM      7  C   UNL     1       6.710   5.223  17.045  0.00  0.00    +0.000 A 
ATOM      8  C   UNL     1       5.675   4.364  17.419  0.00  0.00    +0.000 A 
ATOM      9  C   UNL     1       4.423   4.839  17.775  0.00  0.00    +0.000 A 
ATOM     10  N   UNL     1       3.479   3.941  18.057  0.00  0.00    +0.000 NA
ENDROOT
BRANCH   1  11
ATOM     11  C   UNL     1       1.205   3.349  18.675  0.00  0.00    +0.000 C 
ATOM     12  O   UNL     1       0.728   2.570  17.864  0.00  0.00    +0.000 OA
BRANCH  11  13
ATOM     13  O   UNL     1       0.816   3.503  19.968  0.00  0.00    +0.000 OA
BRANCH  13  15
ATOM     14  C   UNL     1       2.192   3.419  21.910  0.00  0.00    +0.000 C 
ATOM     15  C   UNL     1       1.403   2.598  20.904  0.00  0.00    +0.000 C 
ENDBRANCH  13  15
ENDBRANCH  11  13
ENDBRANCH   1  11
BRANCH   3  16
ATOM     16  C   UNL     1       2.543   8.047  18.170  0.00  0.00    +0.000 C 
ATOM     17  C   UNL     1       2.226   9.208  18.224  0.00  0.00    +0.000 C 
BRANCH  17  18
ATOM     18  C   UNL     1       1.799  10.573  18.300  0.00  0.00    +0.000 A 
ATOM     19  C   UNL     1       2.683  11.581  17.895  0.00  0.00    +0.000 A 
ATOM     20  C   UNL     1       2.325  12.928  18.012  0.00  0.00    +0.000 A 
ATOM     21  C   UNL     1       1.080  13.289  18.530  0.00  0.00    +0.000 A 
ATOM     22  C   UNL     1       0.183  12.298  18.932  0.00  0.00    +0.000 A 
ATOM     23  C   UNL     1       0.553  10.951  18.810  0.00  0.00    +0.000 A 
BRANCH  23  24
ATOM     24  N   UNL     1      -0.401   9.951  19.249  0.00  0.00    +0.000 N 
ATOM     25  O   UNL     1      -1.371   9.723  18.514  0.00  0.00    +0.000 OA
ATOM     26  O   UNL     1      -0.196   9.430  20.354  0.00  0.00    +0.000 OA
ENDBRANCH  23  24
ENDBRANCH  17  18
ENDBRANCH   3  16
BRANCH   6  27
ATOM     27  O   UNL     1       7.425   7.551  16.735  0.00  0.00    +0.000 OA
ATOM     28  C   UNL     1       7.799   8.469  17.756  0.00  0.00    +0.000 C 
ENDBRANCH   6  27
TORSDOF 7
ENDMDL
