MODEL 1
REMARK VINA RESULT:      -8.4      0.000      0.000
REMARK  Name = 
REMARK  1 active torsions:
REMARK  status: ('A' for Active; 'I' for Inactive)
REMARK    1  A    between atoms: C_12  and  C_13
REMARK                            x       y       z     vdW  Elec       q    Type
REMARK                         _______ _______ _______ _____ _____    ______ ____
ROOT
ATOM      1  O   UNL     1       3.700   1.229  18.263  0.00  0.00    +0.000 OA
ATOM      2  C   UNL     1       3.602   2.436  18.333  0.00  0.00    +0.000 C 
ATOM      3  C   UNL     1       2.886   3.217  19.366  0.00  0.00    +0.000 A 
ATOM      4  C   UNL     1       2.188   2.776  20.470  0.00  0.00    +0.000 A 
ATOM      5  C   UNL     1       1.604   3.755  21.275  0.00  0.00    +0.000 A 
ATOM      6  C   UNL     1       1.731   5.124  20.959  0.00  0.00    +0.000 A 
ATOM      7  C   UNL     1       2.449   5.545  19.832  0.00  0.00    +0.000 A 
ATOM      8  C   UNL     1       3.031   4.576  19.038  0.00  0.00    +0.000 A 
ATOM      9  C   UNL     1       3.822   4.670  17.842  0.00  0.00    +0.000 A 
ATOM     10  N   UNL     1       4.201   5.781  17.212  0.00  0.00    +0.000 NA
ATOM     11  N   UNL     1       4.957   5.629  16.071  0.00  0.00    +0.000 NA
ATOM     12  C   UNL     1       5.306   4.390  15.595  0.00  0.00    +0.000 A 
ATOM     13  C   UNL     1       4.929   3.230  16.262  0.00  0.00    +0.000 A 
ATOM     14  C   UNL     1       4.177   3.411  17.394  0.00  0.00    +0.000 A 
ENDROOT
BRANCH  12  15
ATOM     15  C   UNL     1       6.065   4.375  14.333  0.00  0.00    +0.000 A 
ATOM     16  C   UNL     1       7.190   5.198  14.151  0.00  0.00    +0.000 A 
ATOM     17  C   UNL     1       7.888   5.213  12.940  0.00  0.00    +0.000 A 
ATOM     18  C   UNL     1       7.480   4.397  11.888  0.00  0.00    +0.000 A 
ATOM     19  C   UNL     1       6.377   3.565  12.047  0.00  0.00    +0.000 A 
ATOM     20  C   UNL     1       5.677   3.556  13.255  0.00  0.00    +0.000 A 
ENDBRANCH  12  15
TORSDOF 1
ENDMDL
MODEL 2
REMARK VINA RESULT:      -8.4      0.045      1.077
REMARK  Name = 
REMARK  1 active torsions:
REMARK  status: ('A' for Active; 'I' for Inactive)
REMARK    1  A    between atoms: C_12  and  C_13
REMARK                            x       y       z     vdW  Elec       q    Type
REMARK                         _______ _______ _______ _____ _____    ______ ____
ROOT
ATOM      1  O   UNL     1       3.700   1.204  18.230  0.00  0.00    +0.000 OA
ATOM      2  C   UNL     1       3.599   2.409  18.317  0.00  0.00    +0.000 C 
ATOM      3  C   UNL     1       2.888   3.174  19.366  0.00  0.00    +0.000 A 
ATOM      4  C   UNL     1       2.199   2.717  20.468  0.00  0.00    +0.000 A 
ATOM      5  C   UNL     1       1.618   3.683  21.291  0.00  0.00    +0.000 A 
ATOM      6  C   UNL     1       1.739   5.056  20.993  0.00  0.00    +0.000 A 
ATOM      7  C   UNL     1       2.448   5.494  19.867  0.00  0.00    +0.000 A 
ATOM      8  C   UNL     1       3.028   4.538  19.056  0.00  0.00    +0.000 A 
ATOM      9  C   UNL     1       3.810   4.650  17.856  0.00  0.00    +0.000 A 
ATOM     10  N   UNL     1       4.181   5.772  17.239  0.00  0.00    +0.000 NA
ATOM     11  N   UNL     1       4.930   5.636  16.091  0.00  0.00    +0.000 NA
ATOM     12  C   UNL     1       5.279   4.406  15.595  0.00  0.00    +0.000 A 
ATOM     13  C   UNL     1       4.909   3.236  16.249  0.00  0.00    +0.000 A 
ATOM     14  C   UNL     1       4.165   3.398  17.388  0.00  0.00    +0.000 A 
ENDROOT
BRANCH  12  15
ATOM     15  C   UNL     1       6.029   4.409  14.328  0.00  0.00    +0.000 A 
ATOM     16  C   UNL     1       5.642   3.592  13.252  0.00  0.00    +0.000 A 
ATOM     17  C   UNL     1       6.375   3.565  12.062  0.00  0.00    +0.000 A 
ATOM     18  C   UNL     1       7.507   4.363  11.921  0.00  0.00    +0.000 A 
ATOM     19  C   UNL     1       7.905   5.189  12.967  0.00  0.00    +0.000 A 
ATOM     20  C   UNL     1       7.176   5.209  14.156  0.00  0.00    +0.000 A 
ENDBRANCH  12  15
TORSDOF 1
ENDMDL
MODEL 3
REMARK VINA RESULT:      -8.1      4.566      6.310
REMARK  Name = 
REMARK  1 active torsions:
REMARK  status: ('A' for Active; 'I' for Inactive)
REMARK    1  A    between atoms: C_12  and  C_13
REMARK                            x       y       z     vdW  Elec       q    Type
REMARK                         _______ _______ _______ _____ _____    ______ ____
ROOT
ATOM      1  O   UNL     1       0.993  11.148  18.418  0.00  0.00    +0.000 OA
ATOM      2  C   UNL     1       0.930  10.330  19.312  0.00  0.00    +0.000 C 
ATOM      3  C   UNL     1       0.251  10.483  20.617  0.00  0.00    +0.000 A 
ATOM      4  C   UNL     1      -0.460  11.554  21.115  0.00  0.00    +0.000 A 
ATOM      5  C   UNL     1      -0.992  11.414  22.398  0.00  0.00    +0.000 A 
ATOM      6  C   UNL     1      -0.799  10.228  23.136  0.00  0.00    +0.000 A 
ATOM      7  C   UNL     1      -0.074   9.152  22.606  0.00  0.00    +0.000 A 
ATOM      8  C   UNL     1       0.447   9.289  21.333  0.00  0.00    +0.000 A 
ATOM      9  C   UNL     1       1.216   8.394  20.515  0.00  0.00    +0.000 A 
ATOM     10  N   UNL     1       1.602   7.155  20.820  0.00  0.00    +0.000 NA
ATOM     11  N   UNL     1       2.343   6.479  19.876  0.00  0.00    +0.000 NA
ATOM     12  C   UNL     1       2.676   7.049  18.674  0.00  0.00    +0.000 A 
ATOM     13  C   UNL     1       2.258   8.334  18.346  0.00  0.00    +0.000 A 
ATOM     14  C   UNL     1       1.523   8.985  19.303  0.00  0.00    +0.000 A 
ENDROOT
BRANCH  12  15
ATOM     15  C   UNL     1       3.523   6.235  17.785  0.00  0.00    +0.000 A 
ATOM     16  C   UNL     1       4.478   6.831  16.944  0.00  0.00    +0.000 A 
ATOM     17  C   UNL     1       5.255   6.063  16.072  0.00  0.00    +0.000 A 
ATOM     18  C   UNL     1       5.098   4.680  16.030  0.00  0.00    +0.000 A 
ATOM     19  C   UNL     1       4.167   4.065  16.861  0.00  0.00    +0.000 A 
ATOM     20  C   UNL     1       3.388   4.834  17.726  0.00  0.00    +0.000 A 
ENDBRANCH  12  15
TORSDOF 1
ENDMDL
MODEL 4
REMARK VINA RESULT:      -8.1      4.556      6.384
REMARK  Name = 
REMARK  1 active torsions:
REMARK  status: ('A' for Active; 'I' for Inactive)
REMARK    1  A    between atoms: C_12  and  C_13
REMARK                            x       y       z     vdW  Elec       q    Type
REMARK                         _______ _______ _______ _____ _____    ______ ____
ROOT
ATOM      1  O   UNL     1       0.776  11.030  18.324  0.00  0.00    +0.000 OA
ATOM      2  C   UNL     1       0.782  10.251  19.254  0.00  0.00    +0.000 C 
ATOM      3  C   UNL     1       0.154  10.437  20.581  0.00  0.00    +0.000 A 
ATOM      4  C   UNL     1      -0.576  11.503  21.063  0.00  0.00    +0.000 A 
ATOM      5  C   UNL     1      -1.046  11.401  22.373  0.00  0.00    +0.000 A 
ATOM      6  C   UNL     1      -0.776  10.257  23.152  0.00  0.00    +0.000 A 
ATOM      7  C   UNL     1      -0.033   9.186  22.637  0.00  0.00    +0.000 A 
ATOM      8  C   UNL     1       0.427   9.285  21.338  0.00  0.00    +0.000 A 
ATOM      9  C   UNL     1       1.194   8.382  20.526  0.00  0.00    +0.000 A 
ATOM     10  N   UNL     1       1.640   7.173  20.866  0.00  0.00    +0.000 NA
ATOM     11  N   UNL     1       2.365   6.483  19.920  0.00  0.00    +0.000 NA
ATOM     12  C   UNL     1       2.624   7.011  18.681  0.00  0.00    +0.000 A 
ATOM     13  C   UNL     1       2.143   8.264  18.317  0.00  0.00    +0.000 A 
ATOM     14  C   UNL     1       1.425   8.929  19.277  0.00  0.00    +0.000 A 
ENDROOT
BRANCH  12  15
ATOM     15  C   UNL     1       3.462   6.189  17.792  0.00  0.00    +0.000 A 
ATOM     16  C   UNL     1       3.281   4.797  17.704  0.00  0.00    +0.000 A 
ATOM     17  C   UNL     1       4.101   4.010  16.890  0.00  0.00    +0.000 A 
ATOM     18  C   UNL     1       5.114   4.601  16.139  0.00  0.00    +0.000 A 
ATOM     19  C   UNL     1       5.306   5.977  16.200  0.00  0.00    +0.000 A 
ATOM     20  C   UNL     1       4.491   6.760  17.019  0.00  0.00    +0.000 A 
ENDBRANCH  12  15
TORSDOF 1
ENDMDL
MODEL 5
REMARK VINA RESULT:      -7.8      3.439      7.864
REMARK  Name = 
REMARK  1 active torsions:
REMARK  status: ('A' for Active; 'I' for Inactive)
REMARK    1  A    between atoms: C_12  and  C_13
REMARK                            x       y       z     vdW  Elec       q    Type
REMARK                         _______ _______ _______ _____ _____    ______ ____
ROOT
ATOM      1  O   UNL     1       3.280   4.220  19.958  0.00  0.00    +0.000 OA
ATOM      2  C   UNL     1       3.424   5.104  19.140  0.00  0.00    +0.000 C 
ATOM      3  C   UNL     1       4.227   5.052  17.899  0.00  0.00    +0.000 A 
ATOM      4  C   UNL     1       4.976   4.016  17.383  0.00  0.00    +0.000 A 
ATOM      5  C   UNL     1       5.641   4.261  16.180  0.00  0.00    +0.000 A 
ATOM      6  C   UNL     1       5.542   5.513  15.539  0.00  0.00    +0.000 A 
ATOM      7  C   UNL     1       4.771   6.548  16.084  0.00  0.00    +0.000 A 
ATOM      8  C   UNL     1       4.109   6.305  17.271  0.00  0.00    +0.000 A 
ATOM      9  C   UNL     1       3.251   7.131  18.074  0.00  0.00    +0.000 A 
ATOM     10  N   UNL     1       2.872   8.384  17.820  0.00  0.00    +0.000 NA
ATOM     11  N   UNL     1       2.043   8.987  18.739  0.00  0.00    +0.000 NA
ATOM     12  C   UNL     1       1.624   8.336  19.871  0.00  0.00    +0.000 A 
ATOM     13  C   UNL     1       2.001   7.022  20.128  0.00  0.00    +0.000 A 
ATOM     14  C   UNL     1       2.826   6.446  19.197  0.00  0.00    +0.000 A 
ENDROOT
BRANCH  12  15
ATOM     15  C   UNL     1       0.789   9.121  20.797  0.00  0.00    +0.000 A 
ATOM     16  C   UNL     1       0.031  10.214  20.341  0.00  0.00    +0.000 A 
ATOM     17  C   UNL     1      -0.731  10.985  21.224  0.00  0.00    +0.000 A 
ATOM     18  C   UNL     1      -0.757  10.672  22.581  0.00  0.00    +0.000 A 
ATOM     19  C   UNL     1      -0.025   9.589  23.054  0.00  0.00    +0.000 A 
ATOM     20  C   UNL     1       0.741   8.825  22.172  0.00  0.00    +0.000 A 
ENDBRANCH  12  15
TORSDOF 1
ENDMDL
MODEL 6
REMARK VINA RESULT:      -7.8      3.405      7.830
REMARK  Name = 
REMARK  1 active torsions:
REMARK  status: ('A' for Active; 'I' for Inactive)
REMARK    1  A    between atoms: C_12  and  C_13
REMARK                            x       y       z     vdW  Elec       q    Type
REMARK                         _______ _______ _______ _____ _____    ______ ____
ROOT
ATOM      1  O   UNL     1       3.354   4.220  19.891  0.00  0.00    +0.000 OA
ATOM      2  C   UNL     1       3.485   5.103  19.070  0.00  0.00    +0.000 C 
ATOM      3  C   UNL     1       4.270   5.050  17.817  0.00  0.00    +0.000 A 
ATOM      4  C   UNL     1       5.010   4.013  17.290  0.00  0.00    +0.000 A 
ATOM      5  C   UNL     1       5.657   4.256  16.077  0.00  0.00    +0.000 A 
ATOM      6  C   UNL     1       5.549   5.507  15.437  0.00  0.00    +0.000 A 
ATOM      7  C   UNL     1       4.787   6.544  15.992  0.00  0.00    +0.000 A 
ATOM      8  C   UNL     1       4.142   6.301  17.189  0.00  0.00    +0.000 A 
ATOM      9  C   UNL     1       3.296   7.130  18.004  0.00  0.00    +0.000 A 
ATOM     10  N   UNL     1       2.915   8.382  17.754  0.00  0.00    +0.000 NA
ATOM     11  N   UNL     1       2.100   8.986  18.685  0.00  0.00    +0.000 NA
ATOM     12  C   UNL     1       1.697   8.336  19.824  0.00  0.00    +0.000 A 
ATOM     13  C   UNL     1       2.078   7.023  20.076  0.00  0.00    +0.000 A 
ATOM     14  C   UNL     1       2.889   6.446  19.134  0.00  0.00    +0.000 A 
ENDROOT
BRANCH  12  15
ATOM     15  C   UNL     1       0.877   9.124  20.761  0.00  0.00    +0.000 A 
ATOM     16  C   UNL     1       0.824   8.801  22.128  0.00  0.00    +0.000 A 
ATOM     17  C   UNL     1       0.016   9.523  23.012  0.00  0.00    +0.000 A 
ATOM     18  C   UNL     1      -0.749  10.589  22.546  0.00  0.00    +0.000 A 
ATOM     19  C   UNL     1      -0.705  10.935  21.200  0.00  0.00    +0.000 A 
ATOM     20  C   UNL     1       0.097  10.209  20.318  0.00  0.00    +0.000 A 
ENDBRANCH  12  15
TORSDOF 1
ENDMDL
MODEL 7
REMARK VINA RESULT:      -7.7      3.678      4.983
REMARK  Name = 
REMARK  1 active torsions:
REMARK  status: ('A' for Active; 'I' for Inactive)
REMARK    1  A    between atoms: C_12  and  C_13
REMARK                            x       y       z     vdW  Elec       q    Type
REMARK                         _______ _______ _______ _____ _____    ______ ____
ROOT
ATOM      1  O   UNL     1       1.841  10.153  17.376  0.00  0.00    +0.000 OA
ATOM      2  C   UNL     1       1.826   9.339  18.274  0.00  0.00    +0.000 C 
ATOM      3  C   UNL     1       1.021   9.390  19.515  0.00  0.00    +0.000 A 
ATOM      4  C   UNL     1       0.114  10.340  19.932  0.00  0.00    +0.000 A 
ATOM      5  C   UNL     1      -0.499  10.124  21.167  0.00  0.00    +0.000 A 
ATOM      6  C   UNL     1      -0.191   8.984  21.938  0.00  0.00    +0.000 A 
ATOM      7  C   UNL     1       0.732   8.031  21.490  0.00  0.00    +0.000 A 
ATOM      8  C   UNL     1       1.334   8.242  20.264  0.00  0.00    +0.000 A 
ATOM      9  C   UNL     1       2.299   7.473  19.529  0.00  0.00    +0.000 A 
ATOM     10  N   UNL     1       2.842   6.309  19.886  0.00  0.00    +0.000 NA
ATOM     11  N   UNL     1       3.756   5.752  19.020  0.00  0.00    +0.000 NA
ATOM     12  C   UNL     1       4.101   6.363  17.841  0.00  0.00    +0.000 A 
ATOM     13  C   UNL     1       3.522   7.567  17.458  0.00  0.00    +0.000 A 
ATOM     14  C   UNL     1       2.616   8.100  18.338  0.00  0.00    +0.000 A 
ENDROOT
BRANCH  12  15
ATOM     15  C   UNL     1       5.136   5.685  17.041  0.00  0.00    +0.000 A 
ATOM     16  C   UNL     1       6.229   5.050  17.656  0.00  0.00    +0.000 A 
ATOM     17  C   UNL     1       7.233   4.440  16.897  0.00  0.00    +0.000 A 
ATOM     18  C   UNL     1       7.157   4.444  15.507  0.00  0.00    +0.000 A 
ATOM     19  C   UNL     1       6.079   5.056  14.876  0.00  0.00    +0.000 A 
ATOM     20  C   UNL     1       5.082   5.671  15.634  0.00  0.00    +0.000 A 
ENDBRANCH  12  15
TORSDOF 1
ENDMDL
MODEL 8
REMARK VINA RESULT:      -7.7      3.703      5.063
REMARK  Name = 
REMARK  1 active torsions:
REMARK  status: ('A' for Active; 'I' for Inactive)
REMARK    1  A    between atoms: C_12  and  C_13
REMARK                            x       y       z     vdW  Elec       q    Type
REMARK                         _______ _______ _______ _____ _____    ______ ____
ROOT
ATOM      1  O   UNL     1       1.884  10.205  17.385  0.00  0.00    +0.000 OA
ATOM      2  C   UNL     1       1.847   9.381  18.274  0.00  0.00    +0.000 C 
ATOM      3  C   UNL     1       1.022   9.424  19.501  0.00  0.00    +0.000 A 
ATOM      4  C   UNL     1       0.114  10.377  19.913  0.00  0.00    +0.000 A 
ATOM      5  C   UNL     1      -0.521  10.153  21.135  0.00  0.00    +0.000 A 
ATOM      6  C   UNL     1      -0.235   9.002  21.899  0.00  0.00    +0.000 A 
ATOM      7  C   UNL     1       0.689   8.047  21.456  0.00  0.00    +0.000 A 
ATOM      8  C   UNL     1       1.314   8.267  20.243  0.00  0.00    +0.000 A 
ATOM      9  C   UNL     1       2.286   7.498  19.517  0.00  0.00    +0.000 A 
ATOM     10  N   UNL     1       2.814   6.327  19.870  0.00  0.00    +0.000 NA
ATOM     11  N   UNL     1       3.739   5.772  19.014  0.00  0.00    +0.000 NA
ATOM     12  C   UNL     1       4.109   6.393  17.848  0.00  0.00    +0.000 A 
ATOM     13  C   UNL     1       3.545   7.606  17.468  0.00  0.00    +0.000 A 
ATOM     14  C   UNL     1       2.627   8.136  18.338  0.00  0.00    +0.000 A 
ENDROOT
BRANCH  12  15
ATOM     15  C   UNL     1       5.152   5.716  17.059  0.00  0.00    +0.000 A 
ATOM     16  C   UNL     1       5.063   5.630  15.659  0.00  0.00    +0.000 A 
ATOM     17  C   UNL     1       6.033   4.955  14.912  0.00  0.00    +0.000 A 
ATOM     18  C   UNL     1       7.117   4.358  15.551  0.00  0.00    +0.000 A 
ATOM     19  C   UNL     1       7.233   4.439  16.934  0.00  0.00    +0.000 A 
ATOM     20  C   UNL     1       6.261   5.108  17.679  0.00  0.00    +0.000 A 
ENDBRANCH  12  15
TORSDOF 1
ENDMDL
MODEL 9
REMARK VINA RESULT:      -7.7      3.902      8.158
REMARK  Name = 
REMARK  1 active torsions:
REMARK  status: ('A' for Active; 'I' for Inactive)
REMARK    1  A    between atoms: C_12  and  C_13
REMARK                            x       y       z     vdW  Elec       q    Type
REMARK                         _______ _______ _______ _____ _____    ______ ____
ROOT
ATOM      1  O   UNL     1       2.113   4.344  21.292  0.00  0.00    +0.000 OA
ATOM      2  C   UNL     1       2.399   5.055  20.352  0.00  0.00    +0.000 C 
ATOM      3  C   UNL     1       3.195   4.685  19.161  0.00  0.00    +0.000 A 
ATOM      4  C   UNL     1       3.778   3.479  18.836  0.00  0.00    +0.000 A 
ATOM      5  C   UNL     1       4.483   3.425  17.633  0.00  0.00    +0.000 A 
ATOM      6  C   UNL     1       4.585   4.560  16.803  0.00  0.00    +0.000 A 
ATOM      7  C   UNL     1       3.981   5.774  17.155  0.00  0.00    +0.000 A 
ATOM      8  C   UNL     1       3.279   5.826  18.343  0.00  0.00    +0.000 A 
ATOM      9  C   UNL     1       2.553   6.890  18.978  0.00  0.00    +0.000 A 
ATOM     10  N   UNL     1       2.376   8.130  18.520  0.00  0.00    +0.000 NA
ATOM     11  N   UNL     1       1.644   8.990  19.307  0.00  0.00    +0.000 NA
ATOM     12  C   UNL     1       1.118   8.598  20.512  0.00  0.00    +0.000 A 
ATOM     13  C   UNL     1       1.284   7.300  20.982  0.00  0.00    +0.000 A 
ATOM     14  C   UNL     1       2.018   6.464  20.180  0.00  0.00    +0.000 A 
ENDROOT
BRANCH  12  15
ATOM     15  C   UNL     1       0.408   9.639  21.276  0.00  0.00    +0.000 A 
ATOM     16  C   UNL     1      -0.199   9.347  22.510  0.00  0.00    +0.000 A 
ATOM     17  C   UNL     1      -0.906  10.323  23.218  0.00  0.00    +0.000 A 
ATOM     18  C   UNL     1      -1.012  11.615  22.709  0.00  0.00    +0.000 A 
ATOM     19  C   UNL     1      -0.410  11.932  21.496  0.00  0.00    +0.000 A 
ATOM     20  C   UNL     1       0.289  10.954  20.788  0.00  0.00    +0.000 A 
ENDBRANCH  12  15
TORSDOF 1
ENDMDL
