MODEL 1
REMARK VINA RESULT:      -7.6      0.000      0.000
REMARK  Name = 
REMARK  3 active torsions:
REMARK  status: ('A' for Active; 'I' for Inactive)
REMARK    1  A    between atoms: C_1  and  N_2
REMARK    2  A    between atoms: C_6  and  N_7
REMARK    3  A    between atoms: C_9  and  C_10
REMARK                            x       y       z     vdW  Elec       q    Type
REMARK                         _______ _______ _______ _____ _____    ______ ____
ROOT
ATOM      1  N   UNL     1       4.496   5.286  16.931  0.00  0.00    +0.000 N 
ATOM      2  N   UNL     1       4.221   6.583  17.208  0.00  0.00    +0.000 NA
ATOM      3  C   UNL     1       3.082   6.587  17.920  0.00  0.00    +0.000 A 
ATOM      4  C   UNL     1       2.676   5.258  18.190  0.00  0.00    +0.000 A 
ATOM      5  C   UNL     1       3.582   4.453  17.537  0.00  0.00    +0.000 A 
ATOM      6  C   UNL     1       3.571   2.964  17.550  0.00  0.00    +0.000 C 
ATOM      7  C   UNL     1       2.246   2.439  18.134  0.00  0.00    +0.000 C 
ATOM      8  C   UNL     1       1.775   3.257  19.346  0.00  0.00    +0.000 C 
ATOM      9  C   UNL     1       1.526   4.729  18.970  0.00  0.00    +0.000 C 
ENDROOT
BRANCH   1  15
ATOM     10  C   UNL     1       7.422   4.766  17.826  0.00  0.00    +0.000 C 
ATOM     11  N   UNL     1       6.874   4.839  16.490  0.00  0.00    +0.000 N 
ATOM     12  N   UNL     1       7.718   4.655  15.447  0.00  0.00    +0.000 NA
ATOM     13  C   UNL     1       6.920   4.663  14.379  0.00  0.00    +0.000 A 
ATOM     14  C   UNL     1       5.576   4.866  14.723  0.00  0.00    +0.000 A 
ATOM     15  C   UNL     1       5.567   5.010  16.095  0.00  0.00    +0.000 A 
ENDBRANCH   1  15
BRANCH   3  16
ATOM     16  C   UNL     1       2.362   7.843  18.328  0.00  0.00    +0.000 C 
ATOM     17  F   UNL     1       2.028   7.877  19.647  0.00  0.00    +0.000 F 
ATOM     18  F   UNL     1       3.120   8.947  18.091  0.00  0.00    +0.000 F 
ATOM     19  F   UNL     1       1.205   8.019  17.628  0.00  0.00    +0.000 F 
ENDBRANCH   3  16
TORSDOF 2
ENDMDL
MODEL 2
REMARK VINA RESULT:      -7.4      0.946      1.003
REMARK  Name = 
REMARK  3 active torsions:
REMARK  status: ('A' for Active; 'I' for Inactive)
REMARK    1  A    between atoms: C_1  and  N_2
REMARK    2  A    between atoms: C_6  and  N_7
REMARK    3  A    between atoms: C_9  and  C_10
REMARK                            x       y       z     vdW  Elec       q    Type
REMARK                         _______ _______ _______ _____ _____    ______ ____
ROOT
ATOM      1  N   UNL     1       4.565   5.546  17.565  0.00  0.00    +0.000 N 
ATOM      2  N   UNL     1       4.134   6.822  17.432  0.00  0.00    +0.000 NA
ATOM      3  C   UNL     1       3.088   6.959  18.264  0.00  0.00    +0.000 A 
ATOM      4  C   UNL     1       2.913   5.775  19.019  0.00  0.00    +0.000 A 
ATOM      5  C   UNL     1       3.853   4.889  18.544  0.00  0.00    +0.000 A 
ATOM      6  C   UNL     1       4.064   3.505  19.054  0.00  0.00    +0.000 C 
ATOM      7  C   UNL     1       2.900   3.087  19.973  0.00  0.00    +0.000 C 
ATOM      8  C   UNL     1       2.445   4.226  20.898  0.00  0.00    +0.000 C 
ATOM      9  C   UNL     1       1.943   5.439  20.095  0.00  0.00    +0.000 C 
ENDROOT
BRANCH   1  15
ATOM     10  C   UNL     1       7.560   5.207  18.309  0.00  0.00    +0.000 C 
ATOM     11  N   UNL     1       6.907   5.012  17.033  0.00  0.00    +0.000 N 
ATOM     12  N   UNL     1       7.669   4.621  15.984  0.00  0.00    +0.000 NA
ATOM     13  C   UNL     1       6.788   4.417  15.003  0.00  0.00    +0.000 A 
ATOM     14  C   UNL     1       5.473   4.689  15.406  0.00  0.00    +0.000 A 
ATOM     15  C   UNL     1       5.571   5.105  16.718  0.00  0.00    +0.000 A 
ENDBRANCH   1  15
BRANCH   3  16
ATOM     16  C   UNL     1       2.239   8.198  18.332  0.00  0.00    +0.000 C 
ATOM     17  F   UNL     1       1.798   8.489  19.587  0.00  0.00    +0.000 F 
ATOM     18  F   UNL     1       2.921   9.292  17.898  0.00  0.00    +0.000 F 
ATOM     19  F   UNL     1       1.131   8.103  17.543  0.00  0.00    +0.000 F 
ENDBRANCH   3  16
TORSDOF 2
ENDMDL
MODEL 3
REMARK VINA RESULT:      -7.3      2.660      3.660
REMARK  Name = 
REMARK  3 active torsions:
REMARK  status: ('A' for Active; 'I' for Inactive)
REMARK    1  A    between atoms: C_1  and  N_2
REMARK    2  A    between atoms: C_6  and  N_7
REMARK    3  A    between atoms: C_9  and  C_10
REMARK                            x       y       z     vdW  Elec       q    Type
REMARK                         _______ _______ _______ _____ _____    ______ ____
ROOT
ATOM      1  N   UNL     1       4.585   4.361  16.801  0.00  0.00    +0.000 N 
ATOM      2  N   UNL     1       4.196   3.114  17.159  0.00  0.00    +0.000 NA
ATOM      3  C   UNL     1       3.285   3.265  18.134  0.00  0.00    +0.000 A 
ATOM      4  C   UNL     1       3.011   4.640  18.332  0.00  0.00    +0.000 A 
ATOM      5  C   UNL     1       3.862   5.313  17.485  0.00  0.00    +0.000 A 
ATOM      6  C   UNL     1       3.922   6.793  17.328  0.00  0.00    +0.000 C 
ATOM      7  C   UNL     1       3.127   7.487  18.450  0.00  0.00    +0.000 C 
ATOM      8  C   UNL     1       1.809   6.765  18.768  0.00  0.00    +0.000 C 
ATOM      9  C   UNL     1       2.058   5.323  19.246  0.00  0.00    +0.000 C 
ENDROOT
BRANCH   1  15
ATOM     10  C   UNL     1       7.598   4.666  17.483  0.00  0.00    +0.000 C 
ATOM     11  N   UNL     1       6.947   4.680  16.192  0.00  0.00    +0.000 N 
ATOM     12  N   UNL     1       7.721   4.840  15.093  0.00  0.00    +0.000 NA
ATOM     13  C   UNL     1       6.872   4.696  14.074  0.00  0.00    +0.000 A 
ATOM     14  C   UNL     1       5.559   4.462  14.508  0.00  0.00    +0.000 A 
ATOM     15  C   UNL     1       5.619   4.485  15.886  0.00  0.00    +0.000 A 
ENDBRANCH   1  15
BRANCH   3  16
ATOM     16  C   UNL     1       2.688   2.115  18.897  0.00  0.00    +0.000 C 
ATOM     17  F   UNL     1       2.746   2.268  20.249  0.00  0.00    +0.000 F 
ATOM     18  F   UNL     1       1.376   1.939  18.583  0.00  0.00    +0.000 F 
ATOM     19  F   UNL     1       3.309   0.935  18.612  0.00  0.00    +0.000 F 
ENDBRANCH   3  16
TORSDOF 2
ENDMDL
MODEL 4
REMARK VINA RESULT:      -7.3      1.195      1.508
REMARK  Name = 
REMARK  3 active torsions:
REMARK  status: ('A' for Active; 'I' for Inactive)
REMARK    1  A    between atoms: C_1  and  N_2
REMARK    2  A    between atoms: C_6  and  N_7
REMARK    3  A    between atoms: C_9  and  C_10
REMARK                            x       y       z     vdW  Elec       q    Type
REMARK                         _______ _______ _______ _____ _____    ______ ____
ROOT
ATOM      1  N   UNL     1       4.467   5.969  17.458  0.00  0.00    +0.000 N 
ATOM      2  N   UNL     1       3.977   7.225  17.329  0.00  0.00    +0.000 NA
ATOM      3  C   UNL     1       2.943   7.320  18.182  0.00  0.00    +0.000 A 
ATOM      4  C   UNL     1       2.836   6.133  18.945  0.00  0.00    +0.000 A 
ATOM      5  C   UNL     1       3.804   5.287  18.454  0.00  0.00    +0.000 A 
ATOM      6  C   UNL     1       4.085   3.916  18.965  0.00  0.00    +0.000 C 
ATOM      7  C   UNL     1       2.960   3.451  19.909  0.00  0.00    +0.000 C 
ATOM      8  C   UNL     1       2.474   4.573  20.839  0.00  0.00    +0.000 C 
ATOM      9  C   UNL     1       1.903   5.759  20.042  0.00  0.00    +0.000 C 
ENDROOT
BRANCH   1  15
ATOM     10  C   UNL     1       7.452   6.804  17.620  0.00  0.00    +0.000 C 
ATOM     11  N   UNL     1       6.784   5.988  16.632  0.00  0.00    +0.000 N 
ATOM     12  N   UNL     1       7.525   5.489  15.615  0.00  0.00    +0.000 NA
ATOM     13  C   UNL     1       6.677   4.702  14.950  0.00  0.00    +0.000 A 
ATOM     14  C   UNL     1       5.396   4.705  15.520  0.00  0.00    +0.000 A 
ATOM     15  C   UNL     1       5.473   5.568  16.592  0.00  0.00    +0.000 A 
ENDBRANCH   1  15
BRANCH   3  16
ATOM     16  C   UNL     1       2.042   8.520  18.263  0.00  0.00    +0.000 C 
ATOM     17  F   UNL     1       0.905   8.401  17.522  0.00  0.00    +0.000 F 
ATOM     18  F   UNL     1       1.647   8.758  19.542  0.00  0.00    +0.000 F 
ATOM     19  F   UNL     1       2.665   9.657  17.839  0.00  0.00    +0.000 F 
ENDBRANCH   3  16
TORSDOF 2
ENDMDL
MODEL 5
REMARK VINA RESULT:      -7.0      2.957      5.343
REMARK  Name = 
REMARK  3 active torsions:
REMARK  status: ('A' for Active; 'I' for Inactive)
REMARK    1  A    between atoms: C_1  and  N_2
REMARK    2  A    between atoms: C_6  and  N_7
REMARK    3  A    between atoms: C_9  and  C_10
REMARK                            x       y       z     vdW  Elec       q    Type
REMARK                         _______ _______ _______ _____ _____    ______ ____
ROOT
ATOM      1  N   UNL     1       4.539   4.431  17.507  0.00  0.00    +0.000 N 
ATOM      2  N   UNL     1       5.277   4.938  18.522  0.00  0.00    +0.000 NA
ATOM      3  C   UNL     1       6.507   5.154  18.027  0.00  0.00    +0.000 A 
ATOM      4  C   UNL     1       6.526   4.875  16.640  0.00  0.00    +0.000 A 
ATOM      5  C   UNL     1       5.268   4.402  16.340  0.00  0.00    +0.000 A 
ATOM      6  C   UNL     1       4.806   3.995  14.983  0.00  0.00    +0.000 C 
ATOM      7  C   UNL     1       6.001   3.883  14.018  0.00  0.00    +0.000 C 
ATOM      8  C   UNL     1       7.021   5.015  14.214  0.00  0.00    +0.000 C 
ATOM      9  C   UNL     1       7.614   4.999  15.634  0.00  0.00    +0.000 C 
ENDROOT
BRANCH   1  15
ATOM     10  C   UNL     1       3.688   1.524  18.186  0.00  0.00    +0.000 C 
ATOM     11  N   UNL     1       2.867   2.704  18.030  0.00  0.00    +0.000 N 
ATOM     12  N   UNL     1       1.530   2.573  18.200  0.00  0.00    +0.000 NA
ATOM     13  C   UNL     1       1.068   3.821  18.110  0.00  0.00    +0.000 A 
ATOM     14  C   UNL     1       2.092   4.749  17.869  0.00  0.00    +0.000 A 
ATOM     15  C   UNL     1       3.250   4.004  17.788  0.00  0.00    +0.000 A 
ENDBRANCH   1  15
BRANCH   3  16
ATOM     16  C   UNL     1       7.673   5.602  18.866  0.00  0.00    +0.000 C 
ATOM     17  F   UNL     1       8.174   6.814  18.500  0.00  0.00    +0.000 F 
ATOM     18  F   UNL     1       7.329   5.705  20.178  0.00  0.00    +0.000 F 
ATOM     19  F   UNL     1       8.710   4.719  18.812  0.00  0.00    +0.000 F 
ENDBRANCH   3  16
TORSDOF 2
ENDMDL
MODEL 6
REMARK VINA RESULT:      -7.0      2.557      3.606
REMARK  Name = 
REMARK  3 active torsions:
REMARK  status: ('A' for Active; 'I' for Inactive)
REMARK    1  A    between atoms: C_1  and  N_2
REMARK    2  A    between atoms: C_6  and  N_7
REMARK    3  A    between atoms: C_9  and  C_10
REMARK                            x       y       z     vdW  Elec       q    Type
REMARK                         _______ _______ _______ _____ _____    ______ ____
ROOT
ATOM      1  N   UNL     1       4.738   4.781  17.331  0.00  0.00    +0.000 N 
ATOM      2  N   UNL     1       4.573   3.636  18.035  0.00  0.00    +0.000 NA
ATOM      3  C   UNL     1       3.710   3.918  19.024  0.00  0.00    +0.000 A 
ATOM      4  C   UNL     1       3.235   5.245  18.888  0.00  0.00    +0.000 A 
ATOM      5  C   UNL     1       3.916   5.774  17.815  0.00  0.00    +0.000 A 
ATOM      6  C   UNL     1       3.732   7.151  17.277  0.00  0.00    +0.000 C 
ATOM      7  C   UNL     1       2.907   8.006  18.257  0.00  0.00    +0.000 C 
ATOM      8  C   UNL     1       1.741   7.224  18.879  0.00  0.00    +0.000 C 
ATOM      9  C   UNL     1       2.242   6.012  19.686  0.00  0.00    +0.000 C 
ENDROOT
BRANCH   1  15
ATOM     10  C   UNL     1       7.417   6.350  17.352  0.00  0.00    +0.000 C 
ATOM     11  N   UNL     1       6.842   5.537  16.304  0.00  0.00    +0.000 N 
ATOM     12  N   UNL     1       7.536   5.406  15.149  0.00  0.00    +0.000 NA
ATOM     13  C   UNL     1       6.826   4.527  14.440  0.00  0.00    +0.000 A 
ATOM     14  C   UNL     1       5.675   4.105  15.121  0.00  0.00    +0.000 A 
ATOM     15  C   UNL     1       5.683   4.793  16.316  0.00  0.00    +0.000 A 
ENDBRANCH   1  15
BRANCH   3  16
ATOM     16  C   UNL     1       3.349   2.946  20.113  0.00  0.00    +0.000 C 
ATOM     17  F   UNL     1       2.871   3.541  21.240  0.00  0.00    +0.000 F 
ATOM     18  F   UNL     1       2.391   2.073  19.700  0.00  0.00    +0.000 F 
ATOM     19  F   UNL     1       4.415   2.187  20.496  0.00  0.00    +0.000 F 
ENDBRANCH   3  16
TORSDOF 2
ENDMDL
MODEL 7
REMARK VINA RESULT:      -6.9      3.178      5.404
REMARK  Name = 
REMARK  3 active torsions:
REMARK  status: ('A' for Active; 'I' for Inactive)
REMARK    1  A    between atoms: C_1  and  N_2
REMARK    2  A    between atoms: C_6  and  N_7
REMARK    3  A    between atoms: C_9  and  C_10
REMARK                            x       y       z     vdW  Elec       q    Type
REMARK                         _______ _______ _______ _____ _____    ______ ____
ROOT
ATOM      1  N   UNL     1       4.513   4.521  18.442  0.00  0.00    +0.000 N 
ATOM      2  N   UNL     1       5.409   5.003  19.335  0.00  0.00    +0.000 NA
ATOM      3  C   UNL     1       6.547   5.215  18.656  0.00  0.00    +0.000 A 
ATOM      4  C   UNL     1       6.344   4.959  17.278  0.00  0.00    +0.000 A 
ATOM      5  C   UNL     1       5.048   4.505  17.174  0.00  0.00    +0.000 A 
ATOM      6  C   UNL     1       4.373   4.126  15.901  0.00  0.00    +0.000 C 
ATOM      7  C   UNL     1       5.399   4.019  14.757  0.00  0.00    +0.000 C 
ATOM      8  C   UNL     1       6.451   5.136  14.807  0.00  0.00    +0.000 C 
ATOM      9  C   UNL     1       7.261   5.090  16.115  0.00  0.00    +0.000 C 
ENDROOT
BRANCH   1  15
ATOM     10  C   UNL     1       3.508   1.587  18.570  0.00  0.00    +0.000 C 
ATOM     11  N   UNL     1       2.813   2.806  18.916  0.00  0.00    +0.000 N 
ATOM     12  N   UNL     1       1.542   2.705  19.372  0.00  0.00    +0.000 NA
ATOM     13  C   UNL     1       1.218   3.955  19.709  0.00  0.00    +0.000 A 
ATOM     14  C   UNL     1       2.262   4.858  19.460  0.00  0.00    +0.000 A 
ATOM     15  C   UNL     1       3.278   4.102  18.916  0.00  0.00    +0.000 A 
ENDBRANCH   1  15
BRANCH   3  16
ATOM     16  C   UNL     1       7.836   5.636  19.306  0.00  0.00    +0.000 C 
ATOM     17  F   UNL     1       7.771   5.689  20.665  0.00  0.00    +0.000 F 
ATOM     18  F   UNL     1       8.849   4.781  19.000  0.00  0.00    +0.000 F 
ATOM     19  F   UNL     1       8.241   6.869  18.887  0.00  0.00    +0.000 F 
ENDBRANCH   3  16
TORSDOF 2
ENDMDL
MODEL 8
REMARK VINA RESULT:      -6.9      2.423      3.491
REMARK  Name = 
REMARK  3 active torsions:
REMARK  status: ('A' for Active; 'I' for Inactive)
REMARK    1  A    between atoms: C_1  and  N_2
REMARK    2  A    between atoms: C_6  and  N_7
REMARK    3  A    between atoms: C_9  and  C_10
REMARK                            x       y       z     vdW  Elec       q    Type
REMARK                         _______ _______ _______ _____ _____    ______ ____
ROOT
ATOM      1  N   UNL     1       4.485   4.946  17.820  0.00  0.00    +0.000 N 
ATOM      2  N   UNL     1       4.094   3.968  18.671  0.00  0.00    +0.000 NA
ATOM      3  C   UNL     1       3.184   4.518  19.491  0.00  0.00    +0.000 A 
ATOM      4  C   UNL     1       2.912   5.848  19.089  0.00  0.00    +0.000 A 
ATOM      5  C   UNL     1       3.763   6.099  18.037  0.00  0.00    +0.000 A 
ATOM      6  C   UNL     1       3.826   7.374  17.269  0.00  0.00    +0.000 C 
ATOM      7  C   UNL     1       3.032   8.479  17.993  0.00  0.00    +0.000 C 
ATOM      8  C   UNL     1       1.713   7.960  18.585  0.00  0.00    +0.000 C 
ATOM      9  C   UNL     1       1.959   6.855  19.628  0.00  0.00    +0.000 C 
ENDROOT
BRANCH   1  15
ATOM     10  C   UNL     1       7.517   5.243  18.415  0.00  0.00    +0.000 C 
ATOM     11  N   UNL     1       6.860   4.860  17.186  0.00  0.00    +0.000 N 
ATOM     12  N   UNL     1       7.637   4.573  16.114  0.00  0.00    +0.000 NA
ATOM     13  C   UNL     1       6.773   4.151  15.190  0.00  0.00    +0.000 A 
ATOM     14  C   UNL     1       5.448   4.178  15.652  0.00  0.00    +0.000 A 
ATOM     15  C   UNL     1       5.519   4.670  16.938  0.00  0.00    +0.000 A 
ENDBRANCH   1  15
BRANCH   3  16
ATOM     16  C   UNL     1       2.585   3.799  20.668  0.00  0.00    +0.000 C 
ATOM     17  F   UNL     1       2.498   4.566  21.790  0.00  0.00    +0.000 F 
ATOM     18  F   UNL     1       1.324   3.368  20.395  0.00  0.00    +0.000 F 
ATOM     19  F   UNL     1       3.301   2.690  21.008  0.00  0.00    +0.000 F 
ENDBRANCH   3  16
TORSDOF 2
ENDMDL
MODEL 9
REMARK VINA RESULT:      -6.9      2.626      3.631
REMARK  Name = 
REMARK  3 active torsions:
REMARK  status: ('A' for Active; 'I' for Inactive)
REMARK    1  A    between atoms: C_1  and  N_2
REMARK    2  A    between atoms: C_6  and  N_7
REMARK    3  A    between atoms: C_9  and  C_10
REMARK                            x       y       z     vdW  Elec       q    Type
REMARK                         _______ _______ _______ _____ _____    ______ ____
ROOT
ATOM      1  N   UNL     1       4.622   4.591  17.960  0.00  0.00    +0.000 N 
ATOM      2  N   UNL     1       4.316   3.539  18.755  0.00  0.00    +0.000 NA
ATOM      3  C   UNL     1       3.384   3.973  19.619  0.00  0.00    +0.000 A 
ATOM      4  C   UNL     1       3.013   5.302  19.302  0.00  0.00    +0.000 A 
ATOM      5  C   UNL     1       3.827   5.675  18.256  0.00  0.00    +0.000 A 
ATOM      6  C   UNL     1       3.787   6.995  17.566  0.00  0.00    +0.000 C 
ATOM      7  C   UNL     1       2.931   7.995  18.366  0.00  0.00    +0.000 C 
ATOM      8  C   UNL     1       1.662   7.351  18.943  0.00  0.00    +0.000 C 
ATOM      9  C   UNL     1       2.002   6.206  19.914  0.00  0.00    +0.000 C 
ENDROOT
BRANCH   1  15
ATOM     10  C   UNL     1       7.609   5.266  18.468  0.00  0.00    +0.000 C 
ATOM     11  N   UNL     1       6.972   4.798  17.259  0.00  0.00    +0.000 N 
ATOM     12  N   UNL     1       7.747   4.605  16.166  0.00  0.00    +0.000 NA
ATOM     13  C   UNL     1       6.917   4.074  15.267  0.00  0.00    +0.000 A 
ATOM     14  C   UNL     1       5.613   3.938  15.767  0.00  0.00    +0.000 A 
ATOM     15  C   UNL     1       5.658   4.441  17.050  0.00  0.00    +0.000 A 
ENDBRANCH   1  15
BRANCH   3  16
ATOM     16  C   UNL     1       2.857   3.145  20.758  0.00  0.00    +0.000 C 
ATOM     17  F   UNL     1       1.740   2.433  20.444  0.00  0.00    +0.000 F 
ATOM     18  F   UNL     1       3.783   2.245  21.186  0.00  0.00    +0.000 F 
ATOM     19  F   UNL     1       2.540   3.909  21.842  0.00  0.00    +0.000 F 
ENDBRANCH   3  16
TORSDOF 2
ENDMDL
