MODEL 1
REMARK VINA RESULT:      -7.9      0.000      0.000
REMARK  Name = 
REMARK  9 active torsions:
REMARK  status: ('A' for Active; 'I' for Inactive)
REMARK    1  A    between atoms: C_1  and  C_2
REMARK    2  A    between atoms: C_2  and  C_3
REMARK    3  A    between atoms: C_3  and  N_4
REMARK    4  A    between atoms: C_3  and  C_12
REMARK    5  A    between atoms: N_4  and  C_5
REMARK    6  A    between atoms: C_5  and  C_6
REMARK    7  A    between atoms: C_5  and  C_7
REMARK    8  A    between atoms: C_17  and  C_18
REMARK    9  A    between atoms: C_18  and  C_20
REMARK                            x       y       z     vdW  Elec       q    Type
REMARK                         _______ _______ _______ _____ _____    ______ ____
ROOT
ATOM      1  C   UNL     1       5.130   5.855  16.503  0.00  0.00    +0.000 A 
ATOM      2  C   UNL     1       5.131   7.161  17.019  0.00  0.00    +0.000 A 
ATOM      3  C   UNL     1       4.099   7.612  17.848  0.00  0.00    +0.000 A 
ATOM      4  C   UNL     1       3.077   6.748  18.259  0.00  0.00    +0.000 A 
ATOM      5 CL   UNL     1       1.901   7.405  19.338  0.00  0.00    +0.000 Cl
ATOM      6  C   UNL     1       3.072   5.423  17.814  0.00  0.00    +0.000 A 
ATOM      7  C   UNL     1       4.071   5.020  16.912  0.00  0.00    +0.000 A 
ATOM      8  F   UNL     1       3.983   3.783  16.409  0.00  0.00    +0.000 F 
ENDROOT
BRANCH   6   9
ATOM      9  C   UNL     1       2.015   4.445  18.197  0.00  0.00    +0.000 C 
ATOM     10  O   UNL     1       1.097   4.209  17.414  0.00  0.00    +0.000 OA
BRANCH   9  11
ATOM     11  C   UNL     1       2.057   3.670  19.466  0.00  0.00    +0.000 A 
ATOM     12  C   UNL     1       0.965   3.500  20.323  0.00  0.00    +0.000 A 
ATOM     13  C   UNL     1       1.148   2.847  21.544  0.00  0.00    +0.000 A 
ATOM     14  C   UNL     1       2.405   2.354  21.851  0.00  0.00    +0.000 A 
ATOM     15  N   UNL     1       3.467   2.455  21.025  0.00  0.00    +0.000 NA
ATOM     16  C   UNL     1       3.270   3.107  19.849  0.00  0.00    +0.000 A 
ENDBRANCH   9  11
ENDBRANCH   6   9
BRANCH   1  17
ATOM     17  C   UNL     1       6.291   5.354  15.621  0.00  0.00    +0.000 C 
BRANCH  17  19
ATOM     18  C   UNL     1       7.576   4.623  17.796  0.00  0.00    +0.000 C 
ATOM     19  C   UNL     1       7.277   4.377  16.325  0.00  0.00    +0.000 C 
ENDBRANCH  17  19
BRANCH  17  20
ATOM     20  N   UNL     1       5.896   4.968  14.244  0.00  0.00    +0.000 NA
ATOM     21  H   UNL     1       5.560   5.797  13.755  0.00  0.00    +0.000 HD
BRANCH  20  22
ATOM     22  C   UNL     1       6.884   4.292  13.388  0.00  0.00    +0.000 C 
ATOM     23  C   UNL     1       7.774   5.232  12.574  0.00  0.00    +0.000 C 
BRANCH  22  24
ATOM     24  C   UNL     1       6.161   3.351  12.460  0.00  0.00    +0.000 A 
ATOM     25  C   UNL     1       4.869   3.354  11.959  0.00  0.00    +0.000 A 
ATOM     26  N   UNL     1       4.656   2.305  11.107  0.00  0.00    +0.000 NA
ATOM     27  C   UNL     1       5.795   1.660  11.069  0.00  0.00    +0.000 A 
ATOM     28  N   UNL     1       6.732   2.249  11.869  0.00  0.00    +0.000 N 
ATOM     29  H   UNL     1       7.681   1.932  12.014  0.00  0.00    +0.000 HD
ENDBRANCH  22  24
ENDBRANCH  20  22
ENDBRANCH  17  20
ENDBRANCH   1  17
TORSDOF 7
ENDMDL
MODEL 2
REMARK VINA RESULT:      -7.9      5.501      8.392
REMARK  Name = 
REMARK  9 active torsions:
REMARK  status: ('A' for Active; 'I' for Inactive)
REMARK    1  A    between atoms: C_1  and  C_2
REMARK    2  A    between atoms: C_2  and  C_3
REMARK    3  A    between atoms: C_3  and  N_4
REMARK    4  A    between atoms: C_3  and  C_12
REMARK    5  A    between atoms: N_4  and  C_5
REMARK    6  A    between atoms: C_5  and  C_6
REMARK    7  A    between atoms: C_5  and  C_7
REMARK    8  A    between atoms: C_17  and  C_18
REMARK    9  A    between atoms: C_18  and  C_20
REMARK                            x       y       z     vdW  Elec       q    Type
REMARK                         _______ _______ _______ _____ _____    ______ ____
ROOT
ATOM      1  C   UNL     1       1.391   9.107  19.194  0.00  0.00    +0.000 A 
ATOM      2  C   UNL     1       0.962   8.753  20.483  0.00  0.00    +0.000 A 
ATOM      3  C   UNL     1       1.233   7.487  21.013  0.00  0.00    +0.000 A 
ATOM      4  C   UNL     1       2.013   6.564  20.307  0.00  0.00    +0.000 A 
ATOM      5 CL   UNL     1       2.334   5.063  21.098  0.00  0.00    +0.000 Cl
ATOM      6  C   UNL     1       2.508   6.900  19.045  0.00  0.00    +0.000 A 
ATOM      7  C   UNL     1       2.149   8.144  18.499  0.00  0.00    +0.000 A 
ATOM      8  F   UNL     1       2.536   8.400  17.243  0.00  0.00    +0.000 F 
ENDROOT
BRANCH   6   9
ATOM      9  C   UNL     1       3.336   5.971  18.226  0.00  0.00    +0.000 C 
ATOM     10  O   UNL     1       2.783   5.173  17.471  0.00  0.00    +0.000 OA
BRANCH   9  11
ATOM     11  C   UNL     1       4.824   6.012  18.218  0.00  0.00    +0.000 A 
ATOM     12  C   UNL     1       5.588   6.729  17.293  0.00  0.00    +0.000 A 
ATOM     13  C   UNL     1       6.979   6.606  17.311  0.00  0.00    +0.000 A 
ATOM     14  C   UNL     1       7.560   5.800  18.276  0.00  0.00    +0.000 A 
ATOM     15  N   UNL     1       6.856   5.136  19.216  0.00  0.00    +0.000 NA
ATOM     16  C   UNL     1       5.503   5.260  19.170  0.00  0.00    +0.000 A 
ENDBRANCH   9  11
ENDBRANCH   6   9
BRANCH   1  17
ATOM     17  C   UNL     1       1.122  10.518  18.633  0.00  0.00    +0.000 C 
BRANCH  17  19
ATOM     18  C   UNL     1       2.435  12.757  18.217  0.00  0.00    +0.000 C 
ATOM     19  C   UNL     1       2.371  11.246  18.059  0.00  0.00    +0.000 C 
ENDBRANCH  17  19
BRANCH  17  20
ATOM     20  N   UNL     1      -0.107  10.629  17.809  0.00  0.00    +0.000 NA
ATOM     21  H   UNL     1      -0.555   9.714  17.764  0.00  0.00    +0.000 HD
BRANCH  20  22
ATOM     22  C   UNL     1      -1.121  11.627  18.182  0.00  0.00    +0.000 C 
ATOM     23  C   UNL     1      -1.514  11.618  19.660  0.00  0.00    +0.000 C 
BRANCH  22  24
ATOM     24  C   UNL     1      -2.348  11.415  17.332  0.00  0.00    +0.000 A 
ATOM     25  C   UNL     1      -2.556  10.696  16.167  0.00  0.00    +0.000 A 
ATOM     26  N   UNL     1      -3.860  10.758  15.761  0.00  0.00    +0.000 NA
ATOM     27  C   UNL     1      -4.462  11.498  16.659  0.00  0.00    +0.000 A 
ATOM     28  N   UNL     1      -3.593  11.920  17.624  0.00  0.00    +0.000 N 
ATOM     29  H   UNL     1      -3.816  12.509  18.415  0.00  0.00    +0.000 HD
ENDBRANCH  22  24
ENDBRANCH  20  22
ENDBRANCH  17  20
ENDBRANCH   1  17
TORSDOF 7
ENDMDL
MODEL 3
REMARK VINA RESULT:      -7.8      4.784      7.480
REMARK  Name = 
REMARK  9 active torsions:
REMARK  status: ('A' for Active; 'I' for Inactive)
REMARK    1  A    between atoms: C_1  and  C_2
REMARK    2  A    between atoms: C_2  and  C_3
REMARK    3  A    between atoms: C_3  and  N_4
REMARK    4  A    between atoms: C_3  and  C_12
REMARK    5  A    between atoms: N_4  and  C_5
REMARK    6  A    between atoms: C_5  and  C_6
REMARK    7  A    between atoms: C_5  and  C_7
REMARK    8  A    between atoms: C_17  and  C_18
REMARK    9  A    between atoms: C_18  and  C_20
REMARK                            x       y       z     vdW  Elec       q    Type
REMARK                         _______ _______ _______ _____ _____    ______ ____
ROOT
ATOM      1  C   UNL     1       2.179   7.630  18.856  0.00  0.00    +0.000 A 
ATOM      2  C   UNL     1       2.109   7.297  20.219  0.00  0.00    +0.000 A 
ATOM      3  C   UNL     1       1.462   8.132  21.135  0.00  0.00    +0.000 A 
ATOM      4  C   UNL     1       0.791   9.284  20.709  0.00  0.00    +0.000 A 
ATOM      5 CL   UNL     1      -0.027  10.194  21.927  0.00  0.00    +0.000 Cl
ATOM      6  C   UNL     1       0.788   9.620  19.353  0.00  0.00    +0.000 A 
ATOM      7  C   UNL     1       1.519   8.812  18.466  0.00  0.00    +0.000 A 
ATOM      8  F   UNL     1       1.599   9.213  17.191  0.00  0.00    +0.000 F 
ENDROOT
BRANCH   6   9
ATOM      9  C   UNL     1       0.107  10.834  18.821  0.00  0.00    +0.000 C 
ATOM     10  O   UNL     1       0.739  11.883  18.711  0.00  0.00    +0.000 OA
BRANCH   9  11
ATOM     11  C   UNL     1      -1.300  10.820  18.336  0.00  0.00    +0.000 A 
ATOM     12  C   UNL     1      -1.756  10.053  17.260  0.00  0.00    +0.000 A 
ATOM     13  C   UNL     1      -3.073  10.204  16.821  0.00  0.00    +0.000 A 
ATOM     14  C   UNL     1      -3.899  11.089  17.495  0.00  0.00    +0.000 A 
ATOM     15  N   UNL     1      -3.507  11.805  18.568  0.00  0.00    +0.000 NA
ATOM     16  C   UNL     1      -2.217  11.653  18.969  0.00  0.00    +0.000 A 
ENDBRANCH   9  11
ENDBRANCH   6   9
BRANCH   1  17
ATOM     17  C   UNL     1       2.860   6.684  17.847  0.00  0.00    +0.000 C 
BRANCH  17  19
ATOM     18  C   UNL     1       5.010   6.660  16.334  0.00  0.00    +0.000 C 
ATOM     19  C   UNL     1       4.399   6.867  17.711  0.00  0.00    +0.000 C 
ENDBRANCH  17  19
BRANCH  17  20
ATOM     20  N   UNL     1       2.396   5.276  17.912  0.00  0.00    +0.000 NA
ATOM     21  H   UNL     1       2.133   4.975  16.974  0.00  0.00    +0.000 HD
BRANCH  20  22
ATOM     22  C   UNL     1       3.290   4.263  18.493  0.00  0.00    +0.000 C 
ATOM     23  C   UNL     1       3.706   3.150  17.531  0.00  0.00    +0.000 C 
BRANCH  22  24
ATOM     24  C   UNL     1       2.622   3.661  19.703  0.00  0.00    +0.000 A 
ATOM     25  C   UNL     1       1.307   3.669  20.135  0.00  0.00    +0.000 A 
ATOM     26  N   UNL     1       1.150   2.951  21.289  0.00  0.00    +0.000 NA
ATOM     27  C   UNL     1       2.345   2.496  21.572  0.00  0.00    +0.000 A 
ATOM     28  N   UNL     1       3.266   2.898  20.648  0.00  0.00    +0.000 N 
ATOM     29  H   UNL     1       4.255   2.684  20.654  0.00  0.00    +0.000 HD
ENDBRANCH  22  24
ENDBRANCH  20  22
ENDBRANCH  17  20
ENDBRANCH   1  17
TORSDOF 7
ENDMDL
MODEL 4
REMARK VINA RESULT:      -7.8      4.419      7.317
REMARK  Name = 
REMARK  9 active torsions:
REMARK  status: ('A' for Active; 'I' for Inactive)
REMARK    1  A    between atoms: C_1  and  C_2
REMARK    2  A    between atoms: C_2  and  C_3
REMARK    3  A    between atoms: C_3  and  N_4
REMARK    4  A    between atoms: C_3  and  C_12
REMARK    5  A    between atoms: N_4  and  C_5
REMARK    6  A    between atoms: C_5  and  C_6
REMARK    7  A    between atoms: C_5  and  C_7
REMARK    8  A    between atoms: C_17  and  C_18
REMARK    9  A    between atoms: C_18  and  C_20
REMARK                            x       y       z     vdW  Elec       q    Type
REMARK                         _______ _______ _______ _____ _____    ______ ____
ROOT
ATOM      1  C   UNL     1       2.353   6.985  18.912  0.00  0.00    +0.000 A 
ATOM      2  C   UNL     1       2.123   6.659  20.258  0.00  0.00    +0.000 A 
ATOM      3  C   UNL     1       1.539   7.578  21.136  0.00  0.00    +0.000 A 
ATOM      4  C   UNL     1       1.088   8.822  20.679  0.00  0.00    +0.000 A 
ATOM      5 CL   UNL     1       0.322   9.839  21.845  0.00  0.00    +0.000 Cl
ATOM      6  C   UNL     1       1.246   9.162  19.333  0.00  0.00    +0.000 A 
ATOM      7  C   UNL     1       1.915   8.257  18.492  0.00  0.00    +0.000 A 
ATOM      8  F   UNL     1       2.159   8.649  17.236  0.00  0.00    +0.000 F 
ENDROOT
BRANCH   6   9
ATOM      9  C   UNL     1       0.804  10.469  18.771  0.00  0.00    +0.000 C 
ATOM     10  O   UNL     1       1.645  11.317  18.477  0.00  0.00    +0.000 OA
BRANCH   9  11
ATOM     11  C   UNL     1      -0.621  10.776  18.473  0.00  0.00    +0.000 A 
ATOM     12  C   UNL     1      -1.369  11.761  19.125  0.00  0.00    +0.000 A 
ATOM     13  C   UNL     1      -2.731  11.887  18.841  0.00  0.00    +0.000 A 
ATOM     14  C   UNL     1      -3.290  11.050  17.889  0.00  0.00    +0.000 A 
ATOM     15  N   UNL     1      -2.585  10.126  17.203  0.00  0.00    +0.000 NA
ATOM     16  C   UNL     1      -1.266  10.011  17.507  0.00  0.00    +0.000 A 
ENDBRANCH   9  11
ENDBRANCH   6   9
BRANCH   1  17
ATOM     17  C   UNL     1       2.962   5.952  17.943  0.00  0.00    +0.000 C 
BRANCH  17  19
ATOM     18  C   UNL     1       5.293   6.731  17.010  0.00  0.00    +0.000 C 
ATOM     19  C   UNL     1       4.514   5.854  17.978  0.00  0.00    +0.000 C 
ENDBRANCH  17  19
BRANCH  17  20
ATOM     20  N   UNL     1       2.249   4.652  17.901  0.00  0.00    +0.000 NA
ATOM     21  H   UNL     1       1.883   4.509  16.960  0.00  0.00    +0.000 HD
BRANCH  20  22
ATOM     22  C   UNL     1       2.970   3.436  18.310  0.00  0.00    +0.000 C 
ATOM     23  C   UNL     1       2.731   2.220  17.414  0.00  0.00    +0.000 C 
BRANCH  22  24
ATOM     24  C   UNL     1       2.592   3.100  19.729  0.00  0.00    +0.000 A 
ATOM     25  C   UNL     1       3.354   2.761  20.835  0.00  0.00    +0.000 A 
ATOM     26  N   UNL     1       2.576   2.573  21.945  0.00  0.00    +0.000 NA
ATOM     27  C   UNL     1       1.350   2.795  21.544  0.00  0.00    +0.000 A 
ATOM     28  N   UNL     1       1.306   3.114  20.217  0.00  0.00    +0.000 N 
ATOM     29  H   UNL     1       0.477   3.318  19.676  0.00  0.00    +0.000 HD
ENDBRANCH  22  24
ENDBRANCH  20  22
ENDBRANCH  17  20
ENDBRANCH   1  17
TORSDOF 7
ENDMDL
MODEL 5
REMARK VINA RESULT:      -7.7      4.473      8.484
REMARK  Name = 
REMARK  9 active torsions:
REMARK  status: ('A' for Active; 'I' for Inactive)
REMARK    1  A    between atoms: C_1  and  C_2
REMARK    2  A    between atoms: C_2  and  C_3
REMARK    3  A    between atoms: C_3  and  N_4
REMARK    4  A    between atoms: C_3  and  C_12
REMARK    5  A    between atoms: N_4  and  C_5
REMARK    6  A    between atoms: C_5  and  C_6
REMARK    7  A    between atoms: C_5  and  C_7
REMARK    8  A    between atoms: C_17  and  C_18
REMARK    9  A    between atoms: C_18  and  C_20
REMARK                            x       y       z     vdW  Elec       q    Type
REMARK                         _______ _______ _______ _____ _____    ______ ____
ROOT
ATOM      1  C   UNL     1       2.508   6.570  19.639  0.00  0.00    +0.000 A 
ATOM      2  C   UNL     1       1.865   5.527  20.325  0.00  0.00    +0.000 A 
ATOM      3  C   UNL     1       2.418   4.243  20.372  0.00  0.00    +0.000 A 
ATOM      4  C   UNL     1       3.671   3.979  19.808  0.00  0.00    +0.000 A 
ATOM      5 CL   UNL     1       4.276   2.372  19.992  0.00  0.00    +0.000 Cl
ATOM      6  C   UNL     1       4.370   5.005  19.166  0.00  0.00    +0.000 A 
ATOM      7  C   UNL     1       3.754   6.262  19.057  0.00  0.00    +0.000 A 
ATOM      8  F   UNL     1       4.387   7.199  18.340  0.00  0.00    +0.000 F 
ENDROOT
BRANCH   6   9
ATOM      9  C   UNL     1       5.703   4.803  18.531  0.00  0.00    +0.000 C 
ATOM     10  O   UNL     1       6.683   4.578  19.240  0.00  0.00    +0.000 OA
BRANCH   9  11
ATOM     11  C   UNL     1       5.898   4.782  17.057  0.00  0.00    +0.000 A 
ATOM     12  C   UNL     1       5.008   4.198  16.151  0.00  0.00    +0.000 A 
ATOM     13  C   UNL     1       5.347   4.139  14.798  0.00  0.00    +0.000 A 
ATOM     14  C   UNL     1       6.547   4.699  14.390  0.00  0.00    +0.000 A 
ATOM     15  N   UNL     1       7.404   5.318  15.229  0.00  0.00    +0.000 NA
ATOM     16  C   UNL     1       7.059   5.350  16.543  0.00  0.00    +0.000 A 
ENDBRANCH   9  11
ENDBRANCH   6   9
BRANCH   1  17
ATOM     17  C   UNL     1       1.911   7.991  19.626  0.00  0.00    +0.000 C 
BRANCH  17  19
ATOM     18  C   UNL     1       2.105   9.883  17.810  0.00  0.00    +0.000 C 
ATOM     19  C   UNL     1       1.535   8.532  18.216  0.00  0.00    +0.000 C 
ENDBRANCH  17  19
BRANCH  17  20
ATOM     20  N   UNL     1       0.907   8.247  20.688  0.00  0.00    +0.000 NA
ATOM     21  H   UNL     1       0.839   7.421  21.281  0.00  0.00    +0.000 HD
BRANCH  20  22
ATOM     22  C   UNL     1       1.075   9.427  21.550  0.00  0.00    +0.000 C 
ATOM     23  C   UNL     1       0.464   9.292  22.946  0.00  0.00    +0.000 C 
BRANCH  22  24
ATOM     24  C   UNL     1       0.484  10.627  20.855  0.00  0.00    +0.000 A 
ATOM     25  C   UNL     1       0.931  11.930  20.716  0.00  0.00    +0.000 A 
ATOM     26  N   UNL     1       0.073  12.680  19.960  0.00  0.00    +0.000 NA
ATOM     27  C   UNL     1      -0.892  11.860  19.626  0.00  0.00    +0.000 A 
ATOM     28  N   UNL     1      -0.691  10.613  20.142  0.00  0.00    +0.000 N 
ATOM     29  H   UNL     1      -1.300   9.813  20.033  0.00  0.00    +0.000 HD
ENDBRANCH  22  24
ENDBRANCH  20  22
ENDBRANCH  17  20
ENDBRANCH   1  17
TORSDOF 7
ENDMDL
MODEL 6
REMARK VINA RESULT:      -7.6      2.415      3.668
REMARK  Name = 
REMARK  9 active torsions:
REMARK  status: ('A' for Active; 'I' for Inactive)
REMARK    1  A    between atoms: C_1  and  C_2
REMARK    2  A    between atoms: C_2  and  C_3
REMARK    3  A    between atoms: C_3  and  N_4
REMARK    4  A    between atoms: C_3  and  C_12
REMARK    5  A    between atoms: N_4  and  C_5
REMARK    6  A    between atoms: C_5  and  C_6
REMARK    7  A    between atoms: C_5  and  C_7
REMARK    8  A    between atoms: C_17  and  C_18
REMARK    9  A    between atoms: C_18  and  C_20
REMARK                            x       y       z     vdW  Elec       q    Type
REMARK                         _______ _______ _______ _____ _____    ______ ____
ROOT
ATOM      1  C   UNL     1       4.690   4.734  16.931  0.00  0.00    +0.000 A 
ATOM      2  C   UNL     1       3.982   3.559  16.632  0.00  0.00    +0.000 A 
ATOM      3  C   UNL     1       2.828   3.208  17.340  0.00  0.00    +0.000 A 
ATOM      4  C   UNL     1       2.296   4.061  18.314  0.00  0.00    +0.000 A 
ATOM      5 CL   UNL     1       0.831   3.549  19.070  0.00  0.00    +0.000 Cl
ATOM      6  C   UNL     1       2.939   5.268  18.601  0.00  0.00    +0.000 A 
ATOM      7  C   UNL     1       4.143   5.555  17.937  0.00  0.00    +0.000 A 
ATOM      8  F   UNL     1       4.804   6.659  18.308  0.00  0.00    +0.000 F 
ENDROOT
BRANCH   6   9
ATOM      9  C   UNL     1       2.443   6.225  19.630  0.00  0.00    +0.000 C 
ATOM     10  O   UNL     1       2.488   5.913  20.819  0.00  0.00    +0.000 OA
BRANCH   9  11
ATOM     11  C   UNL     1       1.959   7.591  19.293  0.00  0.00    +0.000 A 
ATOM     12  C   UNL     1       2.049   8.168  18.023  0.00  0.00    +0.000 A 
ATOM     13  C   UNL     1       1.664   9.499  17.846  0.00  0.00    +0.000 A 
ATOM     14  C   UNL     1       1.168  10.196  18.936  0.00  0.00    +0.000 A 
ATOM     15  N   UNL     1       1.018   9.653  20.162  0.00  0.00    +0.000 NA
ATOM     16  C   UNL     1       1.413   8.362  20.313  0.00  0.00    +0.000 A 
ENDBRANCH   9  11
ENDBRANCH   6   9
BRANCH   1  17
ATOM     17  C   UNL     1       5.938   5.131  16.119  0.00  0.00    +0.000 C 
BRANCH  17  19
ATOM     18  C   UNL     1       7.714   4.863  18.039  0.00  0.00    +0.000 C 
ATOM     19  C   UNL     1       7.274   4.516  16.625  0.00  0.00    +0.000 C 
ENDBRANCH  17  19
BRANCH  17  20
ATOM     20  N   UNL     1       5.750   5.105  14.647  0.00  0.00    +0.000 NA
ATOM     21  H   UNL     1       5.667   6.064  14.310  0.00  0.00    +0.000 HD
BRANCH  20  22
ATOM     22  C   UNL     1       6.744   4.405  13.819  0.00  0.00    +0.000 C 
ATOM     23  C   UNL     1       7.749   5.319  13.117  0.00  0.00    +0.000 C 
BRANCH  22  24
ATOM     24  C   UNL     1       6.022   3.568  12.795  0.00  0.00    +0.000 A 
ATOM     25  C   UNL     1       4.753   3.661  12.249  0.00  0.00    +0.000 A 
ATOM     26  N   UNL     1       4.533   2.690  11.312  0.00  0.00    +0.000 NA
ATOM     27  C   UNL     1       5.647   2.002  11.266  0.00  0.00    +0.000 A 
ATOM     28  N   UNL     1       6.573   2.490  12.142  0.00  0.00    +0.000 N 
ATOM     29  H   UNL     1       7.503   2.124  12.297  0.00  0.00    +0.000 HD
ENDBRANCH  22  24
ENDBRANCH  20  22
ENDBRANCH  17  20
ENDBRANCH   1  17
TORSDOF 7
ENDMDL
MODEL 7
REMARK VINA RESULT:      -7.6      4.470      6.677
REMARK  Name = 
REMARK  9 active torsions:
REMARK  status: ('A' for Active; 'I' for Inactive)
REMARK    1  A    between atoms: C_1  and  C_2
REMARK    2  A    between atoms: C_2  and  C_3
REMARK    3  A    between atoms: C_3  and  N_4
REMARK    4  A    between atoms: C_3  and  C_12
REMARK    5  A    between atoms: N_4  and  C_5
REMARK    6  A    between atoms: C_5  and  C_6
REMARK    7  A    between atoms: C_5  and  C_7
REMARK    8  A    between atoms: C_17  and  C_18
REMARK    9  A    between atoms: C_18  and  C_20
REMARK                            x       y       z     vdW  Elec       q    Type
REMARK                         _______ _______ _______ _____ _____    ______ ____
ROOT
ATOM      1  C   UNL     1       2.375   6.513  19.515  0.00  0.00    +0.000 A 
ATOM      2  C   UNL     1       2.999   6.886  18.314  0.00  0.00    +0.000 A 
ATOM      3  C   UNL     1       2.854   8.176  17.793  0.00  0.00    +0.000 A 
ATOM      4  C   UNL     1       2.150   9.160  18.497  0.00  0.00    +0.000 A 
ATOM      5 CL   UNL     1       2.101  10.731  17.782  0.00  0.00    +0.000 Cl
ATOM      6  C   UNL     1       1.563   8.845  19.724  0.00  0.00    +0.000 A 
ATOM      7  C   UNL     1       1.650   7.519  20.183  0.00  0.00    +0.000 A 
ATOM      8  F   UNL     1       0.984   7.210  21.302  0.00  0.00    +0.000 F 
ENDROOT
BRANCH   6   9
ATOM      9  C   UNL     1       0.790   9.832  20.530  0.00  0.00    +0.000 C 
ATOM     10  O   UNL     1       1.210  10.173  21.634  0.00  0.00    +0.000 OA
BRANCH   9  11
ATOM     11  C   UNL     1      -0.443  10.494  20.024  0.00  0.00    +0.000 A 
ATOM     12  C   UNL     1      -1.159  10.074  18.899  0.00  0.00    +0.000 A 
ATOM     13  C   UNL     1      -2.239  10.837  18.451  0.00  0.00    +0.000 A 
ATOM     14  C   UNL     1      -2.589  11.973  19.162  0.00  0.00    +0.000 A 
ATOM     15  N   UNL     1      -1.954  12.377  20.282  0.00  0.00    +0.000 NA
ATOM     16  C   UNL     1      -0.897  11.627  20.691  0.00  0.00    +0.000 A 
ENDBRANCH   9  11
ENDBRANCH   6   9
BRANCH   1  17
ATOM     17  C   UNL     1       2.572   5.101  20.101  0.00  0.00    +0.000 C 
BRANCH  17  19
ATOM     18  C   UNL     1       1.239   3.052  21.069  0.00  0.00    +0.000 C 
ATOM     19  C   UNL     1       1.310   4.192  20.065  0.00  0.00    +0.000 C 
ENDBRANCH  17  19
BRANCH  17  20
ATOM     20  N   UNL     1       3.838   4.438  19.699  0.00  0.00    +0.000 NA
ATOM     21  H   UNL     1       4.113   3.786  20.432  0.00  0.00    +0.000 HD
BRANCH  20  22
ATOM     22  C   UNL     1       3.889   3.736  18.407  0.00  0.00    +0.000 C 
ATOM     23  C   UNL     1       3.693   2.222  18.494  0.00  0.00    +0.000 C 
BRANCH  22  24
ATOM     24  C   UNL     1       5.207   4.037  17.742  0.00  0.00    +0.000 A 
ATOM     25  C   UNL     1       5.554   4.222  16.414  0.00  0.00    +0.000 A 
ATOM     26  N   UNL     1       6.882   4.515  16.274  0.00  0.00    +0.000 NA
ATOM     27  C   UNL     1       7.360   4.520  17.494  0.00  0.00    +0.000 A 
ATOM     28  N   UNL     1       6.391   4.236  18.413  0.00  0.00    +0.000 N 
ATOM     29  H   UNL     1       6.514   4.172  19.414  0.00  0.00    +0.000 HD
ENDBRANCH  22  24
ENDBRANCH  20  22
ENDBRANCH  17  20
ENDBRANCH   1  17
TORSDOF 7
ENDMDL
MODEL 8
REMARK VINA RESULT:      -7.5      4.540      7.917
REMARK  Name = 
REMARK  9 active torsions:
REMARK  status: ('A' for Active; 'I' for Inactive)
REMARK    1  A    between atoms: C_1  and  C_2
REMARK    2  A    between atoms: C_2  and  C_3
REMARK    3  A    between atoms: C_3  and  N_4
REMARK    4  A    between atoms: C_3  and  C_12
REMARK    5  A    between atoms: N_4  and  C_5
REMARK    6  A    between atoms: C_5  and  C_6
REMARK    7  A    between atoms: C_5  and  C_7
REMARK    8  A    between atoms: C_17  and  C_18
REMARK    9  A    between atoms: C_18  and  C_20
REMARK                            x       y       z     vdW  Elec       q    Type
REMARK                         _______ _______ _______ _____ _____    ______ ____
ROOT
ATOM      1  C   UNL     1       2.268   7.657  19.052  0.00  0.00    +0.000 A 
ATOM      2  C   UNL     1       2.017   7.368  20.403  0.00  0.00    +0.000 A 
ATOM      3  C   UNL     1       1.263   8.234  21.201  0.00  0.00    +0.000 A 
ATOM      4  C   UNL     1       0.665   9.376  20.655  0.00  0.00    +0.000 A 
ATOM      5 CL   UNL     1      -0.298  10.328  21.727  0.00  0.00    +0.000 Cl
ATOM      6  C   UNL     1       0.842   9.669  19.301  0.00  0.00    +0.000 A 
ATOM      7  C   UNL     1       1.676   8.830  18.542  0.00  0.00    +0.000 A 
ATOM      8  F   UNL     1       1.926   9.190  17.278  0.00  0.00    +0.000 F 
ENDROOT
BRANCH   6   9
ATOM      9  C   UNL     1       0.248  10.869  18.647  0.00  0.00    +0.000 C 
ATOM     10  O   UNL     1      -0.878  10.795  18.157  0.00  0.00    +0.000 OA
BRANCH   9  11
ATOM     11  C   UNL     1       0.927  12.192  18.624  0.00  0.00    +0.000 A 
ATOM     12  C   UNL     1       2.296  12.373  18.410  0.00  0.00    +0.000 A 
ATOM     13  C   UNL     1       2.844  13.653  18.521  0.00  0.00    +0.000 A 
ATOM     14  C   UNL     1       1.999  14.713  18.805  0.00  0.00    +0.000 A 
ATOM     15  N   UNL     1       0.666  14.582  18.965  0.00  0.00    +0.000 NA
ATOM     16  C   UNL     1       0.158  13.325  18.867  0.00  0.00    +0.000 A 
ENDBRANCH   9  11
ENDBRANCH   6   9
BRANCH   1  17
ATOM     17  C   UNL     1       3.068   6.677  18.171  0.00  0.00    +0.000 C 
BRANCH  17  19
ATOM     18  C   UNL     1       4.963   6.422  16.366  0.00  0.00    +0.000 C 
ATOM     19  C   UNL     1       4.135   7.340  17.254  0.00  0.00    +0.000 C 
ENDBRANCH  17  19
BRANCH  17  20
ATOM     20  N   UNL     1       3.512   5.444  18.867  0.00  0.00    +0.000 NA
ATOM     21  H   UNL     1       3.492   5.611  19.873  0.00  0.00    +0.000 HD
BRANCH  20  22
ATOM     22  C   UNL     1       2.807   4.183  18.590  0.00  0.00    +0.000 C 
ATOM     23  C   UNL     1       1.529   4.332  17.765  0.00  0.00    +0.000 C 
BRANCH  22  24
ATOM     24  C   UNL     1       2.488   3.506  19.898  0.00  0.00    +0.000 A 
ATOM     25  C   UNL     1       3.295   2.933  20.867  0.00  0.00    +0.000 A 
ATOM     26  N   UNL     1       2.562   2.463  21.922  0.00  0.00    +0.000 NA
ATOM     27  C   UNL     1       1.318   2.742  21.623  0.00  0.00    +0.000 A 
ATOM     28  N   UNL     1       1.221   3.368  20.414  0.00  0.00    +0.000 N 
ATOM     29  H   UNL     1       0.368   3.673  19.963  0.00  0.00    +0.000 HD
ENDBRANCH  22  24
ENDBRANCH  20  22
ENDBRANCH  17  20
ENDBRANCH   1  17
TORSDOF 7
ENDMDL
MODEL 9
REMARK VINA RESULT:      -7.5      4.201      7.123
REMARK  Name = 
REMARK  9 active torsions:
REMARK  status: ('A' for Active; 'I' for Inactive)
REMARK    1  A    between atoms: C_1  and  C_2
REMARK    2  A    between atoms: C_2  and  C_3
REMARK    3  A    between atoms: C_3  and  N_4
REMARK    4  A    between atoms: C_3  and  C_12
REMARK    5  A    between atoms: N_4  and  C_5
REMARK    6  A    between atoms: C_5  and  C_6
REMARK    7  A    between atoms: C_5  and  C_7
REMARK    8  A    between atoms: C_17  and  C_18
REMARK    9  A    between atoms: C_18  and  C_20
REMARK                            x       y       z     vdW  Elec       q    Type
REMARK                         _______ _______ _______ _____ _____    ______ ____
ROOT
ATOM      1  C   UNL     1       2.853   6.744  18.662  0.00  0.00    +0.000 A 
ATOM      2  C   UNL     1       2.510   6.354  19.966  0.00  0.00    +0.000 A 
ATOM      3  C   UNL     1       1.814   7.216  20.820  0.00  0.00    +0.000 A 
ATOM      4  C   UNL     1       1.364   8.463  20.371  0.00  0.00    +0.000 A 
ATOM      5 CL   UNL     1       0.457   9.406  21.497  0.00  0.00    +0.000 Cl
ATOM      6  C   UNL     1       1.636   8.865  19.061  0.00  0.00    +0.000 A 
ATOM      7  C   UNL     1       2.412   8.017  18.252  0.00  0.00    +0.000 A 
ATOM      8  F   UNL     1       2.758   8.469  17.040  0.00  0.00    +0.000 F 
ENDROOT
BRANCH   6   9
ATOM      9  C   UNL     1       1.202  10.180  18.510  0.00  0.00    +0.000 C 
ATOM     10  O   UNL     1       2.050  11.000  18.164  0.00  0.00    +0.000 OA
BRANCH   9  11
ATOM     11  C   UNL     1      -0.227  10.526  18.284  0.00  0.00    +0.000 A 
ATOM     12  C   UNL     1      -1.108   9.771  17.505  0.00  0.00    +0.000 A 
ATOM     13  C   UNL     1      -2.399  10.250  17.270  0.00  0.00    +0.000 A 
ATOM     14  C   UNL     1      -2.777  11.449  17.852  0.00  0.00    +0.000 A 
ATOM     15  N   UNL     1      -1.970  12.176  18.652  0.00  0.00    +0.000 NA
ATOM     16  C   UNL     1      -0.714  11.697  18.854  0.00  0.00    +0.000 A 
ENDBRANCH   9  11
ENDBRANCH   6   9
BRANCH   1  17
ATOM     17  C   UNL     1       3.586   5.772  17.715  0.00  0.00    +0.000 C 
BRANCH  17  19
ATOM     18  C   UNL     1       5.871   6.979  17.230  0.00  0.00    +0.000 C 
ATOM     19  C   UNL     1       4.549   6.448  16.698  0.00  0.00    +0.000 C 
ENDBRANCH  17  19
BRANCH  17  20
ATOM     20  N   UNL     1       4.119   4.554  18.375  0.00  0.00    +0.000 NA
ATOM     21  H   UNL     1       4.311   4.769  19.353  0.00  0.00    +0.000 HD
BRANCH  20  22
ATOM     22  C   UNL     1       3.329   3.315  18.317  0.00  0.00    +0.000 C 
ATOM     23  C   UNL     1       2.158   3.349  17.333  0.00  0.00    +0.000 C 
BRANCH  22  24
ATOM     24  C   UNL     1       2.818   2.998  19.698  0.00  0.00    +0.000 A 
ATOM     25  C   UNL     1       3.473   2.713  20.886  0.00  0.00    +0.000 A 
ATOM     26  N   UNL     1       2.592   2.521  21.914  0.00  0.00    +0.000 NA
ATOM     27  C   UNL     1       1.406   2.688  21.383  0.00  0.00    +0.000 A 
ATOM     28  N   UNL     1       1.489   2.974  20.051  0.00  0.00    +0.000 N 
ATOM     29  H   UNL     1       0.713   3.134  19.423  0.00  0.00    +0.000 HD
ENDBRANCH  22  24
ENDBRANCH  20  22
ENDBRANCH  17  20
ENDBRANCH   1  17
TORSDOF 7
ENDMDL
