MODEL 1
REMARK VINA RESULT:      -6.8      0.000      0.000
REMARK  Name = 
REMARK  12 active torsions:
REMARK  status: ('A' for Active; 'I' for Inactive)
REMARK    1  A    between atoms: C_1  and  O_2
REMARK    2  A    between atoms: O_2  and  C_3
REMARK    3  A    between atoms: C_5  and  C_6
REMARK    4  A    between atoms: C_13  and  O_14
REMARK    5  A    between atoms: O_14  and  C_15
REMARK    6  A    between atoms: C_16  and  O_17
REMARK    7  A    between atoms: O_17  and  C_18
REMARK    8  A    between atoms: C_19  and  O_20
REMARK    9  A    between atoms: O_20  and  C_21
REMARK   10  A    between atoms: C_24  and  O_25
REMARK   11  A    between atoms: O_25  and  C_26
REMARK   12  A    between atoms: C_27  and  O_28
REMARK                            x       y       z     vdW  Elec       q    Type
REMARK                         _______ _______ _______ _____ _____    ______ ____
ROOT
ATOM      1  C   UNL     1       2.136   7.158  19.823  0.00  0.00    +0.000 A 
ATOM      2  C   UNL     1       2.233   6.962  18.499  0.00  0.00    +0.000 A 
ATOM      3  C   UNL     1       2.348   8.090  17.603  0.00  0.00    +0.000 A 
ATOM      4  O   UNL     1       3.340   8.514  17.040  0.00  0.00    +0.000 OA
ATOM      5  O   UNL     1       1.116   8.598  17.634  0.00  0.00    +0.000 OA
ATOM      6  C   UNL     1       1.234   9.291  18.838  0.00  0.00    +0.000 A 
ATOM      7  C   UNL     1       1.011  10.627  18.562  0.00  0.00    +0.000 A 
ATOM      8  C   UNL     1       1.085  11.516  19.576  0.00  0.00    +0.000 A 
ATOM      9  C   UNL     1       0.997  11.021  20.892  0.00  0.00    +0.000 A 
ATOM     10  C   UNL     1       1.257   9.593  21.190  0.00  0.00    +0.000 A 
ATOM     11  C   UNL     1       1.594   8.674  20.108  0.00  0.00    +0.000 A 
ENDROOT
BRANCH   1  14
ATOM     12  C   UNL     1       4.654   4.299  19.230  0.00  0.00    +0.000 A 
ATOM     13  C   UNL     1       4.277   5.620  19.722  0.00  0.00    +0.000 A 
ATOM     14  C   UNL     1       2.945   5.872  20.269  0.00  0.00    +0.000 A 
ATOM     15  C   UNL     1       2.147   4.686  20.439  0.00  0.00    +0.000 A 
ATOM     16  C   UNL     1       2.492   3.394  19.900  0.00  0.00    +0.000 A 
ATOM     17  C   UNL     1       3.747   3.248  19.273  0.00  0.00    +0.000 A 
BRANCH  12  19
ATOM     18  C   UNL     1       6.328   4.706  17.505  0.00  0.00    +0.000 C 
ATOM     19  O   UNL     1       5.795   3.944  18.581  0.00  0.00    +0.000 OA
ENDBRANCH  12  19
BRANCH  16  20
ATOM     20  O   UNL     1       1.498   2.471  19.906  0.00  0.00    +0.000 OA
ATOM     21  C   UNL     1       0.613   2.395  18.780  0.00  0.00    +0.000 C 
ENDBRANCH  16  20
BRANCH  17  22
ATOM     22  O   UNL     1       4.007   2.106  18.553  0.00  0.00    +0.000 OA
ATOM     23  H   UNL     1       4.622   2.337  17.837  0.00  0.00    +0.000 HD
ENDBRANCH  17  22
ENDBRANCH   1  14
BRANCH   8  24
ATOM     24  O   UNL     1       1.194  12.859  19.313  0.00  0.00    +0.000 OA
ATOM     25  C   UNL     1       2.238  13.131  18.357  0.00  0.00    +0.000 C 
ENDBRANCH   8  24
BRANCH   9  26
ATOM     26  O   UNL     1       0.548  12.051  21.680  0.00  0.00    +0.000 OA
ATOM     27  C   UNL     1      -0.781  12.385  21.974  0.00  0.00    +0.000 C 
ENDBRANCH   9  26
BRANCH  10  28
ATOM     28  O   UNL     1       1.227   9.319  22.536  0.00  0.00    +0.000 OA
ATOM     29  C   UNL     1      -0.040   9.186  23.178  0.00  0.00    +0.000 C 
ENDBRANCH  10  28
TORSDOF 7
ENDMDL
MODEL 2
REMARK VINA RESULT:      -6.7      1.337      1.470
REMARK  Name = 
REMARK  12 active torsions:
REMARK  status: ('A' for Active; 'I' for Inactive)
REMARK    1  A    between atoms: C_1  and  O_2
REMARK    2  A    between atoms: O_2  and  C_3
REMARK    3  A    between atoms: C_5  and  C_6
REMARK    4  A    between atoms: C_13  and  O_14
REMARK    5  A    between atoms: O_14  and  C_15
REMARK    6  A    between atoms: C_16  and  O_17
REMARK    7  A    between atoms: O_17  and  C_18
REMARK    8  A    between atoms: C_19  and  O_20
REMARK    9  A    between atoms: O_20  and  C_21
REMARK   10  A    between atoms: C_24  and  O_25
REMARK   11  A    between atoms: O_25  and  C_26
REMARK   12  A    between atoms: C_27  and  O_28
REMARK                            x       y       z     vdW  Elec       q    Type
REMARK                         _______ _______ _______ _____ _____    ______ ____
ROOT
ATOM      1  C   UNL     1       1.604   8.090  19.776  0.00  0.00    +0.000 A 
ATOM      2  C   UNL     1       1.625   8.090  18.435  0.00  0.00    +0.000 A 
ATOM      3  C   UNL     1       1.637   9.340  17.708  0.00  0.00    +0.000 A 
ATOM      4  O   UNL     1       2.573   9.888  17.158  0.00  0.00    +0.000 OA
ATOM      5  O   UNL     1       0.390   9.777  17.883  0.00  0.00    +0.000 OA
ATOM      6  C   UNL     1       0.556  10.294  19.167  0.00  0.00    +0.000 A 
ATOM      7  C   UNL     1       0.262  11.644  19.102  0.00  0.00    +0.000 A 
ATOM      8  C   UNL     1       0.364  12.381  20.230  0.00  0.00    +0.000 A 
ATOM      9  C   UNL     1       0.380  11.698  21.463  0.00  0.00    +0.000 A 
ATOM     10  C   UNL     1       0.716  10.257  21.533  0.00  0.00    +0.000 A 
ATOM     11  C   UNL     1       1.020   9.520  20.311  0.00  0.00    +0.000 A 
ENDROOT
BRANCH   1  14
ATOM     12  C   UNL     1       3.524   4.995  18.509  0.00  0.00    +0.000 A 
ATOM     13  C   UNL     1       3.438   6.384  18.948  0.00  0.00    +0.000 A 
ATOM     14  C   UNL     1       2.492   6.795  19.983  0.00  0.00    +0.000 A 
ATOM     15  C   UNL     1       1.818   5.699  20.629  0.00  0.00    +0.000 A 
ATOM     16  C   UNL     1       1.855   4.336  20.160  0.00  0.00    +0.000 A 
ATOM     17  C   UNL     1       2.700   4.029  19.072  0.00  0.00    +0.000 A 
BRANCH  12  19
ATOM     18  C   UNL     1       5.672   4.515  17.462  0.00  0.00    +0.000 C 
ATOM     19  O   UNL     1       4.251   4.488  17.478  0.00  0.00    +0.000 OA
ENDBRANCH  12  19
BRANCH  16  20
ATOM     20  O   UNL     1       0.940   3.500  20.712  0.00  0.00    +0.000 OA
ATOM     21  C   UNL     1       1.359   2.589  21.737  0.00  0.00    +0.000 C 
ENDBRANCH  16  20
BRANCH  17  22
ATOM     22  O   UNL     1       2.584   2.803  18.460  0.00  0.00    +0.000 OA
ATOM     23  H   UNL     1       2.223   2.178  19.109  0.00  0.00    +0.000 HD
ENDBRANCH  17  22
ENDBRANCH   1  14
BRANCH   8  24
ATOM     24  O   UNL     1       0.402  13.751  20.160  0.00  0.00    +0.000 OA
ATOM     25  C   UNL     1      -0.543  14.261  19.199  0.00  0.00    +0.000 C 
ENDBRANCH   8  24
BRANCH   9  26
ATOM     26  O   UNL     1      -0.059  12.581  22.417  0.00  0.00    +0.000 OA
ATOM     27  C   UNL     1      -1.368  12.745  22.890  0.00  0.00    +0.000 C 
ENDBRANCH   9  26
BRANCH  10  28
ATOM     28  O   UNL     1       0.782   9.791  22.824  0.00  0.00    +0.000 OA
ATOM     29  C   UNL     1      -0.394   9.239  23.413  0.00  0.00    +0.000 C 
ENDBRANCH  10  28
TORSDOF 7
ENDMDL
MODEL 3
REMARK VINA RESULT:      -6.3      1.886      4.071
REMARK  Name = 
REMARK  12 active torsions:
REMARK  status: ('A' for Active; 'I' for Inactive)
REMARK    1  A    between atoms: C_1  and  O_2
REMARK    2  A    between atoms: O_2  and  C_3
REMARK    3  A    between atoms: C_5  and  C_6
REMARK    4  A    between atoms: C_13  and  O_14
REMARK    5  A    between atoms: O_14  and  C_15
REMARK    6  A    between atoms: C_16  and  O_17
REMARK    7  A    between atoms: O_17  and  C_18
REMARK    8  A    between atoms: C_19  and  O_20
REMARK    9  A    between atoms: O_20  and  C_21
REMARK   10  A    between atoms: C_24  and  O_25
REMARK   11  A    between atoms: O_25  and  C_26
REMARK   12  A    between atoms: C_27  and  O_28
REMARK                            x       y       z     vdW  Elec       q    Type
REMARK                         _______ _______ _______ _____ _____    ______ ____
ROOT
ATOM      1  C   UNL     1       2.662   7.277  18.749  0.00  0.00    +0.000 A 
ATOM      2  C   UNL     1       2.706   6.300  19.668  0.00  0.00    +0.000 A 
ATOM      3  C   UNL     1       1.712   6.242  20.716  0.00  0.00    +0.000 A 
ATOM      4  O   UNL     1       0.746   5.507  20.805  0.00  0.00    +0.000 OA
ATOM      5  O   UNL     1       2.070   7.260  21.498  0.00  0.00    +0.000 OA
ATOM      6  C   UNL     1       1.499   8.282  20.741  0.00  0.00    +0.000 A 
ATOM      7  C   UNL     1       0.573   8.916  21.548  0.00  0.00    +0.000 A 
ATOM      8  C   UNL     1      -0.134   9.946  21.033  0.00  0.00    +0.000 A 
ATOM      9  C   UNL     1       0.361  10.566  19.868  0.00  0.00    +0.000 A 
ATOM     10  C   UNL     1       1.338   9.876  18.992  0.00  0.00    +0.000 A 
ATOM     11  C   UNL     1       1.812   8.542  19.342  0.00  0.00    +0.000 A 
ENDROOT
BRANCH   1  14
ATOM     12  C   UNL     1       4.143   4.085  17.173  0.00  0.00    +0.000 A 
ATOM     13  C   UNL     1       3.037   4.966  17.533  0.00  0.00    +0.000 A 
ATOM     14  C   UNL     1       3.194   6.419  17.530  0.00  0.00    +0.000 A 
ATOM     15  C   UNL     1       4.442   6.872  16.972  0.00  0.00    +0.000 A 
ATOM     16  C   UNL     1       5.556   6.007  16.672  0.00  0.00    +0.000 A 
ATOM     17  C   UNL     1       5.376   4.616  16.816  0.00  0.00    +0.000 A 
BRANCH  12  19
ATOM     18  C   UNL     1       3.555   2.005  18.301  0.00  0.00    +0.000 C 
ATOM     19  O   UNL     1       4.191   2.729  17.255  0.00  0.00    +0.000 OA
ENDBRANCH  12  19
BRANCH  16  20
ATOM     20  O   UNL     1       6.736   6.633  16.432  0.00  0.00    +0.000 OA
ATOM     21  C   UNL     1       7.441   7.233  17.527  0.00  0.00    +0.000 C 
ENDBRANCH  16  20
BRANCH  17  22
ATOM     22  O   UNL     1       6.474   3.790  16.763  0.00  0.00    +0.000 OA
ATOM     23  H   UNL     1       6.992   3.929  17.573  0.00  0.00    +0.000 HD
ENDBRANCH  17  22
ENDBRANCH   1  14
BRANCH   8  24
ATOM     24  O   UNL     1      -1.268  10.391  21.664  0.00  0.00    +0.000 OA
ATOM     25  C   UNL     1      -1.046  10.602  23.072  0.00  0.00    +0.000 C 
ENDBRANCH   8  24
BRANCH   9  26
ATOM     26  O   UNL     1      -0.144  11.841  19.846  0.00  0.00    +0.000 OA
ATOM     27  C   UNL     1       0.383  12.979  20.472  0.00  0.00    +0.000 C 
ENDBRANCH   9  26
BRANCH  10  28
ATOM     28  O   UNL     1       1.624  10.591  17.854  0.00  0.00    +0.000 OA
ATOM     29  C   UNL     1       2.552  11.670  17.941  0.00  0.00    +0.000 C 
ENDBRANCH  10  28
TORSDOF 7
ENDMDL
MODEL 4
REMARK VINA RESULT:      -6.3      4.922      9.283
REMARK  Name = 
REMARK  12 active torsions:
REMARK  status: ('A' for Active; 'I' for Inactive)
REMARK    1  A    between atoms: C_1  and  O_2
REMARK    2  A    between atoms: O_2  and  C_3
REMARK    3  A    between atoms: C_5  and  C_6
REMARK    4  A    between atoms: C_13  and  O_14
REMARK    5  A    between atoms: O_14  and  C_15
REMARK    6  A    between atoms: C_16  and  O_17
REMARK    7  A    between atoms: O_17  and  C_18
REMARK    8  A    between atoms: C_19  and  O_20
REMARK    9  A    between atoms: O_20  and  C_21
REMARK   10  A    between atoms: C_24  and  O_25
REMARK   11  A    between atoms: O_25  and  C_26
REMARK   12  A    between atoms: C_27  and  O_28
REMARK                            x       y       z     vdW  Elec       q    Type
REMARK                         _______ _______ _______ _____ _____    ______ ____
ROOT
ATOM      1  C   UNL     1      -4.068  12.137  19.005  0.00  0.00    +0.000 A 
ATOM      2  C   UNL     1      -4.433  11.386  17.956  0.00  0.00    +0.000 A 
ATOM      3  C   UNL     1      -3.620  10.263  17.547  0.00  0.00    +0.000 A 
ATOM      4  O   UNL     1      -3.813   9.077  17.741  0.00  0.00    +0.000 OA
ATOM      5  O   UNL     1      -2.567  10.866  16.996  0.00  0.00    +0.000 OA
ATOM      6  C   UNL     1      -1.895  11.175  18.177  0.00  0.00    +0.000 A 
ATOM      7  C   UNL     1      -0.666  10.545  18.123  0.00  0.00    +0.000 A 
ATOM      8  C   UNL     1       0.176  10.682  19.171  0.00  0.00    +0.000 A 
ATOM      9  C   UNL     1      -0.059  11.742  20.069  0.00  0.00    +0.000 A 
ATOM     10  C   UNL     1      -1.383  12.403  20.142  0.00  0.00    +0.000 A 
ATOM     11  C   UNL     1      -2.462  11.967  19.262  0.00  0.00    +0.000 A 
ENDROOT
BRANCH   1  14
ATOM     12  C   UNL     1      -6.591  13.193  21.723  0.00  0.00    +0.000 A 
ATOM     13  C   UNL     1      -5.725  13.455  20.579  0.00  0.00    +0.000 A 
ATOM     14  C   UNL     1      -5.526  12.454  19.533  0.00  0.00    +0.000 A 
ATOM     15  C   UNL     1      -6.389  11.307  19.649  0.00  0.00    +0.000 A 
ATOM     16  C   UNL     1      -7.199  11.018  20.806  0.00  0.00    +0.000 A 
ATOM     17  C   UNL     1      -7.249  11.975  21.841  0.00  0.00    +0.000 A 
BRANCH  12  19
ATOM     18  C   UNL     1      -5.681  14.457  23.599  0.00  0.00    +0.000 C 
ATOM     19  O   UNL     1      -6.770  13.962  22.830  0.00  0.00    +0.000 OA
ENDBRANCH  12  19
BRANCH  16  20
ATOM     20  O   UNL     1      -7.715   9.764  20.862  0.00  0.00    +0.000 OA
ATOM     21  C   UNL     1      -7.193   8.757  19.985  0.00  0.00    +0.000 C 
ENDBRANCH  16  20
BRANCH  17  22
ATOM     22  O   UNL     1      -7.819  11.632  23.044  0.00  0.00    +0.000 OA
ATOM     23  H   UNL     1      -8.781  11.742  22.961  0.00  0.00    +0.000 HD
ENDBRANCH  17  22
ENDBRANCH   1  14
BRANCH   8  24
ATOM     24  O   UNL     1       1.247   9.836  19.313  0.00  0.00    +0.000 OA
ATOM     25  C   UNL     1       1.749   9.393  18.036  0.00  0.00    +0.000 C 
ENDBRANCH   8  24
BRANCH   9  26
ATOM     26  O   UNL     1       1.139  12.028  20.675  0.00  0.00    +0.000 OA
ATOM     27  C   UNL     1       1.983  13.119  20.424  0.00  0.00    +0.000 C 
ENDBRANCH   9  26
BRANCH  10  28
ATOM     28  O   UNL     1      -1.453  13.340  21.144  0.00  0.00    +0.000 OA
ATOM     29  C   UNL     1      -1.951  14.639  20.831  0.00  0.00    +0.000 C 
ENDBRANCH  10  28
TORSDOF 7
ENDMDL
MODEL 5
REMARK VINA RESULT:      -6.2      4.736      7.046
REMARK  Name = 
REMARK  12 active torsions:
REMARK  status: ('A' for Active; 'I' for Inactive)
REMARK    1  A    between atoms: C_1  and  O_2
REMARK    2  A    between atoms: O_2  and  C_3
REMARK    3  A    between atoms: C_5  and  C_6
REMARK    4  A    between atoms: C_13  and  O_14
REMARK    5  A    between atoms: O_14  and  C_15
REMARK    6  A    between atoms: C_16  and  O_17
REMARK    7  A    between atoms: O_17  and  C_18
REMARK    8  A    between atoms: C_19  and  O_20
REMARK    9  A    between atoms: O_20  and  C_21
REMARK   10  A    between atoms: C_24  and  O_25
REMARK   11  A    between atoms: O_25  and  C_26
REMARK   12  A    between atoms: C_27  and  O_28
REMARK                            x       y       z     vdW  Elec       q    Type
REMARK                         _______ _______ _______ _____ _____    ______ ____
ROOT
ATOM      1  C   UNL     1      -2.386  11.082  18.636  0.00  0.00    +0.000 A 
ATOM      2  C   UNL     1      -2.324  10.443  17.458  0.00  0.00    +0.000 A 
ATOM      3  C   UNL     1      -3.213  10.815  16.381  0.00  0.00    +0.000 A 
ATOM      4  O   UNL     1      -2.968  11.478  15.390  0.00  0.00    +0.000 OA
ATOM      5  O   UNL     1      -4.381  10.332  16.802  0.00  0.00    +0.000 OA
ATOM      6  C   UNL     1      -4.699  11.364  17.684  0.00  0.00    +0.000 A 
ATOM      7  C   UNL     1      -5.891  11.915  17.253  0.00  0.00    +0.000 A 
ATOM      8  C   UNL     1      -6.407  12.955  17.943  0.00  0.00    +0.000 A 
ATOM      9  C   UNL     1      -5.937  13.173  19.254  0.00  0.00    +0.000 A 
ATOM     10  C   UNL     1      -4.648  12.600  19.708  0.00  0.00    +0.000 A 
ATOM     11  C   UNL     1      -3.856  11.781  18.797  0.00  0.00    +0.000 A 
ENDROOT
BRANCH   1  14
ATOM     12  C   UNL     1       0.971   9.237  19.068  0.00  0.00    +0.000 A 
ATOM     13  C   UNL     1       0.013  10.034  18.311  0.00  0.00    +0.000 A 
ATOM     14  C   UNL     1      -0.840  11.021  18.970  0.00  0.00    +0.000 A 
ATOM     15  C   UNL     1      -0.512  11.248  20.353  0.00  0.00    +0.000 A 
ATOM     16  C   UNL     1       0.390  10.423  21.117  0.00  0.00    +0.000 A 
ATOM     17  C   UNL     1       1.092   9.402  20.442  0.00  0.00    +0.000 A 
BRANCH  12  19
ATOM     18  C   UNL     1       2.802   8.377  17.707  0.00  0.00    +0.000 C 
ATOM     19  O   UNL     1       1.731   8.200  18.625  0.00  0.00    +0.000 OA
ENDBRANCH  12  19
BRANCH  16  20
ATOM     20  O   UNL     1       0.355  10.604  22.462  0.00  0.00    +0.000 OA
ATOM     21  C   UNL     1      -0.752  10.078  23.206  0.00  0.00    +0.000 C 
ENDBRANCH  16  20
BRANCH  17  22
ATOM     22  O   UNL     1       1.775   8.461  21.176  0.00  0.00    +0.000 OA
ATOM     23  H   UNL     1       1.132   7.805  21.493  0.00  0.00    +0.000 HD
ENDBRANCH  17  22
ENDBRANCH   1  14
BRANCH   8  24
ATOM     24  O   UNL     1      -7.392  13.733  17.388  0.00  0.00    +0.000 OA
ATOM     25  C   UNL     1      -6.853  14.684  16.449  0.00  0.00    +0.000 C 
ENDBRANCH   8  24
BRANCH   9  26
ATOM     26  O   UNL     1      -6.920  13.857  19.925  0.00  0.00    +0.000 OA
ATOM     27  C   UNL     1      -6.868  15.174  20.403  0.00  0.00    +0.000 C 
ENDBRANCH   9  26
BRANCH  10  28
ATOM     28  O   UNL     1      -4.307  13.005  20.976  0.00  0.00    +0.000 OA
ATOM     29  C   UNL     1      -3.205  13.896  21.135  0.00  0.00    +0.000 C 
ENDBRANCH  10  28
TORSDOF 7
ENDMDL
MODEL 6
REMARK VINA RESULT:      -6.2      4.574      7.744
REMARK  Name = 
REMARK  12 active torsions:
REMARK  status: ('A' for Active; 'I' for Inactive)
REMARK    1  A    between atoms: C_1  and  O_2
REMARK    2  A    between atoms: O_2  and  C_3
REMARK    3  A    between atoms: C_5  and  C_6
REMARK    4  A    between atoms: C_13  and  O_14
REMARK    5  A    between atoms: O_14  and  C_15
REMARK    6  A    between atoms: C_16  and  O_17
REMARK    7  A    between atoms: O_17  and  C_18
REMARK    8  A    between atoms: C_19  and  O_20
REMARK    9  A    between atoms: O_20  and  C_21
REMARK   10  A    between atoms: C_24  and  O_25
REMARK   11  A    between atoms: O_25  and  C_26
REMARK   12  A    between atoms: C_27  and  O_28
REMARK                            x       y       z     vdW  Elec       q    Type
REMARK                         _______ _______ _______ _____ _____    ______ ____
ROOT
ATOM      1  C   UNL     1      -1.999  11.430  19.198  0.00  0.00    +0.000 A 
ATOM      2  C   UNL     1      -1.804  10.619  18.148  0.00  0.00    +0.000 A 
ATOM      3  C   UNL     1      -2.681  10.691  17.001  0.00  0.00    +0.000 A 
ATOM      4  O   UNL     1      -2.474  11.208  15.919  0.00  0.00    +0.000 OA
ATOM      5  O   UNL     1      -3.799  10.137  17.469  0.00  0.00    +0.000 OA
ATOM      6  C   UNL     1      -4.282  11.250  18.155  0.00  0.00    +0.000 A 
ATOM      7  C   UNL     1      -5.512  11.564  17.607  0.00  0.00    +0.000 A 
ATOM      8  C   UNL     1      -6.184  12.628  18.099  0.00  0.00    +0.000 A 
ATOM      9  C   UNL     1      -5.805  13.117  19.365  0.00  0.00    +0.000 A 
ATOM     10  C   UNL     1      -4.478  12.798  19.942  0.00  0.00    +0.000 A 
ATOM     11  C   UNL     1      -3.549  11.950  19.203  0.00  0.00    +0.000 A 
ENDROOT
BRANCH   1  14
ATOM     12  C   UNL     1       1.369  13.302  19.061  0.00  0.00    +0.000 A 
ATOM     13  C   UNL     1       0.089  12.970  19.677  0.00  0.00    +0.000 A 
ATOM     14  C   UNL     1      -0.474  11.625  19.577  0.00  0.00    +0.000 A 
ATOM     15  C   UNL     1       0.420  10.657  18.997  0.00  0.00    +0.000 A 
ATOM     16  C   UNL     1       1.657  10.993  18.336  0.00  0.00    +0.000 A 
ATOM     17  C   UNL     1       2.083  12.337  18.363  0.00  0.00    +0.000 A 
BRANCH  12  19
ATOM     18  C   UNL     1       1.197  15.727  18.878  0.00  0.00    +0.000 C 
ATOM     19  O   UNL     1       1.953  14.525  18.956  0.00  0.00    +0.000 OA
ENDBRANCH  12  19
BRANCH  16  20
ATOM     20  O   UNL     1       2.219   9.998  17.603  0.00  0.00    +0.000 OA
ATOM     21  C   UNL     1       1.895   8.636  17.914  0.00  0.00    +0.000 C 
ENDBRANCH  16  20
BRANCH  17  22
ATOM     22  O   UNL     1       3.125  12.725  17.554  0.00  0.00    +0.000 OA
ATOM     23  H   UNL     1       3.393  13.620  17.820  0.00  0.00    +0.000 HD
ENDBRANCH  17  22
ENDBRANCH   1  14
BRANCH   8  24
ATOM     24  O   UNL     1      -7.230  13.170  17.396  0.00  0.00    +0.000 OA
ATOM     25  C   UNL     1      -6.794  14.238  16.532  0.00  0.00    +0.000 C 
ENDBRANCH   8  24
BRANCH   9  26
ATOM     26  O   UNL     1      -6.895  13.769  19.886  0.00  0.00    +0.000 OA
ATOM     27  C   UNL     1      -7.783  13.300  20.863  0.00  0.00    +0.000 C 
ENDBRANCH   9  26
BRANCH  10  28
ATOM     28  O   UNL     1      -4.248  13.446  21.131  0.00  0.00    +0.000 OA
ATOM     29  C   UNL     1      -3.843  12.677  22.262  0.00  0.00    +0.000 C 
ENDBRANCH  10  28
TORSDOF 7
ENDMDL
MODEL 7
REMARK VINA RESULT:      -6.2      4.290      8.172
REMARK  Name = 
REMARK  12 active torsions:
REMARK  status: ('A' for Active; 'I' for Inactive)
REMARK    1  A    between atoms: C_1  and  O_2
REMARK    2  A    between atoms: O_2  and  C_3
REMARK    3  A    between atoms: C_5  and  C_6
REMARK    4  A    between atoms: C_13  and  O_14
REMARK    5  A    between atoms: O_14  and  C_15
REMARK    6  A    between atoms: C_16  and  O_17
REMARK    7  A    between atoms: O_17  and  C_18
REMARK    8  A    between atoms: C_19  and  O_20
REMARK    9  A    between atoms: O_20  and  C_21
REMARK   10  A    between atoms: C_24  and  O_25
REMARK   11  A    between atoms: O_25  and  C_26
REMARK   12  A    between atoms: C_27  and  O_28
REMARK                            x       y       z     vdW  Elec       q    Type
REMARK                         _______ _______ _______ _____ _____    ______ ____
ROOT
ATOM      1  C   UNL     1      -1.800  12.500  20.702  0.00  0.00    +0.000 A 
ATOM      2  C   UNL     1      -1.774  12.855  21.995  0.00  0.00    +0.000 A 
ATOM      3  C   UNL     1      -2.918  12.602  22.842  0.00  0.00    +0.000 A 
ATOM      4  O   UNL     1      -3.068  11.724  23.672  0.00  0.00    +0.000 OA
ATOM      5  O   UNL     1      -3.793  13.510  22.410  0.00  0.00    +0.000 OA
ATOM      6  C   UNL     1      -4.228  12.820  21.279  0.00  0.00    +0.000 A 
ATOM      7  C   UNL     1      -5.588  12.619  21.424  0.00  0.00    +0.000 A 
ATOM      8  C   UNL     1      -6.249  11.951  20.453  0.00  0.00    +0.000 A 
ATOM      9  C   UNL     1      -5.627  11.837  19.194  0.00  0.00    +0.000 A 
ATOM     10  C   UNL     1      -4.166  12.031  19.043  0.00  0.00    +0.000 A 
ATOM     11  C   UNL     1      -3.352  12.362  20.208  0.00  0.00    +0.000 A 
ENDROOT
BRANCH   1  14
ATOM     12  C   UNL     1       1.811  13.087  19.485  0.00  0.00    +0.000 A 
ATOM     13  C   UNL     1       0.744  13.160  20.477  0.00  0.00    +0.000 A 
ATOM     14  C   UNL     1      -0.270  12.113  20.578  0.00  0.00    +0.000 A 
ATOM     15  C   UNL     1      -0.004  10.959  19.758  0.00  0.00    +0.000 A 
ATOM     16  C   UNL     1       1.012  10.910  18.736  0.00  0.00    +0.000 A 
ATOM     17  C   UNL     1       1.883  12.012  18.609  0.00  0.00    +0.000 A 
BRANCH  12  19
ATOM     18  C   UNL     1       3.720  14.466  20.119  0.00  0.00    +0.000 C 
ATOM     19  O   UNL     1       2.738  14.035  19.184  0.00  0.00    +0.000 OA
ENDBRANCH  12  19
BRANCH  16  20
ATOM     20  O   UNL     1       0.929   9.863  17.876  0.00  0.00    +0.000 OA
ATOM     21  C   UNL     1       1.842   8.767  18.023  0.00  0.00    +0.000 C 
ENDBRANCH  16  20
BRANCH  17  22
ATOM     22  O   UNL     1       2.702  12.094  17.508  0.00  0.00    +0.000 OA
ATOM     23  H   UNL     1       3.246  12.894  17.599  0.00  0.00    +0.000 HD
ENDBRANCH  17  22
ENDBRANCH   1  14
BRANCH   8  24
ATOM     24  O   UNL     1      -7.504  11.450  20.690  0.00  0.00    +0.000 OA
ATOM     25  C   UNL     1      -7.916  11.667  22.054  0.00  0.00    +0.000 C 
ENDBRANCH   8  24
BRANCH   9  26
ATOM     26  O   UNL     1      -6.624  11.648  18.269  0.00  0.00    +0.000 OA
ATOM     27  C   UNL     1      -7.133  12.586  17.360  0.00  0.00    +0.000 C 
ENDBRANCH   9  26
BRANCH  10  28
ATOM     28  O   UNL     1      -3.728  11.778  17.766  0.00  0.00    +0.000 OA
ATOM     29  C   UNL     1      -3.270  10.465  17.448  0.00  0.00    +0.000 C 
ENDBRANCH  10  28
TORSDOF 7
ENDMDL
MODEL 8
REMARK VINA RESULT:      -6.1      4.679      9.150
REMARK  Name = 
REMARK  12 active torsions:
REMARK  status: ('A' for Active; 'I' for Inactive)
REMARK    1  A    between atoms: C_1  and  O_2
REMARK    2  A    between atoms: O_2  and  C_3
REMARK    3  A    between atoms: C_5  and  C_6
REMARK    4  A    between atoms: C_13  and  O_14
REMARK    5  A    between atoms: O_14  and  C_15
REMARK    6  A    between atoms: C_16  and  O_17
REMARK    7  A    between atoms: O_17  and  C_18
REMARK    8  A    between atoms: C_19  and  O_20
REMARK    9  A    between atoms: O_20  and  C_21
REMARK   10  A    between atoms: C_24  and  O_25
REMARK   11  A    between atoms: O_25  and  C_26
REMARK   12  A    between atoms: C_27  and  O_28
REMARK                            x       y       z     vdW  Elec       q    Type
REMARK                         _______ _______ _______ _____ _____    ______ ____
ROOT
ATOM      1  C   UNL     1      -3.443  12.286  19.619  0.00  0.00    +0.000 A 
ATOM      2  C   UNL     1      -3.758  12.044  18.338  0.00  0.00    +0.000 A 
ATOM      3  C   UNL     1      -3.104  10.974  17.619  0.00  0.00    +0.000 A 
ATOM      4  O   UNL     1      -3.536   9.870  17.343  0.00  0.00    +0.000 OA
ATOM      5  O   UNL     1      -1.883  11.471  17.427  0.00  0.00    +0.000 OA
ATOM      6  C   UNL     1      -1.372  11.197  18.695  0.00  0.00    +0.000 A 
ATOM      7  C   UNL     1      -0.285  10.360  18.523  0.00  0.00    +0.000 A 
ATOM      8  C   UNL     1       0.381   9.935  19.619  0.00  0.00    +0.000 A 
ATOM      9  C   UNL     1       0.195  10.648  20.820  0.00  0.00    +0.000 A 
ATOM     10  C   UNL     1      -0.982  11.528  21.011  0.00  0.00    +0.000 A 
ATOM     11  C   UNL     1      -1.960  11.677  19.939  0.00  0.00    +0.000 A 
ENDROOT
BRANCH   1  14
ATOM     12  C   UNL     1      -6.170  12.845  22.287  0.00  0.00    +0.000 A 
ATOM     13  C   UNL     1      -5.081  13.292  21.426  0.00  0.00    +0.000 A 
ATOM     14  C   UNL     1      -4.888  12.728  20.092  0.00  0.00    +0.000 A 
ATOM     15  C   UNL     1      -5.955  11.861  19.664  0.00  0.00    +0.000 A 
ATOM     16  C   UNL     1      -6.998  11.371  20.531  0.00  0.00    +0.000 A 
ATOM     17  C   UNL     1      -7.053  11.865  21.851  0.00  0.00    +0.000 A 
BRANCH  12  19
ATOM     18  C   UNL     1      -7.173  14.305  23.962  0.00  0.00    +0.000 C 
ATOM     19  O   UNL     1      -6.398  13.174  23.587  0.00  0.00    +0.000 OA
ENDBRANCH  12  19
BRANCH  16  20
ATOM     20  O   UNL     1      -7.739  10.347  20.037  0.00  0.00    +0.000 OA
ATOM     21  C   UNL     1      -7.211   9.015  20.095  0.00  0.00    +0.000 C 
ENDBRANCH  16  20
BRANCH  17  22
ATOM     22  O   UNL     1      -7.882  11.252  22.761  0.00  0.00    +0.000 OA
ATOM     23  H   UNL     1      -8.263  11.941  23.330  0.00  0.00    +0.000 HD
ENDBRANCH  17  22
ENDBRANCH   1  14
BRANCH   8  24
ATOM     24  O   UNL     1       1.243   8.871  19.535  0.00  0.00    +0.000 OA
ATOM     25  C   UNL     1       1.814   8.751  18.217  0.00  0.00    +0.000 C 
ENDBRANCH   8  24
BRANCH   9  26
ATOM     26  O   UNL     1       1.306  10.429  21.594  0.00  0.00    +0.000 OA
ATOM     27  C   UNL     1       1.444   9.516  22.649  0.00  0.00    +0.000 C 
ENDBRANCH   9  26
BRANCH  10  28
ATOM     28  O   UNL     1      -1.048  12.055  22.278  0.00  0.00    +0.000 OA
ATOM     29  C   UNL     1      -2.148  11.695  23.112  0.00  0.00    +0.000 C 
ENDBRANCH  10  28
TORSDOF 7
ENDMDL
MODEL 9
REMARK VINA RESULT:      -6.1      5.356      8.052
REMARK  Name = 
REMARK  12 active torsions:
REMARK  status: ('A' for Active; 'I' for Inactive)
REMARK    1  A    between atoms: C_1  and  O_2
REMARK    2  A    between atoms: O_2  and  C_3
REMARK    3  A    between atoms: C_5  and  C_6
REMARK    4  A    between atoms: C_13  and  O_14
REMARK    5  A    between atoms: O_14  and  C_15
REMARK    6  A    between atoms: C_16  and  O_17
REMARK    7  A    between atoms: O_17  and  C_18
REMARK    8  A    between atoms: C_19  and  O_20
REMARK    9  A    between atoms: O_20  and  C_21
REMARK   10  A    between atoms: C_24  and  O_25
REMARK   11  A    between atoms: O_25  and  C_26
REMARK   12  A    between atoms: C_27  and  O_28
REMARK                            x       y       z     vdW  Elec       q    Type
REMARK                         _______ _______ _______ _____ _____    ______ ____
ROOT
ATOM      1  C   UNL     1      -2.545  11.008  18.525  0.00  0.00    +0.000 A 
ATOM      2  C   UNL     1      -2.567  10.394  17.333  0.00  0.00    +0.000 A 
ATOM      3  C   UNL     1      -3.478  10.838  16.303  0.00  0.00    +0.000 A 
ATOM      4  O   UNL     1      -3.239  11.511  15.317  0.00  0.00    +0.000 OA
ATOM      5  O   UNL     1      -4.652  10.407  16.763  0.00  0.00    +0.000 OA
ATOM      6  C   UNL     1      -4.877  11.433  17.680  0.00  0.00    +0.000 A 
ATOM      7  C   UNL     1      -6.054  12.057  17.312  0.00  0.00    +0.000 A 
ATOM      8  C   UNL     1      -6.485  13.106  18.046  0.00  0.00    +0.000 A 
ATOM      9  C   UNL     1      -5.950  13.268  19.339  0.00  0.00    +0.000 A 
ATOM     10  C   UNL     1      -4.676  12.617  19.726  0.00  0.00    +0.000 A 
ATOM     11  C   UNL     1      -3.967  11.779  18.764  0.00  0.00    +0.000 A 
ENDROOT
BRANCH   1  14
ATOM     12  C   UNL     1       0.545  10.763  20.818  0.00  0.00    +0.000 A 
ATOM     13  C   UNL     1      -0.519  10.188  20.002  0.00  0.00    +0.000 A 
ATOM     14  C   UNL     1      -0.992  10.857  18.792  0.00  0.00    +0.000 A 
ATOM     15  C   UNL     1      -0.200  11.995  18.404  0.00  0.00    +0.000 A 
ATOM     16  C   UNL     1       0.811  12.599  19.237  0.00  0.00    +0.000 A 
ATOM     17  C   UNL     1       1.134  11.968  20.456  0.00  0.00    +0.000 A 
BRANCH  12  19
ATOM     18  C   UNL     1       0.166   9.641  22.949  0.00  0.00    +0.000 C 
ATOM     19  O   UNL     1       0.997  10.332  22.025  0.00  0.00    +0.000 OA
ENDBRANCH  12  19
BRANCH  16  20
ATOM     20  O   UNL     1       1.246  13.821  18.838  0.00  0.00    +0.000 OA
ATOM     21  C   UNL     1       2.498  13.924  18.148  0.00  0.00    +0.000 C 
ENDBRANCH  16  20
BRANCH  17  22
ATOM     22  O   UNL     1       1.916  12.635  21.369  0.00  0.00    +0.000 OA
ATOM     23  H   UNL     1       2.370  13.357  20.903  0.00  0.00    +0.000 HD
ENDBRANCH  17  22
ENDBRANCH   1  14
BRANCH   8  24
ATOM     24  O   UNL     1      -7.449  13.948  17.550  0.00  0.00    +0.000 OA
ATOM     25  C   UNL     1      -6.940  14.766  16.478  0.00  0.00    +0.000 C 
ENDBRANCH   8  24
BRANCH   9  26
ATOM     26  O   UNL     1      -6.865  13.987  20.067  0.00  0.00    +0.000 OA
ATOM     27  C   UNL     1      -7.759  13.502  21.031  0.00  0.00    +0.000 C 
ENDBRANCH   9  26
BRANCH  10  28
ATOM     28  O   UNL     1      -4.261  12.973  20.986  0.00  0.00    +0.000 OA
ATOM     29  C   UNL     1      -3.028  13.677  21.126  0.00  0.00    +0.000 C 
ENDBRANCH  10  28
TORSDOF 7
ENDMDL
