MODEL 1
REMARK VINA RESULT:      -7.3      0.000      0.000
REMARK  Name = 
REMARK  2 active torsions:
REMARK  status: ('A' for Active; 'I' for Inactive)
REMARK    1  A    between atoms: C_2  and  C_3
REMARK    2  A    between atoms: N_20  and  C_21
REMARK                            x       y       z     vdW  Elec       q    Type
REMARK                         _______ _______ _______ _____ _____    ______ ____
ROOT
ATOM      1  C   UNL     1       1.518   9.381  18.619  0.00  0.00    +0.000 C 
ATOM      2  C   UNL     1       0.078   9.283  18.134  0.00  0.00    +0.000 C 
ATOM      3  C   UNL     1      -0.693  10.151  18.823  0.00  0.00    +0.000 C 
ATOM      4  C   UNL     1      -0.812  10.028  20.319  0.00  0.00    +0.000 A 
ATOM      5  C   UNL     1      -0.420   8.968  21.144  0.00  0.00    +0.000 A 
ATOM      6  C   UNL     1      -0.188   9.194  22.506  0.00  0.00    +0.000 A 
ATOM      7  C   UNL     1      -0.425  10.447  23.099  0.00  0.00    +0.000 A 
ATOM      8  C   UNL     1      -1.026  11.419  22.296  0.00  0.00    +0.000 A 
ATOM      9  N   UNL     1      -1.430  12.716  22.534  0.00  0.00    +0.000 N 
ATOM     10  C   UNL     1      -2.002  13.258  21.396  0.00  0.00    +0.000 A 
ATOM     11  C   UNL     1      -1.717  12.396  20.369  0.00  0.00    +0.000 A 
ATOM     12  C   UNL     1      -1.238  11.202  20.949  0.00  0.00    +0.000 A 
ATOM     13  C   UNL     1      -1.668  12.504  18.878  0.00  0.00    +0.000 C 
ATOM     14  C   UNL     1      -0.452  11.648  18.384  0.00  0.00    +0.000 C 
ATOM     15  N   UNL     1       0.972  11.942  18.874  0.00  0.00    +0.000 N 
ATOM     16  C   UNL     1       1.552  13.135  19.344  0.00  0.00    +0.000 C 
ATOM     17  O   UNL     1       2.780  13.186  19.477  0.00  0.00    +0.000 OA
ATOM     18  N   UNL     1       0.742  14.193  19.670  0.00  0.00    +0.000 N 
ATOM     19  C   UNL     1       1.997  10.861  18.573  0.00  0.00    +0.000 C 
ATOM     20  H   UNL     1      -1.291  13.209  23.404  0.00  0.00    +0.000 HD
ATOM     21  H   UNL     1      -0.221  13.985  19.860  0.00  0.00    +0.000 HD
ENDROOT
BRANCH   1  23
ATOM     22  O   UNL     1       2.881   8.570  16.796  0.00  0.00    +0.000 OA
ATOM     23  C   UNL     1       2.467   8.381  17.944  0.00  0.00    +0.000 C 
ATOM     24  N   UNL     1       2.806   7.238  18.659  0.00  0.00    +0.000 N 
ATOM     25  C   UNL     1       3.805   6.310  18.119  0.00  0.00    +0.000 C 
ATOM     26  C   UNL     1       3.321   4.859  18.215  0.00  0.00    +0.000 C 
ATOM     27  O   UNL     1       2.938   4.529  19.560  0.00  0.00    +0.000 OA
ATOM     28  C   UNL     1       1.874   5.381  20.003  0.00  0.00    +0.000 C 
ATOM     29  C   UNL     1       2.302   6.852  19.986  0.00  0.00    +0.000 C 
ENDBRANCH   1  23
BRANCH  18  30
ATOM     30  C   UNL     1       1.131  15.497  20.103  0.00  0.00    +0.000 A 
ATOM     31  C   UNL     1       1.343  15.813  21.447  0.00  0.00    +0.000 A 
ATOM     32  C   UNL     1       1.828  17.082  21.814  0.00  0.00    +0.000 A 
ATOM     33  C   UNL     1       2.057  18.059  20.855  0.00  0.00    +0.000 A 
ATOM     34  C   UNL     1       1.796  17.778  19.526  0.00  0.00    +0.000 A 
ATOM     35  C   UNL     1       1.347  16.501  19.146  0.00  0.00    +0.000 A 
ENDBRANCH  18  30
TORSDOF 2
ENDMDL
MODEL 2
REMARK VINA RESULT:      -7.0      5.287      9.495
REMARK  Name = 
REMARK  2 active torsions:
REMARK  status: ('A' for Active; 'I' for Inactive)
REMARK    1  A    between atoms: C_2  and  C_3
REMARK    2  A    between atoms: N_20  and  C_21
REMARK                            x       y       z     vdW  Elec       q    Type
REMARK                         _______ _______ _______ _____ _____    ______ ____
ROOT
ATOM      1  C   UNL     1      -4.512  14.344  22.799  0.00  0.00    +0.000 C 
ATOM      2  C   UNL     1      -5.921  13.832  23.071  0.00  0.00    +0.000 C 
ATOM      3  C   UNL     1      -6.543  13.573  21.901  0.00  0.00    +0.000 C 
ATOM      4  C   UNL     1      -6.753  14.677  20.901  0.00  0.00    +0.000 A 
ATOM      5  C   UNL     1      -6.610  16.058  21.077  0.00  0.00    +0.000 A 
ATOM      6  C   UNL     1      -6.402  16.885  19.967  0.00  0.00    +0.000 A 
ATOM      7  C   UNL     1      -6.424  16.381  18.655  0.00  0.00    +0.000 A 
ATOM      8  C   UNL     1      -6.790  15.041  18.501  0.00  0.00    +0.000 A 
ATOM      9  N   UNL     1      -6.949  14.231  17.397  0.00  0.00    +0.000 N 
ATOM     10  C   UNL     1      -7.353  12.965  17.783  0.00  0.00    +0.000 A 
ATOM     11  C   UNL     1      -7.191  12.903  19.143  0.00  0.00    +0.000 A 
ATOM     12  C   UNL     1      -6.976  14.222  19.597  0.00  0.00    +0.000 A 
ATOM     13  C   UNL     1      -7.052  11.800  20.144  0.00  0.00    +0.000 C 
ATOM     14  C   UNL     1      -6.001  12.262  21.210  0.00  0.00    +0.000 C 
ATOM     15  N   UNL     1      -4.571  12.637  20.798  0.00  0.00    +0.000 N 
ATOM     16  C   UNL     1      -3.797  12.228  19.696  0.00  0.00    +0.000 C 
ATOM     17  O   UNL     1      -2.588  12.492  19.689  0.00  0.00    +0.000 OA
ATOM     18  N   UNL     1      -4.404  11.577  18.653  0.00  0.00    +0.000 N 
ATOM     19  C   UNL     1      -3.758  13.358  21.861  0.00  0.00    +0.000 C 
ATOM     20  H   UNL     1      -6.759  14.513  16.447  0.00  0.00    +0.000 HD
ATOM     21  H   UNL     1      -5.397  11.691  18.564  0.00  0.00    +0.000 HD
ENDROOT
BRANCH   1  23
ATOM     22  O   UNL     1      -3.795  14.040  25.087  0.00  0.00    +0.000 OA
ATOM     23  C   UNL     1      -3.742  14.735  24.068  0.00  0.00    +0.000 C 
ATOM     24  N   UNL     1      -3.017  15.922  24.036  0.00  0.00    +0.000 N 
ATOM     25  C   UNL     1      -2.161  16.284  25.170  0.00  0.00    +0.000 C 
ATOM     26  C   UNL     1      -2.376  17.744  25.582  0.00  0.00    +0.000 C 
ATOM     27  O   UNL     1      -2.204  18.628  24.462  0.00  0.00    +0.000 OA
ATOM     28  C   UNL     1      -3.145  18.316  23.427  0.00  0.00    +0.000 C 
ATOM     29  C   UNL     1      -2.955  16.882  22.923  0.00  0.00    +0.000 C 
ENDBRANCH   1  23
BRANCH  18  30
ATOM     30  C   UNL     1      -3.793  11.032  17.483  0.00  0.00    +0.000 A 
ATOM     31  C   UNL     1      -2.689  10.178  17.535  0.00  0.00    +0.000 A 
ATOM     32  C   UNL     1      -2.190   9.584  16.362  0.00  0.00    +0.000 A 
ATOM     33  C   UNL     1      -2.751   9.871  15.126  0.00  0.00    +0.000 A 
ATOM     34  C   UNL     1      -3.808  10.761  15.053  0.00  0.00    +0.000 A 
ATOM     35  C   UNL     1      -4.338  11.331  16.223  0.00  0.00    +0.000 A 
ENDBRANCH  18  30
TORSDOF 2
ENDMDL
MODEL 3
REMARK VINA RESULT:      -6.7      4.975      9.164
REMARK  Name = 
REMARK  2 active torsions:
REMARK  status: ('A' for Active; 'I' for Inactive)
REMARK    1  A    between atoms: C_2  and  C_3
REMARK    2  A    between atoms: N_20  and  C_21
REMARK                            x       y       z     vdW  Elec       q    Type
REMARK                         _______ _______ _______ _____ _____    ______ ____
ROOT
ATOM      1  C   UNL     1      -2.749  14.723  22.886  0.00  0.00    +0.000 C 
ATOM      2  C   UNL     1      -4.066  14.323  23.537  0.00  0.00    +0.000 C 
ATOM      3  C   UNL     1      -4.986  14.071  22.581  0.00  0.00    +0.000 C 
ATOM      4  C   UNL     1      -5.381  15.154  21.614  0.00  0.00    +0.000 A 
ATOM      5  C   UNL     1      -5.114  16.526  21.678  0.00  0.00    +0.000 A 
ATOM      6  C   UNL     1      -5.152  17.299  20.512  0.00  0.00    +0.000 A 
ATOM      7  C   UNL     1      -5.545  16.755  19.276  0.00  0.00    +0.000 A 
ATOM      8  C   UNL     1      -6.019  15.441  19.289  0.00  0.00    +0.000 A 
ATOM      9  N   UNL     1      -6.510  14.609  18.306  0.00  0.00    +0.000 N 
ATOM     10  C   UNL     1      -6.876  13.388  18.846  0.00  0.00    +0.000 A 
ATOM     11  C   UNL     1      -6.369  13.359  20.120  0.00  0.00    +0.000 A 
ATOM     12  C   UNL     1      -5.964  14.673  20.436  0.00  0.00    +0.000 A 
ATOM     13  C   UNL     1      -6.042  12.283  21.106  0.00  0.00    +0.000 C 
ATOM     14  C   UNL     1      -4.723  12.702  21.840  0.00  0.00    +0.000 C 
ATOM     15  N   UNL     1      -3.430  12.960  21.056  0.00  0.00    +0.000 N 
ATOM     16  C   UNL     1      -2.995  12.460  19.814  0.00  0.00    +0.000 C 
ATOM     17  O   UNL     1      -1.817  12.637  19.483  0.00  0.00    +0.000 OA
ATOM     18  N   UNL     1      -3.891  11.821  18.996  0.00  0.00    +0.000 N 
ATOM     19  C   UNL     1      -2.326  13.655  21.836  0.00  0.00    +0.000 C 
ATOM     20  H   UNL     1      -6.556  14.846  17.325  0.00  0.00    +0.000 HD
ATOM     21  H   UNL     1      -4.865  12.003  19.159  0.00  0.00    +0.000 HD
ENDROOT
BRANCH   1  23
ATOM     22  O   UNL     1      -0.816  14.270  24.263  0.00  0.00    +0.000 OA
ATOM     23  C   UNL     1      -1.652  15.098  23.892  0.00  0.00    +0.000 C 
ATOM     24  N   UNL     1      -1.666  16.393  24.400  0.00  0.00    +0.000 N 
ATOM     25  C   UNL     1      -0.573  16.849  25.265  0.00  0.00    +0.000 C 
ATOM     26  C   UNL     1      -1.114  17.564  26.508  0.00  0.00    +0.000 C 
ATOM     27  O   UNL     1      -2.005  18.631  26.145  0.00  0.00    +0.000 OA
ATOM     28  C   UNL     1      -3.122  18.122  25.406  0.00  0.00    +0.000 C 
ATOM     29  C   UNL     1      -2.664  17.436  24.114  0.00  0.00    +0.000 C 
ENDBRANCH   1  23
BRANCH  18  30
ATOM     30  C   UNL     1      -3.641  11.196  17.737  0.00  0.00    +0.000 A 
ATOM     31  C   UNL     1      -4.306  11.566  16.565  0.00  0.00    +0.000 A 
ATOM     32  C   UNL     1      -3.948  10.993  15.331  0.00  0.00    +0.000 A 
ATOM     33  C   UNL     1      -2.966  10.016  15.259  0.00  0.00    +0.000 A 
ATOM     34  C   UNL     1      -2.341   9.598  16.420  0.00  0.00    +0.000 A 
ATOM     35  C   UNL     1      -2.664  10.190  17.653  0.00  0.00    +0.000 A 
ENDBRANCH  18  30
TORSDOF 2
ENDMDL
MODEL 4
REMARK VINA RESULT:      -6.6      3.888      6.801
REMARK  Name = 
REMARK  2 active torsions:
REMARK  status: ('A' for Active; 'I' for Inactive)
REMARK    1  A    between atoms: C_2  and  C_3
REMARK    2  A    between atoms: N_20  and  C_21
REMARK                            x       y       z     vdW  Elec       q    Type
REMARK                         _______ _______ _______ _____ _____    ______ ____
ROOT
ATOM      1  C   UNL     1      -2.554  12.720  22.236  0.00  0.00    +0.000 C 
ATOM      2  C   UNL     1      -1.297  12.359  23.015  0.00  0.00    +0.000 C 
ATOM      3  C   UNL     1      -0.219  12.453  22.206  0.00  0.00    +0.000 C 
ATOM      4  C   UNL     1      -0.130  11.597  20.971  0.00  0.00    +0.000 A 
ATOM      5  C   UNL     1      -0.909  10.491  20.614  0.00  0.00    +0.000 A 
ATOM      6  C   UNL     1      -0.997  10.105  19.271  0.00  0.00    +0.000 A 
ATOM      7  C   UNL     1      -0.247  10.743  18.268  0.00  0.00    +0.000 A 
ATOM      8  C   UNL     1       0.687  11.693  18.688  0.00  0.00    +0.000 A 
ATOM      9  N   UNL     1       1.599  12.477  18.014  0.00  0.00    +0.000 N 
ATOM     10  C   UNL     1       2.320  13.252  18.905  0.00  0.00    +0.000 A 
ATOM     11  C   UNL     1       1.680  13.152  20.113  0.00  0.00    +0.000 A 
ATOM     12  C   UNL     1       0.760  12.087  20.010  0.00  0.00    +0.000 A 
ATOM     13  C   UNL     1       1.648  13.968  21.366  0.00  0.00    +0.000 C 
ATOM     14  C   UNL     1       0.175  13.950  21.902  0.00  0.00    +0.000 C 
ATOM     15  N   UNL     1      -0.986  14.460  21.038  0.00  0.00    +0.000 N 
ATOM     16  C   UNL     1      -1.006  15.400  19.990  0.00  0.00    +0.000 C 
ATOM     17  O   UNL     1      -2.099  15.815  19.587  0.00  0.00    +0.000 OA
ATOM     18  N   UNL     1       0.177  15.805  19.428  0.00  0.00    +0.000 N 
ATOM     19  C   UNL     1      -2.374  14.101  21.542  0.00  0.00    +0.000 C 
ATOM     20  H   UNL     1       1.696  12.507  17.009  0.00  0.00    +0.000 HD
ATOM     21  H   UNL     1       0.970  15.204  19.559  0.00  0.00    +0.000 HD
ENDROOT
BRANCH   1  23
ATOM     22  O   UNL     1      -3.840  12.072  24.176  0.00  0.00    +0.000 OA
ATOM     23  C   UNL     1      -3.847  12.578  23.050  0.00  0.00    +0.000 C 
ATOM     24  N   UNL     1      -5.030  13.001  22.453  0.00  0.00    +0.000 N 
ATOM     25  C   UNL     1      -6.275  13.008  23.226  0.00  0.00    +0.000 C 
ATOM     26  C   UNL     1      -7.423  12.377  22.431  0.00  0.00    +0.000 C 
ATOM     27  O   UNL     1      -7.572  13.006  21.148  0.00  0.00    +0.000 OA
ATOM     28  C   UNL     1      -6.372  12.867  20.379  0.00  0.00    +0.000 C 
ATOM     29  C   UNL     1      -5.183  13.526  21.087  0.00  0.00    +0.000 C 
ENDBRANCH   1  23
BRANCH  18  30
ATOM     30  C   UNL     1       0.375  16.784  18.407  0.00  0.00    +0.000 A 
ATOM     31  C   UNL     1       1.610  16.985  17.785  0.00  0.00    +0.000 A 
ATOM     32  C   UNL     1       1.729  17.888  16.712  0.00  0.00    +0.000 A 
ATOM     33  C   UNL     1       0.638  18.629  16.284  0.00  0.00    +0.000 A 
ATOM     34  C   UNL     1      -0.577  18.483  16.930  0.00  0.00    +0.000 A 
ATOM     35  C   UNL     1      -0.716  17.557  17.978  0.00  0.00    +0.000 A 
ENDBRANCH  18  30
TORSDOF 2
ENDMDL
MODEL 5
REMARK VINA RESULT:      -6.5      5.201      9.324
REMARK  Name = 
REMARK  2 active torsions:
REMARK  status: ('A' for Active; 'I' for Inactive)
REMARK    1  A    between atoms: C_2  and  C_3
REMARK    2  A    between atoms: N_20  and  C_21
REMARK                            x       y       z     vdW  Elec       q    Type
REMARK                         _______ _______ _______ _____ _____    ______ ____
ROOT
ATOM      1  C   UNL     1      -5.317  14.916  22.516  0.00  0.00    +0.000 C 
ATOM      2  C   UNL     1      -6.775  14.490  22.617  0.00  0.00    +0.000 C 
ATOM      3  C   UNL     1      -7.236  14.158  21.392  0.00  0.00    +0.000 C 
ATOM      4  C   UNL     1      -7.240  15.181  20.288  0.00  0.00    +0.000 A 
ATOM      5  C   UNL     1      -7.049  16.564  20.375  0.00  0.00    +0.000 A 
ATOM      6  C   UNL     1      -6.639  17.283  19.245  0.00  0.00    +0.000 A 
ATOM      7  C   UNL     1      -6.500  16.670  17.988  0.00  0.00    +0.000 A 
ATOM      8  C   UNL     1      -6.913  15.339  17.887  0.00  0.00    +0.000 A 
ATOM      9  N   UNL     1      -6.956  14.445  16.839  0.00  0.00    +0.000 N 
ATOM     10  C   UNL     1      -7.480  13.235  17.259  0.00  0.00    +0.000 A 
ATOM     11  C   UNL     1      -7.518  13.283  18.629  0.00  0.00    +0.000 A 
ATOM     12  C   UNL     1      -7.299  14.625  19.005  0.00  0.00    +0.000 A 
ATOM     13  C   UNL     1      -7.585  12.265  19.723  0.00  0.00    +0.000 C 
ATOM     14  C   UNL     1      -6.673  12.771  20.893  0.00  0.00    +0.000 C 
ATOM     15  N   UNL     1      -5.181  13.048  20.668  0.00  0.00    +0.000 N 
ATOM     16  C   UNL     1      -4.280  12.513  19.728  0.00  0.00    +0.000 C 
ATOM     17  O   UNL     1      -3.070  12.725  19.878  0.00  0.00    +0.000 OA
ATOM     18  N   UNL     1      -4.765  11.802  18.661  0.00  0.00    +0.000 N 
ATOM     19  C   UNL     1      -4.491  13.822  21.780  0.00  0.00    +0.000 C 
ATOM     20  H   UNL     1      -6.616  14.637  15.908  0.00  0.00    +0.000 HD
ATOM     21  H   UNL     1      -5.728  11.951  18.417  0.00  0.00    +0.000 HD
ENDROOT
BRANCH   1  23
ATOM     22  O   UNL     1      -5.344  16.124  24.608  0.00  0.00    +0.000 OA
ATOM     23  C   UNL     1      -4.716  15.380  23.850  0.00  0.00    +0.000 C 
ATOM     24  N   UNL     1      -3.423  14.965  24.148  0.00  0.00    +0.000 N 
ATOM     25  C   UNL     1      -2.843  15.270  25.460  0.00  0.00    +0.000 C 
ATOM     26  C   UNL     1      -1.422  15.828  25.320  0.00  0.00    +0.000 C 
ATOM     27  O   UNL     1      -0.593  14.944  24.548  0.00  0.00    +0.000 OA
ATOM     28  C   UNL     1      -1.132  14.772  23.232  0.00  0.00    +0.000 C 
ATOM     29  C   UNL     1      -2.538  14.165  23.286  0.00  0.00    +0.000 C 
ENDBRANCH   1  23
BRANCH  18  30
ATOM     30  C   UNL     1      -4.024  11.134  17.640  0.00  0.00    +0.000 A 
ATOM     31  C   UNL     1      -4.296  11.299  16.279  0.00  0.00    +0.000 A 
ATOM     32  C   UNL     1      -3.470  10.702  15.309  0.00  0.00    +0.000 A 
ATOM     33  C   UNL     1      -2.402   9.899  15.683  0.00  0.00    +0.000 A 
ATOM     34  C   UNL     1      -2.157   9.679  17.026  0.00  0.00    +0.000 A 
ATOM     35  C   UNL     1      -2.953  10.301  18.003  0.00  0.00    +0.000 A 
ENDBRANCH  18  30
TORSDOF 2
ENDMDL
MODEL 6
REMARK VINA RESULT:      -6.5      3.226      7.833
REMARK  Name = 
REMARK  2 active torsions:
REMARK  status: ('A' for Active; 'I' for Inactive)
REMARK    1  A    between atoms: C_2  and  C_3
REMARK    2  A    between atoms: N_20  and  C_21
REMARK                            x       y       z     vdW  Elec       q    Type
REMARK                         _______ _______ _______ _____ _____    ______ ____
ROOT
ATOM      1  C   UNL     1      -2.410  13.559  22.250  0.00  0.00    +0.000 C 
ATOM      2  C   UNL     1      -2.677  14.380  20.995  0.00  0.00    +0.000 C 
ATOM      3  C   UNL     1      -1.614  14.301  20.167  0.00  0.00    +0.000 C 
ATOM      4  C   UNL     1      -0.265  14.784  20.627  0.00  0.00    +0.000 A 
ATOM      5  C   UNL     1       0.053  15.556  21.750  0.00  0.00    +0.000 A 
ATOM      6  C   UNL     1       1.354  15.531  22.268  0.00  0.00    +0.000 A 
ATOM      7  C   UNL     1       2.388  14.819  21.636  0.00  0.00    +0.000 A 
ATOM      8  C   UNL     1       2.091  14.243  20.398  0.00  0.00    +0.000 A 
ATOM      9  N   UNL     1       2.839  13.519  19.495  0.00  0.00    +0.000 N 
ATOM     10  C   UNL     1       2.074  13.190  18.390  0.00  0.00    +0.000 A 
ATOM     11  C   UNL     1       0.773  13.478  18.717  0.00  0.00    +0.000 A 
ATOM     12  C   UNL     1       0.804  14.252  19.897  0.00  0.00    +0.000 A 
ATOM     13  C   UNL     1      -0.567  13.049  18.211  0.00  0.00    +0.000 C 
ATOM     14  C   UNL     1      -1.512  12.898  19.451  0.00  0.00    +0.000 C 
ATOM     15  N   UNL     1      -1.167  11.935  20.595  0.00  0.00    +0.000 N 
ATOM     16  C   UNL     1      -0.389  10.762  20.603  0.00  0.00    +0.000 C 
ATOM     17  O   UNL     1      -0.432  10.029  21.597  0.00  0.00    +0.000 OA
ATOM     18  N   UNL     1       0.414  10.481  19.527  0.00  0.00    +0.000 N 
ATOM     19  C   UNL     1      -1.988  12.113  21.861  0.00  0.00    +0.000 C 
ATOM     20  H   UNL     1       3.797  13.235  19.641  0.00  0.00    +0.000 HD
ATOM     21  H   UNL     1       0.657  11.250  18.930  0.00  0.00    +0.000 HD
ENDROOT
BRANCH   1  23
ATOM     22  O   UNL     1      -3.284  13.747  24.495  0.00  0.00    +0.000 OA
ATOM     23  C   UNL     1      -3.535  13.639  23.291  0.00  0.00    +0.000 C 
ATOM     24  N   UNL     1      -4.842  13.543  22.828  0.00  0.00    +0.000 N 
ATOM     25  C   UNL     1      -5.960  13.739  23.757  0.00  0.00    +0.000 C 
ATOM     26  C   UNL     1      -7.017  12.641  23.590  0.00  0.00    +0.000 C 
ATOM     27  O   UNL     1      -7.451  12.544  22.224  0.00  0.00    +0.000 OA
ATOM     28  C   UNL     1      -6.346  12.229  21.367  0.00  0.00    +0.000 C 
ATOM     29  C   UNL     1      -5.266  13.314  21.438  0.00  0.00    +0.000 C 
ENDBRANCH   1  23
BRANCH  18  30
ATOM     30  C   UNL     1       1.227   9.326  19.315  0.00  0.00    +0.000 A 
ATOM     31  C   UNL     1       1.432   8.357  20.300  0.00  0.00    +0.000 A 
ATOM     32  C   UNL     1       2.155   7.185  20.008  0.00  0.00    +0.000 A 
ATOM     33  C   UNL     1       2.719   6.993  18.756  0.00  0.00    +0.000 A 
ATOM     34  C   UNL     1       2.573   7.971  17.789  0.00  0.00    +0.000 A 
ATOM     35  C   UNL     1       1.821   9.128  18.059  0.00  0.00    +0.000 A 
ENDBRANCH  18  30
TORSDOF 2
ENDMDL
MODEL 7
REMARK VINA RESULT:      -6.4      3.077      8.395
REMARK  Name = 
REMARK  2 active torsions:
REMARK  status: ('A' for Active; 'I' for Inactive)
REMARK    1  A    between atoms: C_2  and  C_3
REMARK    2  A    between atoms: N_20  and  C_21
REMARK                            x       y       z     vdW  Elec       q    Type
REMARK                         _______ _______ _______ _____ _____    ______ ____
ROOT
ATOM      1  C   UNL     1      -0.857  14.363  22.680  0.00  0.00    +0.000 C 
ATOM      2  C   UNL     1      -1.503  14.956  21.435  0.00  0.00    +0.000 C 
ATOM      3  C   UNL     1      -0.801  14.590  20.341  0.00  0.00    +0.000 C 
ATOM      4  C   UNL     1       0.646  14.983  20.212  0.00  0.00    +0.000 A 
ATOM      5  C   UNL     1       1.373  15.910  20.966  0.00  0.00    +0.000 A 
ATOM      6  C   UNL     1       2.770  15.825  21.018  0.00  0.00    +0.000 A 
ATOM      7  C   UNL     1       3.483  14.884  20.255  0.00  0.00    +0.000 A 
ATOM      8  C   UNL     1       2.745  14.123  19.345  0.00  0.00    +0.000 A 
ATOM      9  N   UNL     1       3.094  13.154  18.429  0.00  0.00    +0.000 N 
ATOM     10  C   UNL     1       1.976  12.717  17.740  0.00  0.00    +0.000 A 
ATOM     11  C   UNL     1       0.888  13.220  18.406  0.00  0.00    +0.000 A 
ATOM     12  C   UNL     1       1.366  14.194  19.307  0.00  0.00    +0.000 A 
ATOM     13  C   UNL     1      -0.565  12.869  18.478  0.00  0.00    +0.000 C 
ATOM     14  C   UNL     1      -1.025  13.075  19.962  0.00  0.00    +0.000 C 
ATOM     15  N   UNL     1      -0.351  12.313  21.111  0.00  0.00    +0.000 N 
ATOM     16  C   UNL     1       0.322  11.077  21.121  0.00  0.00    +0.000 C 
ATOM     17  O   UNL     1       0.592  10.557  22.210  0.00  0.00    +0.000 OA
ATOM     18  N   UNL     1       0.685  10.499  19.931  0.00  0.00    +0.000 N 
ATOM     19  C   UNL     1      -0.669  12.828  22.504  0.00  0.00    +0.000 C 
ATOM     20  H   UNL     1       4.027  12.788  18.310  0.00  0.00    +0.000 HD
ATOM     21  H   UNL     1       0.742  11.104  19.132  0.00  0.00    +0.000 HD
ENDROOT
BRANCH   1  23
ATOM     22  O   UNL     1      -2.559  14.202  24.387  0.00  0.00    +0.000 OA
ATOM     23  C   UNL     1      -1.543  14.777  23.989  0.00  0.00    +0.000 C 
ATOM     24  N   UNL     1      -0.998  15.852  24.684  0.00  0.00    +0.000 N 
ATOM     25  C   UNL     1      -1.532  16.213  26.001  0.00  0.00    +0.000 C 
ATOM     26  C   UNL     1      -1.772  17.724  26.105  0.00  0.00    +0.000 C 
ATOM     27  O   UNL     1      -0.583  18.460  25.775  0.00  0.00    +0.000 OA
ATOM     28  C   UNL     1      -0.168  18.169  24.435  0.00  0.00    +0.000 C 
ATOM     29  C   UNL     1       0.145  16.679  24.265  0.00  0.00    +0.000 C 
ENDBRANCH   1  23
BRANCH  18  30
ATOM     30  C   UNL     1       1.314   9.234  19.724  0.00  0.00    +0.000 A 
ATOM     31  C   UNL     1       1.379   8.252  20.715  0.00  0.00    +0.000 A 
ATOM     32  C   UNL     1       1.916   6.984  20.429  0.00  0.00    +0.000 A 
ATOM     33  C   UNL     1       2.436   6.700  19.175  0.00  0.00    +0.000 A 
ATOM     34  C   UNL     1       2.432   7.682  18.201  0.00  0.00    +0.000 A 
ATOM     35  C   UNL     1       1.863   8.940  18.465  0.00  0.00    +0.000 A 
ENDBRANCH  18  30
TORSDOF 2
ENDMDL
MODEL 8
REMARK VINA RESULT:      -6.4      2.453      4.079
REMARK  Name = 
REMARK  2 active torsions:
REMARK  status: ('A' for Active; 'I' for Inactive)
REMARK    1  A    between atoms: C_2  and  C_3
REMARK    2  A    between atoms: N_20  and  C_21
REMARK                            x       y       z     vdW  Elec       q    Type
REMARK                         _______ _______ _______ _____ _____    ______ ____
ROOT
ATOM      1  C   UNL     1       1.047   8.763  20.147  0.00  0.00    +0.000 C 
ATOM      2  C   UNL     1       1.836   9.704  19.247  0.00  0.00    +0.000 C 
ATOM      3  C   UNL     1       1.151  10.856  19.083  0.00  0.00    +0.000 C 
ATOM      4  C   UNL     1      -0.219  10.833  18.459  0.00  0.00    +0.000 A 
ATOM      5  C   UNL     1      -0.850   9.792  17.771  0.00  0.00    +0.000 A 
ATOM      6  C   UNL     1      -2.246   9.775  17.660  0.00  0.00    +0.000 A 
ATOM      7  C   UNL     1      -3.039  10.831  18.144  0.00  0.00    +0.000 A 
ATOM      8  C   UNL     1      -2.365  11.956  18.624  0.00  0.00    +0.000 A 
ATOM      9  N   UNL     1      -2.794  13.163  19.133  0.00  0.00    +0.000 N 
ATOM     10  C   UNL     1      -1.711  13.964  19.452  0.00  0.00    +0.000 A 
ATOM     11  C   UNL     1      -0.602  13.160  19.392  0.00  0.00    +0.000 A 
ATOM     12  C   UNL     1      -0.989  11.964  18.750  0.00  0.00    +0.000 A 
ATOM     13  C   UNL     1       0.782  13.220  19.957  0.00  0.00    +0.000 C 
ATOM     14  C   UNL     1       1.184  11.764  20.373  0.00  0.00    +0.000 C 
ATOM     15  N   UNL     1       0.349  10.975  21.390  0.00  0.00    +0.000 N 
ATOM     16  C   UNL     1      -0.488  11.418  22.431  0.00  0.00    +0.000 C 
ATOM     17  O   UNL     1      -0.887  10.595  23.264  0.00  0.00    +0.000 OA
ATOM     18  N   UNL     1      -0.862  12.737  22.478  0.00  0.00    +0.000 N 
ATOM     19  C   UNL     1       0.659   9.489  21.468  0.00  0.00    +0.000 C 
ATOM     20  H   UNL     1      -3.761  13.409  19.287  0.00  0.00    +0.000 HD
ATOM     21  H   UNL     1      -0.791  13.259  21.623  0.00  0.00    +0.000 HD
ENDROOT
BRANCH   1  23
ATOM     22  O   UNL     1       1.711   6.835  21.443  0.00  0.00    +0.000 OA
ATOM     23  C   UNL     1       1.711   7.393  20.342  0.00  0.00    +0.000 C 
ATOM     24  N   UNL     1       2.346   6.828  19.242  0.00  0.00    +0.000 N 
ATOM     25  C   UNL     1       2.887   5.468  19.331  0.00  0.00    +0.000 C 
ATOM     26  C   UNL     1       4.310   5.401  18.766  0.00  0.00    +0.000 C 
ATOM     27  O   UNL     1       4.360   5.923  17.428  0.00  0.00    +0.000 OA
ATOM     28  C   UNL     1       3.940   7.292  17.407  0.00  0.00    +0.000 C 
ATOM     29  C   UNL     1       2.499   7.435  17.910  0.00  0.00    +0.000 C 
ENDBRANCH   1  23
BRANCH  18  30
ATOM     30  C   UNL     1      -1.648  13.393  23.473  0.00  0.00    +0.000 A 
ATOM     31  C   UNL     1      -1.188  14.502  24.188  0.00  0.00    +0.000 A 
ATOM     32  C   UNL     1      -2.039  15.177  25.082  0.00  0.00    +0.000 A 
ATOM     33  C   UNL     1      -3.332  14.728  25.308  0.00  0.00    +0.000 A 
ATOM     34  C   UNL     1      -3.781  13.596  24.651  0.00  0.00    +0.000 A 
ATOM     35  C   UNL     1      -2.951  12.937  23.728  0.00  0.00    +0.000 A 
ENDBRANCH  18  30
TORSDOF 2
ENDMDL
MODEL 9
REMARK VINA RESULT:      -6.4      4.213      8.493
REMARK  Name = 
REMARK  2 active torsions:
REMARK  status: ('A' for Active; 'I' for Inactive)
REMARK    1  A    between atoms: C_2  and  C_3
REMARK    2  A    between atoms: N_20  and  C_21
REMARK                            x       y       z     vdW  Elec       q    Type
REMARK                         _______ _______ _______ _____ _____    ______ ____
ROOT
ATOM      1  C   UNL     1      -3.664  12.879  22.618  0.00  0.00    +0.000 C 
ATOM      2  C   UNL     1      -2.465  13.817  22.594  0.00  0.00    +0.000 C 
ATOM      3  C   UNL     1      -1.531  13.339  21.745  0.00  0.00    +0.000 C 
ATOM      4  C   UNL     1      -0.918  11.986  21.986  0.00  0.00    +0.000 A 
ATOM      5  C   UNL     1      -0.986  11.185  23.132  0.00  0.00    +0.000 A 
ATOM      6  C   UNL     1      -0.758   9.807  23.033  0.00  0.00    +0.000 A 
ATOM      7  C   UNL     1      -0.368   9.206  21.824  0.00  0.00    +0.000 A 
ATOM      8  C   UNL     1      -0.093  10.063  20.755  0.00  0.00    +0.000 A 
ATOM      9  N   UNL     1       0.335   9.846  19.463  0.00  0.00    +0.000 N 
ATOM     10  C   UNL     1       0.482  11.050  18.796  0.00  0.00    +0.000 A 
ATOM     11  C   UNL     1      -0.107  12.005  19.584  0.00  0.00    +0.000 A 
ATOM     12  C   UNL     1      -0.336  11.419  20.847  0.00  0.00    +0.000 A 
ATOM     13  C   UNL     1      -0.652  13.379  19.354  0.00  0.00    +0.000 C 
ATOM     14  C   UNL     1      -1.941  13.527  20.233  0.00  0.00    +0.000 C 
ATOM     15  N   UNL     1      -3.128  12.569  20.060  0.00  0.00    +0.000 N 
ATOM     16  C   UNL     1      -3.548  11.820  18.945  0.00  0.00    +0.000 C 
ATOM     17  O   UNL     1      -4.663  11.287  18.974  0.00  0.00    +0.000 OA
ATOM     18  N   UNL     1      -2.703  11.677  17.874  0.00  0.00    +0.000 N 
ATOM     19  C   UNL     1      -4.168  12.620  21.168  0.00  0.00    +0.000 C 
ATOM     20  H   UNL     1       0.480   8.935  19.053  0.00  0.00    +0.000 HD
ATOM     21  H   UNL     1      -1.726  11.836  18.043  0.00  0.00    +0.000 HD
ENDROOT
BRANCH   1  23
ATOM     22  O   UNL     1      -4.931  12.685  24.666  0.00  0.00    +0.000 OA
ATOM     23  C   UNL     1      -4.758  13.299  23.609  0.00  0.00    +0.000 C 
ATOM     24  N   UNL     1      -5.571  14.368  23.249  0.00  0.00    +0.000 N 
ATOM     25  C   UNL     1      -6.548  14.895  24.207  0.00  0.00    +0.000 C 
ATOM     26  C   UNL     1      -7.917  15.096  23.546  0.00  0.00    +0.000 C 
ATOM     27  O   UNL     1      -7.808  15.913  22.369  0.00  0.00    +0.000 OA
ATOM     28  C   UNL     1      -6.939  15.298  21.410  0.00  0.00    +0.000 C 
ATOM     29  C   UNL     1      -5.529  15.113  21.980  0.00  0.00    +0.000 C 
ENDBRANCH   1  23
BRANCH  18  30
ATOM     30  C   UNL     1      -2.958  11.015  16.636  0.00  0.00    +0.000 A 
ATOM     31  C   UNL     1      -3.994  11.392  15.777  0.00  0.00    +0.000 A 
ATOM     32  C   UNL     1      -4.138  10.778  14.520  0.00  0.00    +0.000 A 
ATOM     33  C   UNL     1      -3.289   9.753  14.129  0.00  0.00    +0.000 A 
ATOM     34  C   UNL     1      -2.295   9.329  14.993  0.00  0.00    +0.000 A 
ATOM     35  C   UNL     1      -2.119   9.962  16.236  0.00  0.00    +0.000 A 
ENDBRANCH  18  30
TORSDOF 2
ENDMDL
