MODEL 1
REMARK VINA RESULT:      -8.8      0.000      0.000
REMARK  Name = 
REMARK  4 active torsions:
REMARK  status: ('A' for Active; 'I' for Inactive)
REMARK    1  A    between atoms: C_2  and  C_4
REMARK    2  A    between atoms: C_9  and  C_10
REMARK    3  A    between atoms: C_13  and  O_14
REMARK    4  A    between atoms: O_14  and  C_15
REMARK                            x       y       z     vdW  Elec       q    Type
REMARK                         _______ _______ _______ _____ _____    ______ ____
ROOT
ATOM      1  C   UNL     1       0.233   9.929  21.317  0.00  0.00    +0.000 A 
ATOM      2  C   UNL     1       0.037  10.694  20.045  0.00  0.00    +0.000 A 
ATOM      3  N   UNL     1       0.541  10.396  18.884  0.00  0.00    +0.000 NA
ATOM      4  C   UNL     1       1.309   9.265  18.843  0.00  0.00    +0.000 A 
ATOM      5  C   UNL     1       2.010   8.664  17.828  0.00  0.00    +0.000 A 
ATOM      6  C   UNL     1       2.614   7.517  18.401  0.00  0.00    +0.000 A 
ATOM      7  N   UNL     1       2.302   7.406  19.701  0.00  0.00    +0.000 NA
ATOM      8  N   UNL     1       1.512   8.466  19.967  0.00  0.00    +0.000 N 
ATOM      9  C   UNL     1       0.957   8.806  21.189  0.00  0.00    +0.000 A 
ENDROOT
BRANCH   6  10
ATOM     10  C   UNL     1       3.478   6.540  17.740  0.00  0.00    +0.000 A 
ATOM     11  C   UNL     1       4.631   6.954  17.056  0.00  0.00    +0.000 A 
ATOM     12  C   UNL     1       5.462   6.017  16.433  0.00  0.00    +0.000 A 
ATOM     13  C   UNL     1       5.152   4.659  16.495  0.00  0.00    +0.000 A 
ATOM     14  C   UNL     1       3.976   4.245  17.123  0.00  0.00    +0.000 A 
ATOM     15  C   UNL     1       3.160   5.177  17.769  0.00  0.00    +0.000 A 
BRANCH  13  16
ATOM     16  O   UNL     1       6.033   3.808  15.866  0.00  0.00    +0.000 OA
BRANCH  16  17
ATOM     17  C   UNL     1       6.338   3.999  14.538  0.00  0.00    +0.000 A 
ATOM     18  C   UNL     1       7.431   4.829  14.277  0.00  0.00    +0.000 A 
ATOM     19  C   UNL     1       7.816   5.089  12.962  0.00  0.00    +0.000 A 
ATOM     20  C   UNL     1       7.109   4.521  11.902  0.00  0.00    +0.000 A 
ATOM     21  C   UNL     1       6.040   3.665  12.159  0.00  0.00    +0.000 A 
ATOM     22  C   UNL     1       5.674   3.380  13.475  0.00  0.00    +0.000 A 
ENDBRANCH  16  17
ENDBRANCH  13  16
ENDBRANCH   6  10
BRANCH   1  24
ATOM     23  N   UNL     1      -0.792   9.394  23.441  0.00  0.00    +0.000 N 
ATOM     24  C   UNL     1      -0.380  10.368  22.587  0.00  0.00    +0.000 C 
ATOM     25  O   UNL     1      -0.470  11.552  22.882  0.00  0.00    +0.000 OA
ATOM     26  H   UNL     1      -1.156   9.692  24.336  0.00  0.00    +0.000 HD
ATOM     27  H   UNL     1      -0.603   8.409  23.318  0.00  0.00    +0.000 HD
ENDBRANCH   1  24
TORSDOF 4
ENDMDL
MODEL 2
REMARK VINA RESULT:      -8.7      0.594      1.489
REMARK  Name = 
REMARK  4 active torsions:
REMARK  status: ('A' for Active; 'I' for Inactive)
REMARK    1  A    between atoms: C_2  and  C_4
REMARK    2  A    between atoms: C_9  and  C_10
REMARK    3  A    between atoms: C_13  and  O_14
REMARK    4  A    between atoms: O_14  and  C_15
REMARK                            x       y       z     vdW  Elec       q    Type
REMARK                         _______ _______ _______ _____ _____    ______ ____
ROOT
ATOM      1  C   UNL     1       0.222   9.927  21.429  0.00  0.00    +0.000 A 
ATOM      2  C   UNL     1      -0.106  10.623  20.144  0.00  0.00    +0.000 A 
ATOM      3  N   UNL     1       0.337  10.306  18.964  0.00  0.00    +0.000 NA
ATOM      4  C   UNL     1       1.171   9.223  18.914  0.00  0.00    +0.000 A 
ATOM      5  C   UNL     1       1.840   8.623  17.877  0.00  0.00    +0.000 A 
ATOM      6  C   UNL     1       2.552   7.541  18.452  0.00  0.00    +0.000 A 
ATOM      7  N   UNL     1       2.335   7.467  19.773  0.00  0.00    +0.000 NA
ATOM      8  N   UNL     1       1.498   8.488  20.051  0.00  0.00    +0.000 N 
ATOM      9  C   UNL     1       1.006   8.846  21.295  0.00  0.00    +0.000 A 
ENDROOT
BRANCH   6  10
ATOM     10  C   UNL     1       3.431   6.591  17.771  0.00  0.00    +0.000 A 
ATOM     11  C   UNL     1       3.119   5.223  17.744  0.00  0.00    +0.000 A 
ATOM     12  C   UNL     1       3.955   4.317  17.083  0.00  0.00    +0.000 A 
ATOM     13  C   UNL     1       5.104   4.771  16.436  0.00  0.00    +0.000 A 
ATOM     14  C   UNL     1       5.451   6.121  16.509  0.00  0.00    +0.000 A 
ATOM     15  C   UNL     1       4.603   7.030  17.145  0.00  0.00    +0.000 A 
BRANCH  13  16
ATOM     16  O   UNL     1       5.859   3.811  15.800  0.00  0.00    +0.000 OA
BRANCH  16  17
ATOM     17  C   UNL     1       6.330   4.044  14.528  0.00  0.00    +0.000 A 
ATOM     18  C   UNL     1       5.629   3.419  13.495  0.00  0.00    +0.000 A 
ATOM     19  C   UNL     1       6.032   3.589  12.170  0.00  0.00    +0.000 A 
ATOM     20  C   UNL     1       7.139   4.383  11.874  0.00  0.00    +0.000 A 
ATOM     21  C   UNL     1       7.821   5.036  12.899  0.00  0.00    +0.000 A 
ATOM     22  C   UNL     1       7.399   4.892  14.222  0.00  0.00    +0.000 A 
ENDBRANCH  16  17
ENDBRANCH  13  16
ENDBRANCH   6  10
BRANCH   1  24
ATOM     23  N   UNL     1      -1.300  11.337  22.671  0.00  0.00    +0.000 N 
ATOM     24  C   UNL     1      -0.332  10.383  22.720  0.00  0.00    +0.000 C 
ATOM     25  O   UNL     1       0.023   9.891  23.782  0.00  0.00    +0.000 OA
ATOM     26  H   UNL     1      -1.723  11.605  23.549  0.00  0.00    +0.000 HD
ATOM     27  H   UNL     1      -1.738  11.664  21.821  0.00  0.00    +0.000 HD
ENDBRANCH   1  24
TORSDOF 4
ENDMDL
MODEL 3
REMARK VINA RESULT:      -8.2      1.290      2.438
REMARK  Name = 
REMARK  4 active torsions:
REMARK  status: ('A' for Active; 'I' for Inactive)
REMARK    1  A    between atoms: C_2  and  C_4
REMARK    2  A    between atoms: C_9  and  C_10
REMARK    3  A    between atoms: C_13  and  O_14
REMARK    4  A    between atoms: O_14  and  C_15
REMARK                            x       y       z     vdW  Elec       q    Type
REMARK                         _______ _______ _______ _____ _____    ______ ____
ROOT
ATOM      1  C   UNL     1      -0.451  10.864  19.389  0.00  0.00    +0.000 A 
ATOM      2  C   UNL     1      -0.288  10.185  20.714  0.00  0.00    +0.000 A 
ATOM      3  N   UNL     1       0.468   9.157  20.963  0.00  0.00    +0.000 NA
ATOM      4  C   UNL     1       1.182   8.675  19.900  0.00  0.00    +0.000 A 
ATOM      5  C   UNL     1       2.043   7.614  19.775  0.00  0.00    +0.000 A 
ATOM      6  C   UNL     1       2.467   7.618  18.423  0.00  0.00    +0.000 A 
ATOM      7  N   UNL     1       1.906   8.629  17.744  0.00  0.00    +0.000 NA
ATOM      8  N   UNL     1       1.126   9.268  18.641  0.00  0.00    +0.000 N 
ATOM      9  C   UNL     1       0.316  10.366  18.407  0.00  0.00    +0.000 A 
ENDROOT
BRANCH   6  10
ATOM     10  C   UNL     1       3.384   6.682  17.774  0.00  0.00    +0.000 A 
ATOM     11  C   UNL     1       3.137   5.301  17.808  0.00  0.00    +0.000 A 
ATOM     12  C   UNL     1       4.009   4.407  17.178  0.00  0.00    +0.000 A 
ATOM     13  C   UNL     1       5.129   4.886  16.500  0.00  0.00    +0.000 A 
ATOM     14  C   UNL     1       5.412   6.253  16.511  0.00  0.00    +0.000 A 
ATOM     15  C   UNL     1       4.528   7.148  17.117  0.00  0.00    +0.000 A 
BRANCH  13  16
ATOM     16  O   UNL     1       5.924   3.937  15.897  0.00  0.00    +0.000 OA
BRANCH  16  17
ATOM     17  C   UNL     1       6.373   4.137  14.612  0.00  0.00    +0.000 A 
ATOM     18  C   UNL     1       5.659   3.479  13.608  0.00  0.00    +0.000 A 
ATOM     19  C   UNL     1       6.040   3.615  12.272  0.00  0.00    +0.000 A 
ATOM     20  C   UNL     1       7.137   4.407  11.937  0.00  0.00    +0.000 A 
ATOM     21  C   UNL     1       7.831   5.093  12.932  0.00  0.00    +0.000 A 
ATOM     22  C   UNL     1       7.431   4.983  14.265  0.00  0.00    +0.000 A 
ENDBRANCH  16  17
ENDBRANCH  13  16
ENDBRANCH   6  10
BRANCH   1  24
ATOM     23  N   UNL     1      -1.733  12.324  17.949  0.00  0.00    +0.000 N 
ATOM     24  C   UNL     1      -1.351  12.023  19.219  0.00  0.00    +0.000 C 
ATOM     25  O   UNL     1      -1.775  12.654  20.177  0.00  0.00    +0.000 OA
ATOM     26  H   UNL     1      -2.397  13.078  17.837  0.00  0.00    +0.000 HD
ATOM     27  H   UNL     1      -1.540  11.747  17.142  0.00  0.00    +0.000 HD
ENDBRANCH   1  24
TORSDOF 4
ENDMDL
MODEL 4
REMARK VINA RESULT:      -8.1      2.075      3.667
REMARK  Name = 
REMARK  4 active torsions:
REMARK  status: ('A' for Active; 'I' for Inactive)
REMARK    1  A    between atoms: C_2  and  C_4
REMARK    2  A    between atoms: C_9  and  C_10
REMARK    3  A    between atoms: C_13  and  O_14
REMARK    4  A    between atoms: O_14  and  C_15
REMARK                            x       y       z     vdW  Elec       q    Type
REMARK                         _______ _______ _______ _____ _____    ______ ____
ROOT
ATOM      1  C   UNL     1      -0.853  12.422  21.319  0.00  0.00    +0.000 A 
ATOM      2  C   UNL     1      -0.796  11.844  22.699  0.00  0.00    +0.000 A 
ATOM      3  N   UNL     1      -0.290  10.693  23.030  0.00  0.00    +0.000 NA
ATOM      4  C   UNL     1       0.246   9.964  22.004  0.00  0.00    +0.000 A 
ATOM      5  C   UNL     1       0.830   8.723  21.963  0.00  0.00    +0.000 A 
ATOM      6  C   UNL     1       1.185   8.507  20.608  0.00  0.00    +0.000 A 
ATOM      7  N   UNL     1       0.846   9.558  19.847  0.00  0.00    +0.000 NA
ATOM      8  N   UNL     1       0.277  10.439  20.695  0.00  0.00    +0.000 N 
ATOM      9  C   UNL     1      -0.265  11.673  20.374  0.00  0.00    +0.000 A 
ENDROOT
BRANCH   6  10
ATOM     10  C   UNL     1       1.830   7.327  20.033  0.00  0.00    +0.000 A 
ATOM     11  C   UNL     1       2.429   7.387  18.766  0.00  0.00    +0.000 A 
ATOM     12  C   UNL     1       3.054   6.261  18.221  0.00  0.00    +0.000 A 
ATOM     13  C   UNL     1       3.094   5.068  18.942  0.00  0.00    +0.000 A 
ATOM     14  C   UNL     1       2.450   4.985  20.178  0.00  0.00    +0.000 A 
ATOM     15  C   UNL     1       1.849   6.116  20.734  0.00  0.00    +0.000 A 
BRANCH  13  16
ATOM     16  O   UNL     1       3.743   4.016  18.336  0.00  0.00    +0.000 OA
BRANCH  16  17
ATOM     17  C   UNL     1       4.925   4.235  17.666  0.00  0.00    +0.000 A 
ATOM     18  C   UNL     1       4.869   4.111  16.276  0.00  0.00    +0.000 A 
ATOM     19  C   UNL     1       6.016   4.309  15.507  0.00  0.00    +0.000 A 
ATOM     20  C   UNL     1       7.224   4.630  16.127  0.00  0.00    +0.000 A 
ATOM     21  C   UNL     1       7.277   4.788  17.510  0.00  0.00    +0.000 A 
ATOM     22  C   UNL     1       6.122   4.621  18.276  0.00  0.00    +0.000 A 
ENDBRANCH  16  17
ENDBRANCH  13  16
ENDBRANCH   6  10
BRANCH   1  24
ATOM     23  N   UNL     1      -1.684  14.069  19.756  0.00  0.00    +0.000 N 
ATOM     24  C   UNL     1      -1.464  13.741  21.057  0.00  0.00    +0.000 C 
ATOM     25  O   UNL     1      -1.804  14.484  21.967  0.00  0.00    +0.000 OA
ATOM     26  H   UNL     1      -2.158  14.945  19.578  0.00  0.00    +0.000 HD
ATOM     27  H   UNL     1      -1.567  13.435  18.979  0.00  0.00    +0.000 HD
ENDBRANCH   1  24
TORSDOF 4
ENDMDL
MODEL 5
REMARK VINA RESULT:      -8.0      3.369     10.459
REMARK  Name = 
REMARK  4 active torsions:
REMARK  status: ('A' for Active; 'I' for Inactive)
REMARK    1  A    between atoms: C_2  and  C_4
REMARK    2  A    between atoms: C_9  and  C_10
REMARK    3  A    between atoms: C_13  and  O_14
REMARK    4  A    between atoms: O_14  and  C_15
REMARK                            x       y       z     vdW  Elec       q    Type
REMARK                         _______ _______ _______ _____ _____    ______ ____
ROOT
ATOM      1  C   UNL     1       3.366   4.336  18.933  0.00  0.00    +0.000 A 
ATOM      2  C   UNL     1       3.638   5.260  17.787  0.00  0.00    +0.000 A 
ATOM      3  N   UNL     1       3.282   6.508  17.705  0.00  0.00    +0.000 NA
ATOM      4  C   UNL     1       2.607   7.004  18.786  0.00  0.00    +0.000 A 
ATOM      5  C   UNL     1       2.062   8.237  19.045  0.00  0.00    +0.000 A 
ATOM      6  C   UNL     1       1.486   8.142  20.336  0.00  0.00    +0.000 A 
ATOM      7  N   UNL     1       1.667   6.919  20.856  0.00  0.00    +0.000 NA
ATOM      8  N   UNL     1       2.346   6.231  19.915  0.00  0.00    +0.000 N 
ATOM      9  C   UNL     1       2.743   4.906  19.976  0.00  0.00    +0.000 A 
ENDROOT
BRANCH   6  10
ATOM     10  C   UNL     1       0.769   9.183  21.071  0.00  0.00    +0.000 A 
ATOM     11  C   UNL     1       0.066   8.873  22.245  0.00  0.00    +0.000 A 
ATOM     12  C   UNL     1      -0.610   9.872  22.953  0.00  0.00    +0.000 A 
ATOM     13  C   UNL     1      -0.581  11.190  22.499  0.00  0.00    +0.000 A 
ATOM     14  C   UNL     1       0.067  11.496  21.301  0.00  0.00    +0.000 A 
ATOM     15  C   UNL     1       0.765  10.504  20.608  0.00  0.00    +0.000 A 
BRANCH  13  16
ATOM     16  O   UNL     1      -1.262  12.109  23.266  0.00  0.00    +0.000 OA
BRANCH  16  17
ATOM     17  C   UNL     1      -2.580  12.391  22.987  0.00  0.00    +0.000 A 
ATOM     18  C   UNL     1      -3.425  12.503  24.093  0.00  0.00    +0.000 A 
ATOM     19  C   UNL     1      -4.781  12.782  23.914  0.00  0.00    +0.000 A 
ATOM     20  C   UNL     1      -5.296  12.945  22.629  0.00  0.00    +0.000 A 
ATOM     21  C   UNL     1      -4.449  12.867  21.524  0.00  0.00    +0.000 A 
ATOM     22  C   UNL     1      -3.087  12.620  21.705  0.00  0.00    +0.000 A 
ENDBRANCH  16  17
ENDBRANCH  13  16
ENDBRANCH   6  10
BRANCH   1  24
ATOM     23  N   UNL     1       4.929   2.625  19.622  0.00  0.00    +0.000 N 
ATOM     24  C   UNL     1       3.809   2.927  18.913  0.00  0.00    +0.000 C 
ATOM     25  O   UNL     1       3.173   2.061  18.329  0.00  0.00    +0.000 OA
ATOM     26  H   UNL     1       5.200   1.651  19.660  0.00  0.00    +0.000 HD
ATOM     27  H   UNL     1       5.403   3.266  20.244  0.00  0.00    +0.000 HD
ENDBRANCH   1  24
TORSDOF 4
ENDMDL
MODEL 6
REMARK VINA RESULT:      -8.0      2.808      9.908
REMARK  Name = 
REMARK  4 active torsions:
REMARK  status: ('A' for Active; 'I' for Inactive)
REMARK    1  A    between atoms: C_2  and  C_4
REMARK    2  A    between atoms: C_9  and  C_10
REMARK    3  A    between atoms: C_13  and  O_14
REMARK    4  A    between atoms: O_14  and  C_15
REMARK                            x       y       z     vdW  Elec       q    Type
REMARK                         _______ _______ _______ _____ _____    ______ ____
ROOT
ATOM      1  C   UNL     1       5.981   5.249  17.354  0.00  0.00    +0.000 A 
ATOM      2  C   UNL     1       5.467   4.366  18.449  0.00  0.00    +0.000 A 
ATOM      3  N   UNL     1       4.443   4.607  19.213  0.00  0.00    +0.000 NA
ATOM      4  C   UNL     1       3.781   5.778  18.965  0.00  0.00    +0.000 A 
ATOM      5  C   UNL     1       2.699   6.370  19.567  0.00  0.00    +0.000 A 
ATOM      6  C   UNL     1       2.480   7.581  18.866  0.00  0.00    +0.000 A 
ATOM      7  N   UNL     1       3.373   7.735  17.878  0.00  0.00    +0.000 NA
ATOM      8  N   UNL     1       4.161   6.641  17.939  0.00  0.00    +0.000 N 
ATOM      9  C   UNL     1       5.253   6.355  17.138  0.00  0.00    +0.000 A 
ENDROOT
BRANCH   6  10
ATOM     10  C   UNL     1       1.450   8.586  19.124  0.00  0.00    +0.000 A 
ATOM     11  C   UNL     1       0.905   8.738  20.408  0.00  0.00    +0.000 A 
ATOM     12  C   UNL     1      -0.073   9.706  20.655  0.00  0.00    +0.000 A 
ATOM     13  C   UNL     1      -0.508  10.538  19.624  0.00  0.00    +0.000 A 
ATOM     14  C   UNL     1      -0.013  10.354  18.331  0.00  0.00    +0.000 A 
ATOM     15  C   UNL     1       0.983   9.405  18.089  0.00  0.00    +0.000 A 
BRANCH  13  16
ATOM     16  O   UNL     1      -1.462  11.472  19.961  0.00  0.00    +0.000 OA
BRANCH  16  17
ATOM     17  C   UNL     1      -1.234  12.337  21.006  0.00  0.00    +0.000 A 
ATOM     18  C   UNL     1      -2.110  12.230  22.088  0.00  0.00    +0.000 A 
ATOM     19  C   UNL     1      -1.964  13.067  23.195  0.00  0.00    +0.000 A 
ATOM     20  C   UNL     1      -0.942  14.015  23.222  0.00  0.00    +0.000 A 
ATOM     21  C   UNL     1      -0.045  14.102  22.160  0.00  0.00    +0.000 A 
ATOM     22  C   UNL     1      -0.171  13.244  21.066  0.00  0.00    +0.000 A 
ENDBRANCH  16  17
ENDBRANCH  13  16
ENDBRANCH   6  10
BRANCH   1  24
ATOM     23  N   UNL     1       7.233   5.372  15.288  0.00  0.00    +0.000 N 
ATOM     24  C   UNL     1       7.166   4.878  16.553  0.00  0.00    +0.000 C 
ATOM     25  O   UNL     1       8.071   4.200  17.020  0.00  0.00    +0.000 OA
ATOM     26  H   UNL     1       8.072   5.170  14.761  0.00  0.00    +0.000 HD
ATOM     27  H   UNL     1       6.595   6.058  14.908  0.00  0.00    +0.000 HD
ENDBRANCH   1  24
TORSDOF 4
ENDMDL
MODEL 7
REMARK VINA RESULT:      -8.0      6.030      7.725
REMARK  Name = 
REMARK  4 active torsions:
REMARK  status: ('A' for Active; 'I' for Inactive)
REMARK    1  A    between atoms: C_2  and  C_4
REMARK    2  A    between atoms: C_9  and  C_10
REMARK    3  A    between atoms: C_13  and  O_14
REMARK    4  A    between atoms: O_14  and  C_15
REMARK                            x       y       z     vdW  Elec       q    Type
REMARK                         _______ _______ _______ _____ _____    ______ ____
ROOT
ATOM      1  C   UNL     1       9.604  13.567  18.238  0.00  0.00    +0.000 A 
ATOM      2  C   UNL     1      10.408  13.046  19.389  0.00  0.00    +0.000 A 
ATOM      3  N   UNL     1      10.416  11.822  19.828  0.00  0.00    +0.000 NA
ATOM      4  C   UNL     1       9.617  10.943  19.152  0.00  0.00    +0.000 A 
ATOM      5  C   UNL     1       9.351   9.609  19.336  0.00  0.00    +0.000 A 
ATOM      6  C   UNL     1       8.436   9.252  18.316  0.00  0.00    +0.000 A 
ATOM      7  N   UNL     1       8.149  10.304  17.534  0.00  0.00    +0.000 NA
ATOM      8  N   UNL     1       8.866  11.328  18.043  0.00  0.00    +0.000 N 
ATOM      9  C   UNL     1       8.881  12.638  17.594  0.00  0.00    +0.000 A 
ENDROOT
BRANCH   6  10
ATOM     10  C   UNL     1       7.831   7.942  18.079  0.00  0.00    +0.000 A 
ATOM     11  C   UNL     1       6.838   7.779  17.101  0.00  0.00    +0.000 A 
ATOM     12  C   UNL     1       6.268   6.524  16.869  0.00  0.00    +0.000 A 
ATOM     13  C   UNL     1       6.693   5.418  17.605  0.00  0.00    +0.000 A 
ATOM     14  C   UNL     1       7.638   5.583  18.619  0.00  0.00    +0.000 A 
ATOM     15  C   UNL     1       8.227   6.831  18.833  0.00  0.00    +0.000 A 
BRANCH  13  16
ATOM     16  O   UNL     1       6.088   4.219  17.299  0.00  0.00    +0.000 OA
BRANCH  16  17
ATOM     17  C   UNL     1       4.826   3.948  17.777  0.00  0.00    +0.000 A 
ATOM     18  C   UNL     1       4.741   3.658  19.141  0.00  0.00    +0.000 A 
ATOM     19  C   UNL     1       3.505   3.365  19.720  0.00  0.00    +0.000 A 
ATOM     20  C   UNL     1       2.352   3.359  18.936  0.00  0.00    +0.000 A 
ATOM     21  C   UNL     1       2.427   3.682  17.583  0.00  0.00    +0.000 A 
ATOM     22  C   UNL     1       3.659   4.006  17.010  0.00  0.00    +0.000 A 
ENDBRANCH  16  17
ENDBRANCH  13  16
ENDBRANCH   6  10
BRANCH   1  24
ATOM     23  N   UNL     1       8.497  15.563  17.440  0.00  0.00    +0.000 N 
ATOM     24  C   UNL     1       9.664  14.986  17.832  0.00  0.00    +0.000 C 
ATOM     25  O   UNL     1      10.703  15.628  17.892  0.00  0.00    +0.000 OA
ATOM     26  H   UNL     1       8.525  16.550  17.220  0.00  0.00    +0.000 HD
ATOM     27  H   UNL     1       7.589  15.127  17.518  0.00  0.00    +0.000 HD
ENDBRANCH   1  24
TORSDOF 4
ENDMDL
MODEL 8
REMARK VINA RESULT:      -7.9      1.423      2.321
REMARK  Name = 
REMARK  4 active torsions:
REMARK  status: ('A' for Active; 'I' for Inactive)
REMARK    1  A    between atoms: C_2  and  C_4
REMARK    2  A    between atoms: C_9  and  C_10
REMARK    3  A    between atoms: C_13  and  O_14
REMARK    4  A    between atoms: O_14  and  C_15
REMARK                            x       y       z     vdW  Elec       q    Type
REMARK                         _______ _______ _______ _____ _____    ______ ____
ROOT
ATOM      1  C   UNL     1      -0.560  10.829  19.213  0.00  0.00    +0.000 A 
ATOM      2  C   UNL     1      -0.304  10.263  20.575  0.00  0.00    +0.000 A 
ATOM      3  N   UNL     1       0.512   9.292  20.863  0.00  0.00    +0.000 NA
ATOM      4  C   UNL     1       1.198   8.762  19.806  0.00  0.00    +0.000 A 
ATOM      5  C   UNL     1       2.104   7.734  19.718  0.00  0.00    +0.000 A 
ATOM      6  C   UNL     1       2.464   7.651  18.351  0.00  0.00    +0.000 A 
ATOM      7  N   UNL     1       1.824   8.580  17.626  0.00  0.00    +0.000 NA
ATOM      8  N   UNL     1       1.057   9.252  18.509  0.00  0.00    +0.000 N 
ATOM      9  C   UNL     1       0.185  10.291  18.234  0.00  0.00    +0.000 A 
ENDROOT
BRANCH   6  10
ATOM     10  C   UNL     1       3.394   6.709  17.729  0.00  0.00    +0.000 A 
ATOM     11  C   UNL     1       3.132   5.330  17.747  0.00  0.00    +0.000 A 
ATOM     12  C   UNL     1       4.017   4.432  17.143  0.00  0.00    +0.000 A 
ATOM     13  C   UNL     1       5.166   4.903  16.509  0.00  0.00    +0.000 A 
ATOM     14  C   UNL     1       5.463   6.267  16.538  0.00  0.00    +0.000 A 
ATOM     15  C   UNL     1       4.566   7.168  17.117  0.00  0.00    +0.000 A 
BRANCH  13  16
ATOM     16  O   UNL     1       5.972   3.949  15.929  0.00  0.00    +0.000 OA
BRANCH  16  17
ATOM     17  C   UNL     1       6.305   4.052  14.598  0.00  0.00    +0.000 A 
ATOM     18  C   UNL     1       7.399   4.869  14.305  0.00  0.00    +0.000 A 
ATOM     19  C   UNL     1       7.812   5.042  12.984  0.00  0.00    +0.000 A 
ATOM     20  C   UNL     1       7.130   4.400  11.950  0.00  0.00    +0.000 A 
ATOM     21  C   UNL     1       6.059   3.557  12.241  0.00  0.00    +0.000 A 
ATOM     22  C   UNL     1       5.666   3.359  13.565  0.00  0.00    +0.000 A 
ENDBRANCH  16  17
ENDBRANCH  13  16
ENDBRANCH   6  10
BRANCH   1  24
ATOM     23  N   UNL     1      -1.044  13.059  18.414  0.00  0.00    +0.000 N 
ATOM     24  C   UNL     1      -1.521  11.930  19.000  0.00  0.00    +0.000 C 
ATOM     25  O   UNL     1      -2.704  11.816  19.291  0.00  0.00    +0.000 OA
ATOM     26  H   UNL     1      -1.713  13.790  18.213  0.00  0.00    +0.000 HD
ATOM     27  H   UNL     1      -0.119  13.150  18.016  0.00  0.00    +0.000 HD
ENDBRANCH   1  24
TORSDOF 4
ENDMDL
MODEL 9
REMARK VINA RESULT:      -7.9      6.026      7.776
REMARK  Name = 
REMARK  4 active torsions:
REMARK  status: ('A' for Active; 'I' for Inactive)
REMARK    1  A    between atoms: C_2  and  C_4
REMARK    2  A    between atoms: C_9  and  C_10
REMARK    3  A    between atoms: C_13  and  O_14
REMARK    4  A    between atoms: O_14  and  C_15
REMARK                            x       y       z     vdW  Elec       q    Type
REMARK                         _______ _______ _______ _____ _____    ______ ____
ROOT
ATOM      1  C   UNL     1       9.684  13.527  18.406  0.00  0.00    +0.000 A 
ATOM      2  C   UNL     1      10.511  12.937  19.505  0.00  0.00    +0.000 A 
ATOM      3  N   UNL     1      10.507  11.694  19.888  0.00  0.00    +0.000 NA
ATOM      4  C   UNL     1       9.668  10.864  19.197  0.00  0.00    +0.000 A 
ATOM      5  C   UNL     1       9.381   9.528  19.328  0.00  0.00    +0.000 A 
ATOM      6  C   UNL     1       8.427   9.237  18.322  0.00  0.00    +0.000 A 
ATOM      7  N   UNL     1       8.140  10.329  17.598  0.00  0.00    +0.000 NA
ATOM      8  N   UNL     1       8.893  11.314  18.131  0.00  0.00    +0.000 N 
ATOM      9  C   UNL     1       8.922  12.643  17.742  0.00  0.00    +0.000 A 
ENDROOT
BRANCH   6  10
ATOM     10  C   UNL     1       7.788   7.952  18.044  0.00  0.00    +0.000 A 
ATOM     11  C   UNL     1       8.181   6.795  18.735  0.00  0.00    +0.000 A 
ATOM     12  C   UNL     1       7.562   5.568  18.476  0.00  0.00    +0.000 A 
ATOM     13  C   UNL     1       6.539   5.488  17.532  0.00  0.00    +0.000 A 
ATOM     14  C   UNL     1       6.184   6.622  16.799  0.00  0.00    +0.000 A 
ATOM     15  C   UNL     1       6.783   7.853  17.076  0.00  0.00    +0.000 A 
BRANCH  13  16
ATOM     16  O   UNL     1       5.977   4.244  17.352  0.00  0.00    +0.000 OA
BRANCH  16  17
ATOM     17  C   UNL     1       4.744   3.966  17.895  0.00  0.00    +0.000 A 
ATOM     18  C   UNL     1       3.730   3.667  16.982  0.00  0.00    +0.000 A 
ATOM     19  C   UNL     1       2.442   3.376  17.434  0.00  0.00    +0.000 A 
ATOM     20  C   UNL     1       2.164   3.385  18.801  0.00  0.00    +0.000 A 
ATOM     21  C   UNL     1       3.180   3.649  19.717  0.00  0.00    +0.000 A 
ATOM     22  C   UNL     1       4.476   3.909  19.266  0.00  0.00    +0.000 A 
ENDBRANCH  16  17
ENDBRANCH  13  16
ENDBRANCH   6  10
BRANCH   1  24
ATOM     23  N   UNL     1       8.684  15.504  17.436  0.00  0.00    +0.000 N 
ATOM     24  C   UNL     1       9.761  14.961  18.063  0.00  0.00    +0.000 C 
ATOM     25  O   UNL     1      10.728  15.645  18.372  0.00  0.00    +0.000 OA
ATOM     26  H   UNL     1       8.711  16.498  17.255  0.00  0.00    +0.000 HD
ATOM     27  H   UNL     1       7.804  15.027  17.296  0.00  0.00    +0.000 HD
ENDBRANCH   1  24
TORSDOF 4
ENDMDL
