MODEL 1
REMARK VINA RESULT:      -7.6      0.000      0.000
REMARK  Name = 
REMARK  6 active torsions:
REMARK  status: ('A' for Active; 'I' for Inactive)
REMARK    1  A    between atoms: C_2  and  O_3
REMARK    2  A    between atoms: C_2  and  C_4
REMARK    3  A    between atoms: C_4  and  C_5
REMARK    4  A    between atoms: C_5  and  N_6
REMARK    5  A    between atoms: C_5  and  C_16
REMARK    6  A    between atoms: C_7  and  C_9
REMARK                            x       y       z     vdW  Elec       q    Type
REMARK                         _______ _______ _______ _____ _____    ______ ____
ROOT
ATOM      1  C   UNL     1       5.153   5.328  18.265  0.00  0.00    +0.000 C 
ENDROOT
BRANCH   1   2
ATOM      2  C   UNL     1       3.753   4.832  18.630  0.00  0.00    +0.000 A 
ATOM      3  C   UNL     1       3.183   5.146  19.870  0.00  0.00    +0.000 A 
ATOM      4  C   UNL     1       1.899   4.720  20.182  0.00  0.00    +0.000 A 
ATOM      5  C   UNL     1       1.158   3.955  19.277  0.00  0.00    +0.000 A 
ATOM      6  C   UNL     1       1.706   3.629  18.043  0.00  0.00    +0.000 A 
ATOM      7  C   UNL     1       2.989   4.069  17.724  0.00  0.00    +0.000 A 
ENDBRANCH   1   2
BRANCH   1   8
ATOM      8  N   UNL     1       5.547   4.854  16.943  0.00  0.00    +0.000 N 
ATOM      9  C   UNL     1       5.622   5.669  15.836  0.00  0.00    +0.000 C 
ATOM     10  O   UNL     1       5.330   6.862  15.836  0.00  0.00    +0.000 OA
ATOM     11  H   UNL     1       5.877   3.900  16.883  0.00  0.00    +0.000 HD
BRANCH   9  12
ATOM     12  C   UNL     1       6.095   5.056  14.573  0.00  0.00    +0.000 A 
ATOM     13  C   UNL     1       7.337   5.377  14.006  0.00  0.00    +0.000 A 
ATOM     14  C   UNL     1       7.761   4.711  12.853  0.00  0.00    +0.000 A 
ATOM     15  C   UNL     1       6.947   3.736  12.281  0.00  0.00    +0.000 A 
ATOM     16  F   UNL     1       7.372   3.082  11.192  0.00  0.00    +0.000 F 
ATOM     17  C   UNL     1       5.711   3.416  12.825  0.00  0.00    +0.000 A 
ATOM     18  C   UNL     1       5.282   4.079  13.976  0.00  0.00    +0.000 A 
ENDBRANCH   9  12
ENDBRANCH   1   8
BRANCH   1  19
ATOM     19  C   UNL     1       6.162   5.017  19.368  0.00  0.00    +0.000 C 
BRANCH  19  21
ATOM     20  O   UNL     1       7.821   6.525  18.393  0.00  0.00    +0.000 OA
ATOM     21  C   UNL     1       7.462   5.747  19.254  0.00  0.00    +0.000 C 
BRANCH  21  22
ATOM     22  O   UNL     1       8.157   5.566  20.403  0.00  0.00    +0.000 OA
ATOM     23  H   UNL     1       8.941   5.032  20.174  0.00  0.00    +0.000 HD
ENDBRANCH  21  22
ENDBRANCH  19  21
ENDBRANCH   1  19
TORSDOF 6
ENDMDL
MODEL 2
REMARK VINA RESULT:      -7.5      0.184      1.058
REMARK  Name = 
REMARK  6 active torsions:
REMARK  status: ('A' for Active; 'I' for Inactive)
REMARK    1  A    between atoms: C_2  and  O_3
REMARK    2  A    between atoms: C_2  and  C_4
REMARK    3  A    between atoms: C_4  and  C_5
REMARK    4  A    between atoms: C_5  and  N_6
REMARK    5  A    between atoms: C_5  and  C_16
REMARK    6  A    between atoms: C_7  and  C_9
REMARK                            x       y       z     vdW  Elec       q    Type
REMARK                         _______ _______ _______ _____ _____    ______ ____
ROOT
ATOM      1  C   UNL     1       5.008   5.236  18.214  0.00  0.00    +0.000 C 
ENDROOT
BRANCH   1   2
ATOM      2  C   UNL     1       3.617   4.712  18.573  0.00  0.00    +0.000 A 
ATOM      3  C   UNL     1       2.986   3.753  17.771  0.00  0.00    +0.000 A 
ATOM      4  C   UNL     1       1.737   3.257  18.120  0.00  0.00    +0.000 A 
ATOM      5  C   UNL     1       1.078   3.716  19.264  0.00  0.00    +0.000 A 
ATOM      6  C   UNL     1       1.685   4.668  20.071  0.00  0.00    +0.000 A 
ATOM      7  C   UNL     1       2.945   5.155  19.728  0.00  0.00    +0.000 A 
ENDBRANCH   1   2
BRANCH   1   8
ATOM      8  N   UNL     1       5.416   4.775  16.891  0.00  0.00    +0.000 N 
ATOM      9  C   UNL     1       5.558   5.611  15.807  0.00  0.00    +0.000 C 
ATOM     10  O   UNL     1       5.321   6.816  15.828  0.00  0.00    +0.000 OA
ATOM     11  H   UNL     1       5.704   3.808  16.817  0.00  0.00    +0.000 HD
BRANCH   9  12
ATOM     12  C   UNL     1       6.036   5.006  14.542  0.00  0.00    +0.000 A 
ATOM     13  C   UNL     1       7.284   5.324  13.987  0.00  0.00    +0.000 A 
ATOM     14  C   UNL     1       7.712   4.666  12.831  0.00  0.00    +0.000 A 
ATOM     15  C   UNL     1       6.896   3.701  12.245  0.00  0.00    +0.000 A 
ATOM     16  F   UNL     1       7.325   3.054  11.153  0.00  0.00    +0.000 F 
ATOM     17  C   UNL     1       5.654   3.385  12.777  0.00  0.00    +0.000 A 
ATOM     18  C   UNL     1       5.221   4.040  13.930  0.00  0.00    +0.000 A 
ENDBRANCH   9  12
ENDBRANCH   1   8
BRANCH   1  19
ATOM     19  C   UNL     1       6.020   4.940  19.320  0.00  0.00    +0.000 C 
BRANCH  19  21
ATOM     20  O   UNL     1       7.663   6.464  18.341  0.00  0.00    +0.000 OA
ATOM     21  C   UNL     1       7.312   5.684  19.203  0.00  0.00    +0.000 C 
BRANCH  21  22
ATOM     22  O   UNL     1       8.008   5.514  20.354  0.00  0.00    +0.000 OA
ATOM     23  H   UNL     1       7.542   6.028  21.040  0.00  0.00    +0.000 HD
ENDBRANCH  21  22
ENDBRANCH  19  21
ENDBRANCH   1  19
TORSDOF 6
ENDMDL
MODEL 3
REMARK VINA RESULT:      -7.4      2.832      6.223
REMARK  Name = 
REMARK  6 active torsions:
REMARK  status: ('A' for Active; 'I' for Inactive)
REMARK    1  A    between atoms: C_2  and  O_3
REMARK    2  A    between atoms: C_2  and  C_4
REMARK    3  A    between atoms: C_4  and  C_5
REMARK    4  A    between atoms: C_5  and  N_6
REMARK    5  A    between atoms: C_5  and  C_16
REMARK    6  A    between atoms: C_7  and  C_9
REMARK                            x       y       z     vdW  Elec       q    Type
REMARK                         _______ _______ _______ _____ _____    ______ ____
ROOT
ATOM      1  C   UNL     1       6.432   5.268  16.261  0.00  0.00    +0.000 C 
ENDROOT
BRANCH   1   2
ATOM      2  C   UNL     1       6.625   4.880  14.795  0.00  0.00    +0.000 A 
ATOM      3  C   UNL     1       7.633   5.473  14.024  0.00  0.00    +0.000 A 
ATOM      4  C   UNL     1       7.824   5.092  12.703  0.00  0.00    +0.000 A 
ATOM      5  C   UNL     1       7.006   4.126  12.110  0.00  0.00    +0.000 A 
ATOM      6  C   UNL     1       5.999   3.528  12.855  0.00  0.00    +0.000 A 
ATOM      7  C   UNL     1       5.816   3.900  14.186  0.00  0.00    +0.000 A 
ENDBRANCH   1   2
BRANCH   1   8
ATOM      8  N   UNL     1       5.206   4.689  16.798  0.00  0.00    +0.000 N 
ATOM      9  C   UNL     1       5.103   4.176  18.071  0.00  0.00    +0.000 C 
ATOM     10  O   UNL     1       6.035   4.116  18.868  0.00  0.00    +0.000 OA
ATOM     11  H   UNL     1       4.375   4.776  16.227  0.00  0.00    +0.000 HD
BRANCH   9  12
ATOM     12  C   UNL     1       3.775   3.675  18.496  0.00  0.00    +0.000 A 
ATOM     13  C   UNL     1       3.597   2.942  19.678  0.00  0.00    +0.000 A 
ATOM     14  C   UNL     1       2.310   2.560  20.065  0.00  0.00    +0.000 A 
ATOM     15  C   UNL     1       1.219   2.914  19.275  0.00  0.00    +0.000 A 
ATOM     16  F   UNL     1      -0.015   2.568  19.666  0.00  0.00    +0.000 F 
ATOM     17  C   UNL     1       1.382   3.629  18.097  0.00  0.00    +0.000 A 
ATOM     18  C   UNL     1       2.665   4.012  17.704  0.00  0.00    +0.000 A 
ENDBRANCH   9  12
ENDBRANCH   1   8
BRANCH   1  19
ATOM     19  C   UNL     1       6.551   6.779  16.460  0.00  0.00    +0.000 C 
BRANCH  19  21
ATOM     20  O   UNL     1       7.946   8.315  17.751  0.00  0.00    +0.000 OA
ATOM     21  C   UNL     1       7.543   7.199  17.496  0.00  0.00    +0.000 C 
BRANCH  21  22
ATOM     22  O   UNL     1       7.808   6.133  18.292  0.00  0.00    +0.000 OA
ATOM     23  H   UNL     1       7.639   5.336  17.755  0.00  0.00    +0.000 HD
ENDBRANCH  21  22
ENDBRANCH  19  21
ENDBRANCH   1  19
TORSDOF 6
ENDMDL
MODEL 4
REMARK VINA RESULT:      -7.4      0.663      1.635
REMARK  Name = 
REMARK  6 active torsions:
REMARK  status: ('A' for Active; 'I' for Inactive)
REMARK    1  A    between atoms: C_2  and  O_3
REMARK    2  A    between atoms: C_2  and  C_4
REMARK    3  A    between atoms: C_4  and  C_5
REMARK    4  A    between atoms: C_5  and  N_6
REMARK    5  A    between atoms: C_5  and  C_16
REMARK    6  A    between atoms: C_7  and  C_9
REMARK                            x       y       z     vdW  Elec       q    Type
REMARK                         _______ _______ _______ _____ _____    ______ ____
ROOT
ATOM      1  C   UNL     1       4.687   5.264  18.044  0.00  0.00    +0.000 C 
ENDROOT
BRANCH   1   2
ATOM      2  C   UNL     1       3.387   4.590  18.483  0.00  0.00    +0.000 A 
ATOM      3  C   UNL     1       2.901   3.465  17.807  0.00  0.00    +0.000 A 
ATOM      4  C   UNL     1       1.737   2.837  18.231  0.00  0.00    +0.000 A 
ATOM      5  C   UNL     1       1.018   3.325  19.326  0.00  0.00    +0.000 A 
ATOM      6  C   UNL     1       1.481   4.442  20.009  0.00  0.00    +0.000 A 
ATOM      7  C   UNL     1       2.657   5.063  19.592  0.00  0.00    +0.000 A 
ENDBRANCH   1   2
BRANCH   1   8
ATOM      8  N   UNL     1       5.147   4.731  16.767  0.00  0.00    +0.000 N 
ATOM      9  C   UNL     1       5.447   5.520  15.680  0.00  0.00    +0.000 C 
ATOM     10  O   UNL     1       5.322   6.742  15.658  0.00  0.00    +0.000 OA
ATOM     11  H   UNL     1       5.348   3.740  16.735  0.00  0.00    +0.000 HD
BRANCH   9  12
ATOM     12  C   UNL     1       5.959   4.840  14.467  0.00  0.00    +0.000 A 
ATOM     13  C   UNL     1       5.199   3.895  13.764  0.00  0.00    +0.000 A 
ATOM     14  C   UNL     1       5.706   3.342  12.585  0.00  0.00    +0.000 A 
ATOM     15  C   UNL     1       6.958   3.737  12.121  0.00  0.00    +0.000 A 
ATOM     16  F   UNL     1       7.426   3.224  10.975  0.00  0.00    +0.000 F 
ATOM     17  C   UNL     1       7.725   4.664  12.813  0.00  0.00    +0.000 A 
ATOM     18  C   UNL     1       7.225   5.218  13.992  0.00  0.00    +0.000 A 
ENDBRANCH   9  12
ENDBRANCH   1   8
BRANCH   1  19
ATOM     19  C   UNL     1       5.738   5.228  19.153  0.00  0.00    +0.000 C 
BRANCH  19  21
ATOM     20  O   UNL     1       7.815   6.475  18.825  0.00  0.00    +0.000 OA
ATOM     21  C   UNL     1       7.140   5.474  18.696  0.00  0.00    +0.000 C 
BRANCH  21  22
ATOM     22  O   UNL     1       7.662   4.300  18.263  0.00  0.00    +0.000 OA
ATOM     23  H   UNL     1       7.136   3.591  18.681  0.00  0.00    +0.000 HD
ENDBRANCH  21  22
ENDBRANCH  19  21
ENDBRANCH   1  19
TORSDOF 6
ENDMDL
MODEL 5
REMARK VINA RESULT:      -7.4      2.815      6.238
REMARK  Name = 
REMARK  6 active torsions:
REMARK  status: ('A' for Active; 'I' for Inactive)
REMARK    1  A    between atoms: C_2  and  O_3
REMARK    2  A    between atoms: C_2  and  C_4
REMARK    3  A    between atoms: C_4  and  C_5
REMARK    4  A    between atoms: C_5  and  N_6
REMARK    5  A    between atoms: C_5  and  C_16
REMARK    6  A    between atoms: C_7  and  C_9
REMARK                            x       y       z     vdW  Elec       q    Type
REMARK                         _______ _______ _______ _____ _____    ______ ____
ROOT
ATOM      1  C   UNL     1       6.472   5.296  16.262  0.00  0.00    +0.000 C 
ENDROOT
BRANCH   1   2
ATOM      2  C   UNL     1       6.680   4.877  14.807  0.00  0.00    +0.000 A 
ATOM      3  C   UNL     1       5.882   3.884  14.227  0.00  0.00    +0.000 A 
ATOM      4  C   UNL     1       6.054   3.530  12.895  0.00  0.00    +0.000 A 
ATOM      5  C   UNL     1       7.038   4.143  12.113  0.00  0.00    +0.000 A 
ATOM      6  C   UNL     1       7.843   5.128  12.669  0.00  0.00    +0.000 A 
ATOM      7  C   UNL     1       7.660   5.492  14.002  0.00  0.00    +0.000 A 
ENDBRANCH   1   2
BRANCH   1   8
ATOM      8  N   UNL     1       5.201   4.795  16.773  0.00  0.00    +0.000 N 
ATOM      9  C   UNL     1       5.051   4.248  18.027  0.00  0.00    +0.000 C 
ATOM     10  O   UNL     1       5.970   4.088  18.826  0.00  0.00    +0.000 OA
ATOM     11  H   UNL     1       4.384   4.965  16.202  0.00  0.00    +0.000 HD
BRANCH   9  12
ATOM     12  C   UNL     1       3.685   3.836  18.429  0.00  0.00    +0.000 A 
ATOM     13  C   UNL     1       2.543   4.257  17.734  0.00  0.00    +0.000 A 
ATOM     14  C   UNL     1       1.288   3.776  18.115  0.00  0.00    +0.000 A 
ATOM     15  C   UNL     1       1.185   2.882  19.179  0.00  0.00    +0.000 A 
ATOM     16  F   UNL     1      -0.018   2.404  19.521  0.00  0.00    +0.000 F 
ATOM     17  C   UNL     1       2.307   2.466  19.882  0.00  0.00    +0.000 A 
ATOM     18  C   UNL     1       3.563   2.944  19.507  0.00  0.00    +0.000 A 
ENDBRANCH   9  12
ENDBRANCH   1   8
BRANCH   1  19
ATOM     19  C   UNL     1       6.672   6.800  16.445  0.00  0.00    +0.000 C 
BRANCH  19  21
ATOM     20  O   UNL     1       8.020   8.281  17.847  0.00  0.00    +0.000 OA
ATOM     21  C   UNL     1       7.609   7.179  17.547  0.00  0.00    +0.000 C 
BRANCH  21  22
ATOM     22  O   UNL     1       7.801   6.094  18.337  0.00  0.00    +0.000 OA
ATOM     23  H   UNL     1       6.953   5.925  18.790  0.00  0.00    +0.000 HD
ENDBRANCH  21  22
ENDBRANCH  19  21
ENDBRANCH   1  19
TORSDOF 6
ENDMDL
MODEL 6
REMARK VINA RESULT:      -7.4      0.753      1.389
REMARK  Name = 
REMARK  6 active torsions:
REMARK  status: ('A' for Active; 'I' for Inactive)
REMARK    1  A    between atoms: C_2  and  O_3
REMARK    2  A    between atoms: C_2  and  C_4
REMARK    3  A    between atoms: C_4  and  C_5
REMARK    4  A    between atoms: C_5  and  N_6
REMARK    5  A    between atoms: C_5  and  C_16
REMARK    6  A    between atoms: C_7  and  C_9
REMARK                            x       y       z     vdW  Elec       q    Type
REMARK                         _______ _______ _______ _____ _____    ______ ____
ROOT
ATOM      1  C   UNL     1       4.449   5.330  18.035  0.00  0.00    +0.000 C 
ENDROOT
BRANCH   1   2
ATOM      2  C   UNL     1       3.241   4.526  18.518  0.00  0.00    +0.000 A 
ATOM      3  C   UNL     1       2.569   4.882  19.693  0.00  0.00    +0.000 A 
ATOM      4  C   UNL     1       1.453   4.168  20.109  0.00  0.00    +0.000 A 
ATOM      5  C   UNL     1       0.991   3.071  19.376  0.00  0.00    +0.000 A 
ATOM      6  C   UNL     1       1.644   2.700  18.209  0.00  0.00    +0.000 A 
ATOM      7  C   UNL     1       2.756   3.425  17.785  0.00  0.00    +0.000 A 
ENDBRANCH   1   2
BRANCH   1   8
ATOM      8  N   UNL     1       4.965   4.794  16.780  0.00  0.00    +0.000 N 
ATOM      9  C   UNL     1       5.367   5.584  15.727  0.00  0.00    +0.000 C 
ATOM     10  O   UNL     1       5.297   6.810  15.716  0.00  0.00    +0.000 OA
ATOM     11  H   UNL     1       5.126   3.796  16.745  0.00  0.00    +0.000 HD
BRANCH   9  12
ATOM     12  C   UNL     1       5.926   4.897  14.538  0.00  0.00    +0.000 A 
ATOM     13  C   UNL     1       5.209   3.920  13.834  0.00  0.00    +0.000 A 
ATOM     14  C   UNL     1       5.758   3.361  12.677  0.00  0.00    +0.000 A 
ATOM     15  C   UNL     1       7.009   3.783  12.235  0.00  0.00    +0.000 A 
ATOM     16  F   UNL     1       7.517   3.264  11.109  0.00  0.00    +0.000 F 
ATOM     17  C   UNL     1       7.734   4.742  12.928  0.00  0.00    +0.000 A 
ATOM     18  C   UNL     1       7.192   5.302  14.085  0.00  0.00    +0.000 A 
ENDBRANCH   9  12
ENDBRANCH   1   8
BRANCH   1  19
ATOM     19  C   UNL     1       5.500   5.476  19.134  0.00  0.00    +0.000 C 
BRANCH  19  21
ATOM     20  O   UNL     1       7.619   4.466  18.451  0.00  0.00    +0.000 OA
ATOM     21  C   UNL     1       6.916   5.435  18.656  0.00  0.00    +0.000 C 
BRANCH  21  22
ATOM     22  O   UNL     1       7.276   6.685  18.275  0.00  0.00    +0.000 OA
ATOM     23  H   UNL     1       6.580   7.002  17.668  0.00  0.00    +0.000 HD
ENDBRANCH  21  22
ENDBRANCH  19  21
ENDBRANCH   1  19
TORSDOF 6
ENDMDL
MODEL 7
REMARK VINA RESULT:      -7.4      2.817      6.286
REMARK  Name = 
REMARK  6 active torsions:
REMARK  status: ('A' for Active; 'I' for Inactive)
REMARK    1  A    between atoms: C_2  and  O_3
REMARK    2  A    between atoms: C_2  and  C_4
REMARK    3  A    between atoms: C_4  and  C_5
REMARK    4  A    between atoms: C_5  and  N_6
REMARK    5  A    between atoms: C_5  and  C_16
REMARK    6  A    between atoms: C_7  and  C_9
REMARK                            x       y       z     vdW  Elec       q    Type
REMARK                         _______ _______ _______ _____ _____    ______ ____
ROOT
ATOM      1  C   UNL     1       6.445   5.206  16.225  0.00  0.00    +0.000 C 
ENDROOT
BRANCH   1   2
ATOM      2  C   UNL     1       6.660   4.818  14.761  0.00  0.00    +0.000 A 
ATOM      3  C   UNL     1       5.868   3.835  14.157  0.00  0.00    +0.000 A 
ATOM      4  C   UNL     1       6.046   3.510  12.819  0.00  0.00    +0.000 A 
ATOM      5  C   UNL     1       7.031   4.143  12.054  0.00  0.00    +0.000 A 
ATOM      6  C   UNL     1       7.830   5.119  12.634  0.00  0.00    +0.000 A 
ATOM      7  C   UNL     1       7.640   5.454  13.974  0.00  0.00    +0.000 A 
ENDBRANCH   1   2
BRANCH   1   8
ATOM      8  N   UNL     1       5.208   4.629  16.741  0.00  0.00    +0.000 N 
ATOM      9  C   UNL     1       5.076   4.138  18.020  0.00  0.00    +0.000 C 
ATOM     10  O   UNL     1       5.989   4.096  18.841  0.00  0.00    +0.000 OA
ATOM     11  H   UNL     1       4.392   4.702  16.148  0.00  0.00    +0.000 HD
BRANCH   9  12
ATOM     12  C   UNL     1       3.741   3.637  18.421  0.00  0.00    +0.000 A 
ATOM     13  C   UNL     1       3.564   2.769  19.507  0.00  0.00    +0.000 A 
ATOM     14  C   UNL     1       2.273   2.390  19.883  0.00  0.00    +0.000 A 
ATOM     15  C   UNL     1       1.177   2.881  19.178  0.00  0.00    +0.000 A 
ATOM     16  F   UNL     1      -0.059   2.536  19.562  0.00  0.00    +0.000 F 
ATOM     17  C   UNL     1       1.338   3.732  18.094  0.00  0.00    +0.000 A 
ATOM     18  C   UNL     1       2.625   4.113  17.713  0.00  0.00    +0.000 A 
ENDBRANCH   9  12
ENDBRANCH   1   8
BRANCH   1  19
ATOM     19  C   UNL     1       6.565   6.715  16.427  0.00  0.00    +0.000 C 
BRANCH  19  21
ATOM     20  O   UNL     1       7.937   6.444  18.432  0.00  0.00    +0.000 OA
ATOM     21  C   UNL     1       7.466   7.128  17.547  0.00  0.00    +0.000 C 
BRANCH  21  22
ATOM     22  O   UNL     1       7.870   8.403  17.322  0.00  0.00    +0.000 OA
ATOM     23  H   UNL     1       8.804   8.354  17.044  0.00  0.00    +0.000 HD
ENDBRANCH  21  22
ENDBRANCH  19  21
ENDBRANCH   1  19
TORSDOF 6
ENDMDL
MODEL 8
REMARK VINA RESULT:      -7.3      3.545      6.780
REMARK  Name = 
REMARK  6 active torsions:
REMARK  status: ('A' for Active; 'I' for Inactive)
REMARK    1  A    between atoms: C_2  and  O_3
REMARK    2  A    between atoms: C_2  and  C_4
REMARK    3  A    between atoms: C_4  and  C_5
REMARK    4  A    between atoms: C_5  and  N_6
REMARK    5  A    between atoms: C_5  and  C_16
REMARK    6  A    between atoms: C_7  and  C_9
REMARK                            x       y       z     vdW  Elec       q    Type
REMARK                         _______ _______ _______ _____ _____    ______ ____
ROOT
ATOM      1  C   UNL     1       5.613   5.010  16.819  0.00  0.00    +0.000 C 
ENDROOT
BRANCH   1   2
ATOM      2  C   UNL     1       6.597   6.018  17.412  0.00  0.00    +0.000 A 
ATOM      3  C   UNL     1       6.674   7.323  16.911  0.00  0.00    +0.000 A 
ATOM      4  C   UNL     1       7.547   8.244  17.476  0.00  0.00    +0.000 A 
ATOM      5  C   UNL     1       8.378   7.883  18.540  0.00  0.00    +0.000 A 
ATOM      6  C   UNL     1       8.320   6.593  19.051  0.00  0.00    +0.000 A 
ATOM      7  C   UNL     1       7.434   5.674  18.493  0.00  0.00    +0.000 A 
ENDBRANCH   1   2
BRANCH   1   8
ATOM      8  N   UNL     1       4.811   4.385  17.865  0.00  0.00    +0.000 N 
ATOM      9  C   UNL     1       3.609   4.891  18.303  0.00  0.00    +0.000 C 
ATOM     10  O   UNL     1       3.108   5.935  17.892  0.00  0.00    +0.000 OA
ATOM     11  H   UNL     1       5.121   3.480  18.195  0.00  0.00    +0.000 HD
BRANCH   9  12
ATOM     12  C   UNL     1       2.878   4.114  19.332  0.00  0.00    +0.000 A 
ATOM     13  C   UNL     1       3.533   3.246  20.216  0.00  0.00    +0.000 A 
ATOM     14  C   UNL     1       2.801   2.596  21.214  0.00  0.00    +0.000 A 
ATOM     15  C   UNL     1       1.430   2.821  21.320  0.00  0.00    +0.000 A 
ATOM     16  F   UNL     1       0.739   2.217  22.295  0.00  0.00    +0.000 F 
ATOM     17  C   UNL     1       0.768   3.669  20.444  0.00  0.00    +0.000 A 
ATOM     18  C   UNL     1       1.494   4.319  19.445  0.00  0.00    +0.000 A 
ENDBRANCH   9  12
ENDBRANCH   1   8
BRANCH   1  19
ATOM     19  C   UNL     1       6.317   4.019  15.893  0.00  0.00    +0.000 C 
BRANCH  19  21
ATOM     20  O   UNL     1       7.629   5.279  14.261  0.00  0.00    +0.000 OA
ATOM     21  C   UNL     1       6.689   4.568  14.553  0.00  0.00    +0.000 C 
BRANCH  21  22
ATOM     22  O   UNL     1       5.907   3.977  13.617  0.00  0.00    +0.000 OA
ATOM     23  H   UNL     1       6.499   3.710  12.888  0.00  0.00    +0.000 HD
ENDBRANCH  21  22
ENDBRANCH  19  21
ENDBRANCH   1  19
TORSDOF 6
ENDMDL
MODEL 9
REMARK VINA RESULT:      -7.3      2.958      4.263
REMARK  Name = 
REMARK  6 active torsions:
REMARK  status: ('A' for Active; 'I' for Inactive)
REMARK    1  A    between atoms: C_2  and  O_3
REMARK    2  A    between atoms: C_2  and  C_4
REMARK    3  A    between atoms: C_4  and  C_5
REMARK    4  A    between atoms: C_5  and  N_6
REMARK    5  A    between atoms: C_5  and  C_16
REMARK    6  A    between atoms: C_7  and  C_9
REMARK                            x       y       z     vdW  Elec       q    Type
REMARK                         _______ _______ _______ _____ _____    ______ ____
ROOT
ATOM      1  C   UNL     1       2.930   5.623  19.561  0.00  0.00    +0.000 C 
ENDROOT
BRANCH   1   2
ATOM      2  C   UNL     1       2.267   6.999  19.639  0.00  0.00    +0.000 A 
ATOM      3  C   UNL     1       2.267   7.857  18.533  0.00  0.00    +0.000 A 
ATOM      4  C   UNL     1       1.635   9.091  18.600  0.00  0.00    +0.000 A 
ATOM      5  C   UNL     1       1.006   9.511  19.775  0.00  0.00    +0.000 A 
ATOM      6  C   UNL     1       0.997   8.677  20.885  0.00  0.00    +0.000 A 
ATOM      7  C   UNL     1       1.619   7.432  20.813  0.00  0.00    +0.000 A 
ENDBRANCH   1   2
BRANCH   1   8
ATOM      8  N   UNL     1       3.695   5.481  18.328  0.00  0.00    +0.000 N 
ATOM      9  C   UNL     1       4.916   4.848  18.261  0.00  0.00    +0.000 C 
ATOM     10  O   UNL     1       5.502   4.376  19.232  0.00  0.00    +0.000 OA
ATOM     11  H   UNL     1       3.240   5.776  17.474  0.00  0.00    +0.000 HD
BRANCH   9  12
ATOM     12  C   UNL     1       5.548   4.730  16.926  0.00  0.00    +0.000 A 
ATOM     13  C   UNL     1       4.823   4.353  15.788  0.00  0.00    +0.000 A 
ATOM     14  C   UNL     1       5.457   4.331  14.542  0.00  0.00    +0.000 A 
ATOM     15  C   UNL     1       6.800   4.686  14.447  0.00  0.00    +0.000 A 
ATOM     16  F   UNL     1       7.395   4.689  13.246  0.00  0.00    +0.000 F 
ATOM     17  C   UNL     1       7.533   5.050  15.568  0.00  0.00    +0.000 A 
ATOM     18  C   UNL     1       6.905   5.073  16.814  0.00  0.00    +0.000 A 
ENDBRANCH   9  12
ENDBRANCH   1   8
BRANCH   1  19
ATOM     19  C   UNL     1       1.920   4.501  19.804  0.00  0.00    +0.000 C 
BRANCH  19  21
ATOM     20  O   UNL     1       1.129   3.841  17.588  0.00  0.00    +0.000 OA
ATOM     21  C   UNL     1       1.693   3.598  18.635  0.00  0.00    +0.000 C 
BRANCH  21  22
ATOM     22  O   UNL     1       2.408   2.462  18.827  0.00  0.00    +0.000 OA
ATOM     23  H   UNL     1       2.354   2.257  19.780  0.00  0.00    +0.000 HD
ENDBRANCH  21  22
ENDBRANCH  19  21
ENDBRANCH   1  19
TORSDOF 6
ENDMDL
