MODEL 1
REMARK VINA RESULT:      -7.6      0.000      0.000
REMARK  Name = 
REMARK  0 active torsions:
REMARK  status: ('A' for Active; 'I' for Inactive)
REMARK                            x       y       z     vdW  Elec       q    Type
REMARK                         _______ _______ _______ _____ _____    ______ ____
ROOT
ATOM      1  O   UNL     1       4.976   5.624  19.784  0.00  0.00    +0.000 OA
ATOM      2  S   UNL     1       4.870   4.269  19.284  0.00  0.00    +0.000 S 
ATOM      3  O   UNL     1       5.598   3.171  19.889  0.00  0.00    +0.000 OA
ATOM      4  C   UNL     1       3.172   3.840  19.339  0.00  0.00    +0.000 A 
ATOM      5  C   UNL     1       2.585   3.798  20.611  0.00  0.00    +0.000 A 
ATOM      6  C   UNL     1       1.249   3.444  20.742  0.00  0.00    +0.000 A 
ATOM      7  C   UNL     1       0.510   3.138  19.603  0.00  0.00    +0.000 A 
ATOM      8  C   UNL     1       1.105   3.191  18.335  0.00  0.00    +0.000 A 
ATOM      9  C   UNL     1       2.460   3.549  18.175  0.00  0.00    +0.000 A 
ATOM     10  C   UNL     1       3.041   3.577  16.779  0.00  0.00    +0.000 C 
ATOM     11  C   UNL     1       4.482   3.991  16.571  0.00  0.00    +0.000 A 
ATOM     12  C   UNL     1       4.990   4.040  15.256  0.00  0.00    +0.000 A 
ATOM     13  C   UNL     1       6.320   4.408  15.007  0.00  0.00    +0.000 A 
ATOM     14 CL   UNL     1       6.915   4.443  13.393  0.00  0.00    +0.000 Cl
ATOM     15  C   UNL     1       7.174   4.741  16.054  0.00  0.00    +0.000 A 
ATOM     16  C   UNL     1       6.696   4.699  17.357  0.00  0.00    +0.000 A 
ATOM     17  C   UNL     1       5.367   4.321  17.601  0.00  0.00    +0.000 A 
ENDROOT
TORSDOF 0
ENDMDL
MODEL 2
REMARK VINA RESULT:      -7.5      3.256      5.628
REMARK  Name = 
REMARK  0 active torsions:
REMARK  status: ('A' for Active; 'I' for Inactive)
REMARK                            x       y       z     vdW  Elec       q    Type
REMARK                         _______ _______ _______ _____ _____    ______ ____
ROOT
ATOM      1  O   UNL     1       3.085   2.760  17.869  0.00  0.00    +0.000 OA
ATOM      2  S   UNL     1       4.067   3.714  18.341  0.00  0.00    +0.000 S 
ATOM      3  O   UNL     1       5.108   3.342  19.279  0.00  0.00    +0.000 OA
ATOM      4  C   UNL     1       4.872   4.356  16.923  0.00  0.00    +0.000 A 
ATOM      5  C   UNL     1       5.605   3.438  16.159  0.00  0.00    +0.000 A 
ATOM      6  C   UNL     1       6.291   3.872  15.032  0.00  0.00    +0.000 A 
ATOM      7  C   UNL     1       6.236   5.216  14.677  0.00  0.00    +0.000 A 
ATOM      8  C   UNL     1       5.494   6.124  15.444  0.00  0.00    +0.000 A 
ATOM      9  C   UNL     1       4.788   5.709  16.592  0.00  0.00    +0.000 A 
ATOM     10  C   UNL     1       4.014   6.743  17.379  0.00  0.00    +0.000 C 
ATOM     11  C   UNL     1       3.217   6.321  18.596  0.00  0.00    +0.000 A 
ATOM     12  C   UNL     1       2.478   7.300  19.293  0.00  0.00    +0.000 A 
ATOM     13  C   UNL     1       1.731   6.967  20.432  0.00  0.00    +0.000 A 
ATOM     14 CL   UNL     1       0.852   8.185  21.271  0.00  0.00    +0.000 Cl
ATOM     15  C   UNL     1       1.693   5.658  20.900  0.00  0.00    +0.000 A 
ATOM     16  C   UNL     1       2.414   4.678  20.230  0.00  0.00    +0.000 A 
ATOM     17  C   UNL     1       3.168   5.019  19.097  0.00  0.00    +0.000 A 
ENDROOT
TORSDOF 0
ENDMDL
MODEL 3
REMARK VINA RESULT:      -7.4      1.035      1.182
REMARK  Name = 
REMARK  0 active torsions:
REMARK  status: ('A' for Active; 'I' for Inactive)
REMARK                            x       y       z     vdW  Elec       q    Type
REMARK                         _______ _______ _______ _____ _____    ______ ____
ROOT
ATOM      1  O   UNL     1       3.512   6.996  18.517  0.00  0.00    +0.000 OA
ATOM      2  S   UNL     1       4.123   5.699  18.723  0.00  0.00    +0.000 S 
ATOM      3  O   UNL     1       5.139   5.482  19.734  0.00  0.00    +0.000 OA
ATOM      4  C   UNL     1       2.822   4.576  19.067  0.00  0.00    +0.000 A 
ATOM      5  C   UNL     1       2.091   4.815  20.238  0.00  0.00    +0.000 A 
ATOM      6  C   UNL     1       1.058   3.958  20.594  0.00  0.00    +0.000 A 
ATOM      7  C   UNL     1       0.764   2.871  19.776  0.00  0.00    +0.000 A 
ATOM      8  C   UNL     1       1.497   2.645  18.603  0.00  0.00    +0.000 A 
ATOM      9  C   UNL     1       2.549   3.501  18.220  0.00  0.00    +0.000 A 
ATOM     10  C   UNL     1       3.305   3.194  16.946  0.00  0.00    +0.000 C 
ATOM     11  C   UNL     1       4.416   4.115  16.489  0.00  0.00    +0.000 A 
ATOM     12  C   UNL     1       5.083   3.823  15.281  0.00  0.00    +0.000 A 
ATOM     13  C   UNL     1       6.127   4.637  14.815  0.00  0.00    +0.000 A 
ATOM     14 CL   UNL     1       6.932   4.246  13.346  0.00  0.00    +0.000 Cl
ATOM     15  C   UNL     1       6.526   5.760  15.532  0.00  0.00    +0.000 A 
ATOM     16  C   UNL     1       5.884   6.066  16.725  0.00  0.00    +0.000 A 
ATOM     17  C   UNL     1       4.848   5.242  17.191  0.00  0.00    +0.000 A 
ENDROOT
TORSDOF 0
ENDMDL
MODEL 4
REMARK VINA RESULT:      -6.8      2.176      2.581
REMARK  Name = 
REMARK  0 active torsions:
REMARK  status: ('A' for Active; 'I' for Inactive)
REMARK                            x       y       z     vdW  Elec       q    Type
REMARK                         _______ _______ _______ _____ _____    ______ ____
ROOT
ATOM      1  O   UNL     1       4.503   3.098  19.173  0.00  0.00    +0.000 OA
ATOM      2  S   UNL     1       3.660   3.732  18.180  0.00  0.00    +0.000 S 
ATOM      3  O   UNL     1       2.572   3.025  17.535  0.00  0.00    +0.000 OA
ATOM      4  C   UNL     1       2.960   5.148  18.940  0.00  0.00    +0.000 A 
ATOM      5  C   UNL     1       2.112   4.911  20.029  0.00  0.00    +0.000 A 
ATOM      6  C   UNL     1       1.500   5.979  20.671  0.00  0.00    +0.000 A 
ATOM      7  C   UNL     1       1.743   7.273  20.222  0.00  0.00    +0.000 A 
ATOM      8  C   UNL     1       2.599   7.500  19.137  0.00  0.00    +0.000 A 
ATOM      9  C   UNL     1       3.234   6.433  18.469  0.00  0.00    +0.000 A 
ATOM     10  C   UNL     1       4.139   6.748  17.298  0.00  0.00    +0.000 C 
ATOM     11  C   UNL     1       4.862   5.626  16.583  0.00  0.00    +0.000 A 
ATOM     12  C   UNL     1       5.726   5.950  15.516  0.00  0.00    +0.000 A 
ATOM     13  C   UNL     1       6.413   4.951  14.811  0.00  0.00    +0.000 A 
ATOM     14 CL   UNL     1       7.447   5.376  13.504  0.00  0.00    +0.000 Cl
ATOM     15  C   UNL     1       6.266   3.611  15.154  0.00  0.00    +0.000 A 
ATOM     16  C   UNL     1       5.420   3.268  16.201  0.00  0.00    +0.000 A 
ATOM     17  C   UNL     1       4.727   4.272  16.895  0.00  0.00    +0.000 A 
ENDROOT
TORSDOF 0
ENDMDL
MODEL 5
REMARK VINA RESULT:      -6.7      1.333      1.507
REMARK  Name = 
REMARK  0 active torsions:
REMARK  status: ('A' for Active; 'I' for Inactive)
REMARK                            x       y       z     vdW  Elec       q    Type
REMARK                         _______ _______ _______ _____ _____    ______ ____
ROOT
ATOM      1  O   UNL     1       5.659   6.843  18.124  0.00  0.00    +0.000 OA
ATOM      2  S   UNL     1       5.643   5.395  18.111  0.00  0.00    +0.000 S 
ATOM      3  O   UNL     1       6.570   4.612  18.905  0.00  0.00    +0.000 OA
ATOM      4  C   UNL     1       4.031   4.902  18.588  0.00  0.00    +0.000 A 
ATOM      5  C   UNL     1       3.634   5.252  19.885  0.00  0.00    +0.000 A 
ATOM      6  C   UNL     1       2.379   4.878  20.347  0.00  0.00    +0.000 A 
ATOM      7  C   UNL     1       1.531   4.161  19.509  0.00  0.00    +0.000 A 
ATOM      8  C   UNL     1       1.935   3.823  18.210  0.00  0.00    +0.000 A 
ATOM      9  C   UNL     1       3.203   4.191  17.718  0.00  0.00    +0.000 A 
ATOM     10  C   UNL     1       3.578   3.786  16.309  0.00  0.00    +0.000 C 
ATOM     11  C   UNL     1       4.919   4.197  15.739  0.00  0.00    +0.000 A 
ATOM     12  C   UNL     1       5.231   3.834  14.412  0.00  0.00    +0.000 A 
ATOM     13  C   UNL     1       6.463   4.180  13.837  0.00  0.00    +0.000 A 
ATOM     14 CL   UNL     1       6.821   3.709  12.222  0.00  0.00    +0.000 Cl
ATOM     15  C   UNL     1       7.408   4.900  14.561  0.00  0.00    +0.000 A 
ATOM     16  C   UNL     1       7.123   5.267  15.870  0.00  0.00    +0.000 A 
ATOM     17  C   UNL     1       5.893   4.909  16.443  0.00  0.00    +0.000 A 
ENDROOT
TORSDOF 0
ENDMDL
MODEL 6
REMARK VINA RESULT:      -6.7      6.416      7.329
REMARK  Name = 
REMARK  0 active torsions:
REMARK  status: ('A' for Active; 'I' for Inactive)
REMARK                            x       y       z     vdW  Elec       q    Type
REMARK                         _______ _______ _______ _____ _____    ______ ____
ROOT
ATOM      1  O   UNL     1      -0.489  10.413  18.172  0.00  0.00    +0.000 OA
ATOM      2  S   UNL     1       0.598  10.515  19.123  0.00  0.00    +0.000 S 
ATOM      3  O   UNL     1       1.584  11.576  19.047  0.00  0.00    +0.000 OA
ATOM      4  C   UNL     1      -0.129  10.617  20.715  0.00  0.00    +0.000 A 
ATOM      5  C   UNL     1      -0.926  11.743  20.961  0.00  0.00    +0.000 A 
ATOM      6  C   UNL     1      -1.519  11.908  22.205  0.00  0.00    +0.000 A 
ATOM      7  C   UNL     1      -1.314  10.948  23.191  0.00  0.00    +0.000 A 
ATOM      8  C   UNL     1      -0.521   9.822  22.932  0.00  0.00    +0.000 A 
ATOM      9  C   UNL     1       0.092   9.630  21.676  0.00  0.00    +0.000 A 
ATOM     10  C   UNL     1       0.942   8.397  21.467  0.00  0.00    +0.000 C 
ATOM     11  C   UNL     1       1.584   8.145  20.119  0.00  0.00    +0.000 A 
ATOM     12  C   UNL     1       2.345   6.971  19.941  0.00  0.00    +0.000 A 
ATOM     13  C   UNL     1       2.970   6.692  18.716  0.00  0.00    +0.000 A 
ATOM     14 CL   UNL     1       3.906   5.260  18.534  0.00  0.00    +0.000 Cl
ATOM     15  C   UNL     1       2.848   7.566  17.641  0.00  0.00    +0.000 A 
ATOM     16  C   UNL     1       2.104   8.728  17.794  0.00  0.00    +0.000 A 
ATOM     17  C   UNL     1       1.490   9.006  19.024  0.00  0.00    +0.000 A 
ENDROOT
TORSDOF 0
ENDMDL
MODEL 7
REMARK VINA RESULT:      -6.7      2.946      5.738
REMARK  Name = 
REMARK  0 active torsions:
REMARK  status: ('A' for Active; 'I' for Inactive)
REMARK                            x       y       z     vdW  Elec       q    Type
REMARK                         _______ _______ _______ _____ _____    ______ ____
ROOT
ATOM      1  O   UNL     1       7.939   4.819  17.155  0.00  0.00    +0.000 OA
ATOM      2  S   UNL     1       6.813   5.503  16.553  0.00  0.00    +0.000 S 
ATOM      3  O   UNL     1       6.764   6.948  16.444  0.00  0.00    +0.000 OA
ATOM      4  C   UNL     1       6.645   4.869  14.928  0.00  0.00    +0.000 A 
ATOM      5  C   UNL     1       7.715   5.108  14.056  0.00  0.00    +0.000 A 
ATOM      6  C   UNL     1       7.649   4.658  12.744  0.00  0.00    +0.000 A 
ATOM      7  C   UNL     1       6.517   3.971  12.316  0.00  0.00    +0.000 A 
ATOM      8  C   UNL     1       5.456   3.730  13.199  0.00  0.00    +0.000 A 
ATOM      9  C   UNL     1       5.499   4.176  14.536  0.00  0.00    +0.000 A 
ATOM     10  C   UNL     1       4.314   3.890  15.432  0.00  0.00    +0.000 C 
ATOM     11  C   UNL     1       4.345   4.325  16.882  0.00  0.00    +0.000 A 
ATOM     12  C   UNL     1       3.242   4.017  17.705  0.00  0.00    +0.000 A 
ATOM     13  C   UNL     1       3.213   4.404  19.053  0.00  0.00    +0.000 A 
ATOM     14 CL   UNL     1       1.846   4.028  20.027  0.00  0.00    +0.000 Cl
ATOM     15  C   UNL     1       4.280   5.097  19.616  0.00  0.00    +0.000 A 
ATOM     16  C   UNL     1       5.377   5.412  18.824  0.00  0.00    +0.000 A 
ATOM     17  C   UNL     1       5.395   5.031  17.474  0.00  0.00    +0.000 A 
ENDROOT
TORSDOF 0
ENDMDL
MODEL 8
REMARK VINA RESULT:      -6.6      2.797      3.060
REMARK  Name = 
REMARK  0 active torsions:
REMARK  status: ('A' for Active; 'I' for Inactive)
REMARK                            x       y       z     vdW  Elec       q    Type
REMARK                         _______ _______ _______ _____ _____    ______ ____
ROOT
ATOM      1  O   UNL     1       3.922   4.121  20.058  0.00  0.00    +0.000 OA
ATOM      2  S   UNL     1       3.089   4.561  18.958  0.00  0.00    +0.000 S 
ATOM      3  O   UNL     1       1.964   3.776  18.488  0.00  0.00    +0.000 OA
ATOM      4  C   UNL     1       2.455   6.134  19.400  0.00  0.00    +0.000 A 
ATOM      5  C   UNL     1       1.615   6.170  20.521  0.00  0.00    +0.000 A 
ATOM      6  C   UNL     1       1.054   7.376  20.923  0.00  0.00    +0.000 A 
ATOM      7  C   UNL     1       1.339   8.533  20.204  0.00  0.00    +0.000 A 
ATOM      8  C   UNL     1       2.187   8.486  19.089  0.00  0.00    +0.000 A 
ATOM      9  C   UNL     1       2.769   7.275  18.661  0.00  0.00    +0.000 A 
ATOM     10  C   UNL     1       3.667   7.294  17.444  0.00  0.00    +0.000 C 
ATOM     11  C   UNL     1       4.336   6.017  16.981  0.00  0.00    +0.000 A 
ATOM     12  C   UNL     1       5.194   6.069  15.863  0.00  0.00    +0.000 A 
ATOM     13  C   UNL     1       5.831   4.914  15.385  0.00  0.00    +0.000 A 
ATOM     14 CL   UNL     1       6.860   5.006  14.010  0.00  0.00    +0.000 Cl
ATOM     15  C   UNL     1       5.639   3.686  16.010  0.00  0.00    +0.000 A 
ATOM     16  C   UNL     1       4.797   3.611  17.112  0.00  0.00    +0.000 A 
ATOM     17  C   UNL     1       4.154   4.768  17.579  0.00  0.00    +0.000 A 
ENDROOT
TORSDOF 0
ENDMDL
MODEL 9
REMARK VINA RESULT:      -6.6      2.175      2.894
REMARK  Name = 
REMARK  0 active torsions:
REMARK  status: ('A' for Active; 'I' for Inactive)
REMARK                            x       y       z     vdW  Elec       q    Type
REMARK                         _______ _______ _______ _____ _____    ______ ____
ROOT
ATOM      1  O   UNL     1       4.045   1.822  17.461  0.00  0.00    +0.000 OA
ATOM      2  S   UNL     1       3.357   3.095  17.521  0.00  0.00    +0.000 S 
ATOM      3  O   UNL     1       2.331   3.457  16.562  0.00  0.00    +0.000 OA
ATOM      4  C   UNL     1       2.622   3.201  19.108  0.00  0.00    +0.000 A 
ATOM      5  C   UNL     1       1.636   2.249  19.399  0.00  0.00    +0.000 A 
ATOM      6  C   UNL     1       0.990   2.279  20.628  0.00  0.00    +0.000 A 
ATOM      7  C   UNL     1       1.336   3.257  21.555  0.00  0.00    +0.000 A 
ATOM      8  C   UNL     1       2.329   4.199  21.257  0.00  0.00    +0.000 A 
ATOM      9  C   UNL     1       3.001   4.190  20.017  0.00  0.00    +0.000 A 
ATOM     10  C   UNL     1       4.056   5.242  19.757  0.00  0.00    +0.000 C 
ATOM     11  C   UNL     1       4.819   5.236  18.450  0.00  0.00    +0.000 A 
ATOM     12  C   UNL     1       5.821   6.208  18.246  0.00  0.00    +0.000 A 
ATOM     13  C   UNL     1       6.552   6.255  17.050  0.00  0.00    +0.000 A 
ATOM     14 CL   UNL     1       7.756   7.463  16.824  0.00  0.00    +0.000 Cl
ATOM     15  C   UNL     1       6.312   5.336  16.034  0.00  0.00    +0.000 A 
ATOM     16  C   UNL     1       5.330   4.370  16.212  0.00  0.00    +0.000 A 
ATOM     17  C   UNL     1       4.595   4.335  17.407  0.00  0.00    +0.000 A 
ENDROOT
TORSDOF 0
ENDMDL
