MODEL 1
REMARK VINA RESULT:      -7.6      0.000      0.000
REMARK  Name = 
REMARK  6 active torsions:
REMARK  status: ('A' for Active; 'I' for Inactive)
REMARK    1  A    between atoms: C_1  and  O_2
REMARK    2  A    between atoms: O_2  and  C_3
REMARK    3  A    between atoms: C_6  and  N_7
REMARK    4  A    between atoms: N_7  and  C_8
REMARK    5  A    between atoms: N_7  and  C_9
REMARK    6  A    between atoms: C_21  and  N_22
REMARK                            x       y       z     vdW  Elec       q    Type
REMARK                         _______ _______ _______ _____ _____    ______ ____
ROOT
ATOM      1  N   UNL     1       3.399   5.332  18.458  0.00  0.00    +0.000 N 
ATOM      2  C   UNL     1       2.606   4.100  18.593  0.00  0.00    +0.000 C 
ENDROOT
BRANCH   1   3
ATOM      3  C   UNL     1       4.801   5.231  18.357  0.00  0.00    +0.000 A 
ATOM      4  C   UNL     1       5.629   5.370  19.410  0.00  0.00    +0.000 A 
ATOM      5  C   UNL     1       7.096   5.302  19.312  0.00  0.00    +0.000 A 
ATOM      6  O   UNL     1       7.792   5.425  20.317  0.00  0.00    +0.000 OA
ATOM      7  O   UNL     1       7.635   5.103  18.061  0.00  0.00    +0.000 OA
ATOM      8  C   UNL     1       6.806   4.921  16.938  0.00  0.00    +0.000 A 
ATOM      9  C   UNL     1       7.456   4.698  15.721  0.00  0.00    +0.000 A 
ATOM     10  C   UNL     1       6.703   4.477  14.570  0.00  0.00    +0.000 A 
ATOM     11  C   UNL     1       5.315   4.506  14.645  0.00  0.00    +0.000 A 
ATOM     12  C   UNL     1       4.679   4.774  15.862  0.00  0.00    +0.000 A 
ATOM     13  C   UNL     1       5.415   4.965  17.039  0.00  0.00    +0.000 A 
ENDBRANCH   1   3
BRANCH   1  17
ATOM     14  C   UNL     1       1.502   9.101  19.115  0.00  0.00    +0.000 A 
ATOM     15  C   UNL     1       2.073   8.784  17.887  0.00  0.00    +0.000 A 
ATOM     16  C   UNL     1       2.692   7.543  17.695  0.00  0.00    +0.000 A 
ATOM     17  C   UNL     1       2.770   6.579  18.716  0.00  0.00    +0.000 A 
ATOM     18  C   UNL     1       2.192   6.926  19.951  0.00  0.00    +0.000 A 
ATOM     19  C   UNL     1       1.598   8.186  20.177  0.00  0.00    +0.000 A 
BRANCH  19  20
ATOM     20  N   UNL     1       0.898   8.415  21.382  0.00  0.00    +0.000 N 
ATOM     21  H   UNL     1       1.407   8.976  22.056  0.00  0.00    +0.000 HD
ATOM     22  H   UNL     1      -0.039   8.768  21.193  0.00  0.00    +0.000 HD
ENDBRANCH  19  20
BRANCH  14  24
ATOM     23  C   UNL     1      -0.351  10.485  18.671  0.00  0.00    +0.000 C 
ATOM     24  O   UNL     1       0.875  10.298  19.377  0.00  0.00    +0.000 OA
ENDBRANCH  14  24
ENDBRANCH   1  17
TORSDOF 4
ENDMDL
MODEL 2
REMARK VINA RESULT:      -7.6      1.051      1.460
REMARK  Name = 
REMARK  6 active torsions:
REMARK  status: ('A' for Active; 'I' for Inactive)
REMARK    1  A    between atoms: C_1  and  O_2
REMARK    2  A    between atoms: O_2  and  C_3
REMARK    3  A    between atoms: C_6  and  N_7
REMARK    4  A    between atoms: N_7  and  C_8
REMARK    5  A    between atoms: N_7  and  C_9
REMARK    6  A    between atoms: C_21  and  N_22
REMARK                            x       y       z     vdW  Elec       q    Type
REMARK                         _______ _______ _______ _____ _____    ______ ____
ROOT
ATOM      1  N   UNL     1       3.338   5.338  18.345  0.00  0.00    +0.000 N 
ATOM      2  C   UNL     1       2.536   4.107  18.263  0.00  0.00    +0.000 C 
ENDROOT
BRANCH   1   3
ATOM      3  C   UNL     1       4.743   5.241  18.274  0.00  0.00    +0.000 A 
ATOM      4  C   UNL     1       5.547   5.386  19.344  0.00  0.00    +0.000 A 
ATOM      5  C   UNL     1       7.016   5.322  19.279  0.00  0.00    +0.000 A 
ATOM      6  O   UNL     1       7.690   5.451  20.299  0.00  0.00    +0.000 OA
ATOM      7  O   UNL     1       7.583   5.121  18.041  0.00  0.00    +0.000 OA
ATOM      8  C   UNL     1       6.779   4.934  16.900  0.00  0.00    +0.000 A 
ATOM      9  C   UNL     1       7.457   4.709  15.698  0.00  0.00    +0.000 A 
ATOM     10  C   UNL     1       6.729   4.483  14.532  0.00  0.00    +0.000 A 
ATOM     11  C   UNL     1       5.340   4.507  14.577  0.00  0.00    +0.000 A 
ATOM     12  C   UNL     1       4.677   4.777  15.778  0.00  0.00    +0.000 A 
ATOM     13  C   UNL     1       5.386   4.974  16.971  0.00  0.00    +0.000 A 
ENDBRANCH   1   3
BRANCH   1  17
ATOM     14  C   UNL     1       1.452   8.906  19.740  0.00  0.00    +0.000 A 
ATOM     15  C   UNL     1       1.590   7.793  20.563  0.00  0.00    +0.000 A 
ATOM     16  C   UNL     1       2.210   6.632  20.084  0.00  0.00    +0.000 A 
ATOM     17  C   UNL     1       2.707   6.536  18.771  0.00  0.00    +0.000 A 
ATOM     18  C   UNL     1       2.548   7.673  17.956  0.00  0.00    +0.000 A 
ATOM     19  C   UNL     1       1.893   8.837  18.408  0.00  0.00    +0.000 A 
BRANCH  19  20
ATOM     20  N   UNL     1       1.904   9.995  17.600  0.00  0.00    +0.000 N 
ATOM     21  H   UNL     1       2.564  10.704  17.901  0.00  0.00    +0.000 HD
ATOM     22  H   UNL     1       2.004   9.748  16.617  0.00  0.00    +0.000 HD
ENDBRANCH  19  20
BRANCH  14  24
ATOM     23  C   UNL     1      -0.451   9.920  20.686  0.00  0.00    +0.000 C 
ATOM     24  O   UNL     1       0.858  10.081  20.142  0.00  0.00    +0.000 OA
ENDBRANCH  14  24
ENDBRANCH   1  17
TORSDOF 4
ENDMDL
MODEL 3
REMARK VINA RESULT:      -7.3      2.797      6.739
REMARK  Name = 
REMARK  6 active torsions:
REMARK  status: ('A' for Active; 'I' for Inactive)
REMARK    1  A    between atoms: C_1  and  O_2
REMARK    2  A    between atoms: O_2  and  C_3
REMARK    3  A    between atoms: C_6  and  N_7
REMARK    4  A    between atoms: N_7  and  C_8
REMARK    5  A    between atoms: N_7  and  C_9
REMARK    6  A    between atoms: C_21  and  N_22
REMARK                            x       y       z     vdW  Elec       q    Type
REMARK                         _______ _______ _______ _____ _____    ______ ____
ROOT
ATOM      1  N   UNL     1       5.867   5.538  17.807  0.00  0.00    +0.000 N 
ATOM      2  C   UNL     1       6.989   5.440  18.754  0.00  0.00    +0.000 C 
ENDROOT
BRANCH   1   3
ATOM      3  C   UNL     1       4.578   5.814  18.305  0.00  0.00    +0.000 A 
ATOM      4  C   UNL     1       3.919   6.961  18.054  0.00  0.00    +0.000 A 
ATOM      5  C   UNL     1       2.587   7.276  18.596  0.00  0.00    +0.000 A 
ATOM      6  O   UNL     1       2.037   8.338  18.315  0.00  0.00    +0.000 OA
ATOM      7  O   UNL     1       2.005   6.340  19.421  0.00  0.00    +0.000 OA
ATOM      8  C   UNL     1       2.645   5.113  19.685  0.00  0.00    +0.000 A 
ATOM      9  C   UNL     1       1.954   4.223  20.512  0.00  0.00    +0.000 A 
ATOM     10  C   UNL     1       2.509   2.977  20.794  0.00  0.00    +0.000 A 
ATOM     11  C   UNL     1       3.751   2.646  20.267  0.00  0.00    +0.000 A 
ATOM     12  C   UNL     1       4.450   3.564  19.477  0.00  0.00    +0.000 A 
ATOM     13  C   UNL     1       3.899   4.811  19.151  0.00  0.00    +0.000 A 
ENDBRANCH   1   3
BRANCH   1  17
ATOM     14  C   UNL     1       6.324   4.119  13.805  0.00  0.00    +0.000 A 
ATOM     15  C   UNL     1       5.304   3.650  14.626  0.00  0.00    +0.000 A 
ATOM     16  C   UNL     1       5.175   4.127  15.936  0.00  0.00    +0.000 A 
ATOM     17  C   UNL     1       6.056   5.081  16.475  0.00  0.00    +0.000 A 
ATOM     18  C   UNL     1       7.084   5.535  15.628  0.00  0.00    +0.000 A 
ATOM     19  C   UNL     1       7.254   5.038  14.319  0.00  0.00    +0.000 A 
BRANCH  19  20
ATOM     20  N   UNL     1       8.203   5.644  13.466  0.00  0.00    +0.000 N 
ATOM     21  H   UNL     1       9.159   5.354  13.637  0.00  0.00    +0.000 HD
ATOM     22  H   UNL     1       7.924   5.550  12.491  0.00  0.00    +0.000 HD
ENDBRANCH  19  20
BRANCH  14  24
ATOM     23  C   UNL     1       5.364   3.093  11.916  0.00  0.00    +0.000 C 
ATOM     24  O   UNL     1       6.512   3.699  12.507  0.00  0.00    +0.000 OA
ENDBRANCH  14  24
ENDBRANCH   1  17
TORSDOF 4
ENDMDL
MODEL 4
REMARK VINA RESULT:      -7.1      2.957      6.643
REMARK  Name = 
REMARK  6 active torsions:
REMARK  status: ('A' for Active; 'I' for Inactive)
REMARK    1  A    between atoms: C_1  and  O_2
REMARK    2  A    between atoms: O_2  and  C_3
REMARK    3  A    between atoms: C_6  and  N_7
REMARK    4  A    between atoms: N_7  and  C_8
REMARK    5  A    between atoms: N_7  and  C_9
REMARK    6  A    between atoms: C_21  and  N_22
REMARK                            x       y       z     vdW  Elec       q    Type
REMARK                         _______ _______ _______ _____ _____    ______ ____
ROOT
ATOM      1  N   UNL     1       6.378   4.950  17.692  0.00  0.00    +0.000 N 
ATOM      2  C   UNL     1       7.642   5.098  18.430  0.00  0.00    +0.000 C 
ENDROOT
BRANCH   1   3
ATOM      3  C   UNL     1       5.178   4.810  18.418  0.00  0.00    +0.000 A 
ATOM      4  C   UNL     1       4.904   3.743  19.193  0.00  0.00    +0.000 A 
ATOM      5  C   UNL     1       3.642   3.568  19.928  0.00  0.00    +0.000 A 
ATOM      6  O   UNL     1       3.463   2.574  20.629  0.00  0.00    +0.000 OA
ATOM      7  O   UNL     1       2.689   4.552  19.788  0.00  0.00    +0.000 OA
ATOM      8  C   UNL     1       2.945   5.699  19.012  0.00  0.00    +0.000 A 
ATOM      9  C   UNL     1       1.921   6.649  18.960  0.00  0.00    +0.000 A 
ATOM     10  C   UNL     1       2.112   7.826  18.239  0.00  0.00    +0.000 A 
ATOM     11  C   UNL     1       3.310   8.026  17.562  0.00  0.00    +0.000 A 
ATOM     12  C   UNL     1       4.308   7.047  17.588  0.00  0.00    +0.000 A 
ATOM     13  C   UNL     1       4.153   5.871  18.334  0.00  0.00    +0.000 A 
ENDBRANCH   1   3
BRANCH   1  17
ATOM     14  C   UNL     1       6.424   4.064  13.515  0.00  0.00    +0.000 A 
ATOM     15  C   UNL     1       5.502   3.467  14.370  0.00  0.00    +0.000 A 
ATOM     16  C   UNL     1       5.507   3.771  15.736  0.00  0.00    +0.000 A 
ATOM     17  C   UNL     1       6.430   4.670  16.300  0.00  0.00    +0.000 A 
ATOM     18  C   UNL     1       7.356   5.254  15.416  0.00  0.00    +0.000 A 
ATOM     19  C   UNL     1       7.393   4.932  14.043  0.00  0.00    +0.000 A 
BRANCH  19  20
ATOM     20  N   UNL     1       8.238   5.666  13.183  0.00  0.00    +0.000 N 
ATOM     21  H   UNL     1       7.821   6.514  12.816  0.00  0.00    +0.000 HD
ATOM     22  H   UNL     1       9.147   5.822  13.617  0.00  0.00    +0.000 HD
ENDBRANCH  19  20
BRANCH  14  24
ATOM     23  C   UNL     1       5.702   2.697  11.739  0.00  0.00    +0.000 C 
ATOM     24  O   UNL     1       6.477   3.816  12.161  0.00  0.00    +0.000 OA
ENDBRANCH  14  24
ENDBRANCH   1  17
TORSDOF 4
ENDMDL
MODEL 5
REMARK VINA RESULT:      -7.0      2.644      6.129
REMARK  Name = 
REMARK  6 active torsions:
REMARK  status: ('A' for Active; 'I' for Inactive)
REMARK    1  A    between atoms: C_1  and  O_2
REMARK    2  A    between atoms: O_2  and  C_3
REMARK    3  A    between atoms: C_6  and  N_7
REMARK    4  A    between atoms: N_7  and  C_8
REMARK    5  A    between atoms: N_7  and  C_9
REMARK    6  A    between atoms: C_21  and  N_22
REMARK                            x       y       z     vdW  Elec       q    Type
REMARK                         _______ _______ _______ _____ _____    ______ ____
ROOT
ATOM      1  N   UNL     1       3.452   3.296  17.822  0.00  0.00    +0.000 N 
ATOM      2  C   UNL     1       2.593   2.302  17.159  0.00  0.00    +0.000 C 
ENDROOT
BRANCH   1   3
ATOM      3  C   UNL     1       3.003   3.896  19.016  0.00  0.00    +0.000 A 
ATOM      4  C   UNL     1       2.843   3.217  20.168  0.00  0.00    +0.000 A 
ATOM      5  C   UNL     1       2.343   3.823  21.412  0.00  0.00    +0.000 A 
ATOM      6  O   UNL     1       2.234   3.146  22.433  0.00  0.00    +0.000 OA
ATOM      7  O   UNL     1       2.005   5.156  21.372  0.00  0.00    +0.000 OA
ATOM      8  C   UNL     1       2.184   5.912  20.197  0.00  0.00    +0.000 A 
ATOM      9  C   UNL     1       1.835   7.263  20.274  0.00  0.00    +0.000 A 
ATOM     10  C   UNL     1       2.015   8.082  19.162  0.00  0.00    +0.000 A 
ATOM     11  C   UNL     1       2.516   7.538  17.985  0.00  0.00    +0.000 A 
ATOM     12  C   UNL     1       2.819   6.175  17.911  0.00  0.00    +0.000 A 
ATOM     13  C   UNL     1       2.679   5.338  19.026  0.00  0.00    +0.000 A 
ENDBRANCH   1   3
BRANCH   1  17
ATOM     14  C   UNL     1       6.708   4.906  15.576  0.00  0.00    +0.000 A 
ATOM     15  C   UNL     1       5.552   4.452  14.949  0.00  0.00    +0.000 A 
ATOM     16  C   UNL     1       4.498   3.926  15.705  0.00  0.00    +0.000 A 
ATOM     17  C   UNL     1       4.558   3.827  17.107  0.00  0.00    +0.000 A 
ATOM     18  C   UNL     1       5.741   4.286  17.717  0.00  0.00    +0.000 A 
ATOM     19  C   UNL     1       6.829   4.783  16.970  0.00  0.00    +0.000 A 
BRANCH  19  20
ATOM     20  N   UNL     1       7.920   5.372  17.646  0.00  0.00    +0.000 N 
ATOM     21  H   UNL     1       7.711   6.270  18.066  0.00  0.00    +0.000 HD
ATOM     22  H   UNL     1       8.338   4.711  18.300  0.00  0.00    +0.000 HD
ENDBRANCH  19  20
BRANCH  14  24
ATOM     23  C   UNL     1       7.758   5.215  13.491  0.00  0.00    +0.000 C 
ATOM     24  O   UNL     1       7.782   5.438  14.900  0.00  0.00    +0.000 OA
ENDBRANCH  14  24
ENDBRANCH   1  17
TORSDOF 4
ENDMDL
MODEL 6
REMARK VINA RESULT:      -7.0      2.987      6.897
REMARK  Name = 
REMARK  6 active torsions:
REMARK  status: ('A' for Active; 'I' for Inactive)
REMARK    1  A    between atoms: C_1  and  O_2
REMARK    2  A    between atoms: O_2  and  C_3
REMARK    3  A    between atoms: C_6  and  N_7
REMARK    4  A    between atoms: N_7  and  C_8
REMARK    5  A    between atoms: N_7  and  C_9
REMARK    6  A    between atoms: C_21  and  N_22
REMARK                            x       y       z     vdW  Elec       q    Type
REMARK                         _______ _______ _______ _____ _____    ______ ____
ROOT
ATOM      1  N   UNL     1       5.807   5.096  17.262  0.00  0.00    +0.000 N 
ATOM      2  C   UNL     1       6.768   4.720  18.310  0.00  0.00    +0.000 C 
ENDROOT
BRANCH   1   3
ATOM      3  C   UNL     1       4.491   5.436  17.635  0.00  0.00    +0.000 A 
ATOM      4  C   UNL     1       4.044   6.705  17.689  0.00  0.00    +0.000 A 
ATOM      5  C   UNL     1       2.683   7.076  18.110  0.00  0.00    +0.000 A 
ATOM      6  O   UNL     1       2.337   8.255  18.124  0.00  0.00    +0.000 OA
ATOM      7  O   UNL     1       1.839   6.055  18.485  0.00  0.00    +0.000 OA
ATOM      8  C   UNL     1       2.255   4.712  18.415  0.00  0.00    +0.000 A 
ATOM      9  C   UNL     1       1.311   3.753  18.792  0.00  0.00    +0.000 A 
ATOM     10  C   UNL     1       1.638   2.401  18.719  0.00  0.00    +0.000 A 
ATOM     11  C   UNL     1       2.907   2.026  18.294  0.00  0.00    +0.000 A 
ATOM     12  C   UNL     1       3.856   2.999  17.962  0.00  0.00    +0.000 A 
ATOM     13  C   UNL     1       3.540   4.363  17.995  0.00  0.00    +0.000 A 
ENDBRANCH   1   3
BRANCH   1  17
ATOM     14  C   UNL     1       6.697   4.272  13.167  0.00  0.00    +0.000 A 
ATOM     15  C   UNL     1       5.588   3.712  13.792  0.00  0.00    +0.000 A 
ATOM     16  C   UNL     1       5.316   3.994  15.136  0.00  0.00    +0.000 A 
ATOM     17  C   UNL     1       6.140   4.835  15.906  0.00  0.00    +0.000 A 
ATOM     18  C   UNL     1       7.260   5.384  15.253  0.00  0.00    +0.000 A 
ATOM     19  C   UNL     1       7.572   5.081  13.911  0.00  0.00    +0.000 A 
BRANCH  19  20
ATOM     20  N   UNL     1       8.615   5.783  13.269  0.00  0.00    +0.000 N 
ATOM     21  H   UNL     1       9.489   5.272  13.219  0.00  0.00    +0.000 HD
ATOM     22  H   UNL     1       8.307   6.139  12.365  0.00  0.00    +0.000 HD
ENDBRANCH  19  20
BRANCH  14  24
ATOM     23  C   UNL     1       6.949   2.675  11.456  0.00  0.00    +0.000 C 
ATOM     24  O   UNL     1       7.025   4.044  11.850  0.00  0.00    +0.000 OA
ENDBRANCH  14  24
ENDBRANCH   1  17
TORSDOF 4
ENDMDL
MODEL 7
REMARK VINA RESULT:      -6.9      1.537      1.882
REMARK  Name = 
REMARK  6 active torsions:
REMARK  status: ('A' for Active; 'I' for Inactive)
REMARK    1  A    between atoms: C_1  and  O_2
REMARK    2  A    between atoms: O_2  and  C_3
REMARK    3  A    between atoms: C_6  and  N_7
REMARK    4  A    between atoms: N_7  and  C_8
REMARK    5  A    between atoms: N_7  and  C_9
REMARK    6  A    between atoms: C_21  and  N_22
REMARK                            x       y       z     vdW  Elec       q    Type
REMARK                         _______ _______ _______ _____ _____    ______ ____
ROOT
ATOM      1  N   UNL     1       3.749   5.524  17.843  0.00  0.00    +0.000 N 
ATOM      2  C   UNL     1       3.233   4.151  17.954  0.00  0.00    +0.000 C 
ENDROOT
BRANCH   1   3
ATOM      3  C   UNL     1       5.086   5.719  17.440  0.00  0.00    +0.000 A 
ATOM      4  C   UNL     1       5.991   6.381  18.185  0.00  0.00    +0.000 A 
ATOM      5  C   UNL     1       7.380   6.622  17.761  0.00  0.00    +0.000 A 
ATOM      6  O   UNL     1       8.159   7.224  18.497  0.00  0.00    +0.000 OA
ATOM      7  O   UNL     1       7.751   6.152  16.522  0.00  0.00    +0.000 OA
ATOM      8  C   UNL     1       6.845   5.427  15.723  0.00  0.00    +0.000 A 
ATOM      9  C   UNL     1       7.334   4.972  14.495  0.00  0.00    +0.000 A 
ATOM     10  C   UNL     1       6.507   4.220  13.664  0.00  0.00    +0.000 A 
ATOM     11  C   UNL     1       5.200   3.954  14.058  0.00  0.00    +0.000 A 
ATOM     12  C   UNL     1       4.713   4.454  15.270  0.00  0.00    +0.000 A 
ATOM     13  C   UNL     1       5.536   5.183  16.139  0.00  0.00    +0.000 A 
ENDBRANCH   1   3
BRANCH   1  17
ATOM     14  C   UNL     1       1.491   8.667  19.649  0.00  0.00    +0.000 A 
ATOM     15  C   UNL     1       1.776   7.494  20.339  0.00  0.00    +0.000 A 
ATOM     16  C   UNL     1       2.516   6.475  19.726  0.00  0.00    +0.000 A 
ATOM     17  C   UNL     1       2.991   6.585  18.407  0.00  0.00    +0.000 A 
ATOM     18  C   UNL     1       2.684   7.778  17.728  0.00  0.00    +0.000 A 
ATOM     19  C   UNL     1       1.908   8.800  18.314  0.00  0.00    +0.000 A 
BRANCH  19  20
ATOM     20  N   UNL     1       1.767  10.034  17.642  0.00  0.00    +0.000 N 
ATOM     21  H   UNL     1       1.119  10.676  18.085  0.00  0.00    +0.000 HD
ATOM     22  H   UNL     1       2.678  10.449  17.456  0.00  0.00    +0.000 HD
ENDBRANCH  19  20
BRANCH  14  24
ATOM     23  C   UNL     1       0.621   9.651  21.603  0.00  0.00    +0.000 C 
ATOM     24  O   UNL     1       0.773   9.712  20.186  0.00  0.00    +0.000 OA
ENDBRANCH  14  24
ENDBRANCH   1  17
TORSDOF 4
ENDMDL
MODEL 8
REMARK VINA RESULT:      -6.8      1.175      1.212
REMARK  Name = 
REMARK  6 active torsions:
REMARK  status: ('A' for Active; 'I' for Inactive)
REMARK    1  A    between atoms: C_1  and  O_2
REMARK    2  A    between atoms: O_2  and  C_3
REMARK    3  A    between atoms: C_6  and  N_7
REMARK    4  A    between atoms: N_7  and  C_8
REMARK    5  A    between atoms: N_7  and  C_9
REMARK    6  A    between atoms: C_21  and  N_22
REMARK                            x       y       z     vdW  Elec       q    Type
REMARK                         _______ _______ _______ _____ _____    ______ ____
ROOT
ATOM      1  N   UNL     1       3.717   5.693  17.668  0.00  0.00    +0.000 N 
ATOM      2  C   UNL     1       3.157   4.336  17.769  0.00  0.00    +0.000 C 
ENDROOT
BRANCH   1   3
ATOM      3  C   UNL     1       5.066   5.846  17.291  0.00  0.00    +0.000 A 
ATOM      4  C   UNL     1       5.968   6.516  18.034  0.00  0.00    +0.000 A 
ATOM      5  C   UNL     1       7.371   6.713  17.636  0.00  0.00    +0.000 A 
ATOM      6  O   UNL     1       8.145   7.324  18.370  0.00  0.00    +0.000 OA
ATOM      7  O   UNL     1       7.761   6.193  16.423  0.00  0.00    +0.000 OA
ATOM      8  C   UNL     1       6.859   5.459  15.628  0.00  0.00    +0.000 A 
ATOM      9  C   UNL     1       7.366   4.951  14.429  0.00  0.00    +0.000 A 
ATOM     10  C   UNL     1       6.543   4.188  13.604  0.00  0.00    +0.000 A 
ATOM     11  C   UNL     1       5.222   3.963  13.975  0.00  0.00    +0.000 A 
ATOM     12  C   UNL     1       4.717   4.514  15.157  0.00  0.00    +0.000 A 
ATOM     13  C   UNL     1       5.535   5.257  16.020  0.00  0.00    +0.000 A 
ENDBRANCH   1   3
BRANCH   1  17
ATOM     14  C   UNL     1       1.478   8.986  19.211  0.00  0.00    +0.000 A 
ATOM     15  C   UNL     1       1.887   8.950  17.881  0.00  0.00    +0.000 A 
ATOM     16  C   UNL     1       2.622   7.861  17.398  0.00  0.00    +0.000 A 
ATOM     17  C   UNL     1       2.982   6.777  18.218  0.00  0.00    +0.000 A 
ATOM     18  C   UNL     1       2.563   6.840  19.560  0.00  0.00    +0.000 A 
ATOM     19  C   UNL     1       1.855   7.946  20.076  0.00  0.00    +0.000 A 
BRANCH  19  20
ATOM     20  N   UNL     1       1.328   7.881  21.385  0.00  0.00    +0.000 N 
ATOM     21  H   UNL     1       0.326   8.026  21.436  0.00  0.00    +0.000 HD
ATOM     22  H   UNL     1       1.634   7.030  21.855  0.00  0.00    +0.000 HD
ENDBRANCH  19  20
BRANCH  14  24
ATOM     23  C   UNL     1      -0.495  10.268  19.107  0.00  0.00    +0.000 C 
ATOM     24  O   UNL     1       0.751  10.021  19.756  0.00  0.00    +0.000 OA
ENDBRANCH  14  24
ENDBRANCH   1  17
TORSDOF 4
ENDMDL
MODEL 9
REMARK VINA RESULT:      -6.8      3.112      6.615
REMARK  Name = 
REMARK  6 active torsions:
REMARK  status: ('A' for Active; 'I' for Inactive)
REMARK    1  A    between atoms: C_1  and  O_2
REMARK    2  A    between atoms: O_2  and  C_3
REMARK    3  A    between atoms: C_6  and  N_7
REMARK    4  A    between atoms: N_7  and  C_8
REMARK    5  A    between atoms: N_7  and  C_9
REMARK    6  A    between atoms: C_21  and  N_22
REMARK                            x       y       z     vdW  Elec       q    Type
REMARK                         _______ _______ _______ _____ _____    ______ ____
ROOT
ATOM      1  N   UNL     1       5.902   5.297  17.914  0.00  0.00    +0.000 N 
ATOM      2  C   UNL     1       6.838   6.289  18.465  0.00  0.00    +0.000 C 
ENDROOT
BRANCH   1   3
ATOM      3  C   UNL     1       5.094   4.557  18.801  0.00  0.00    +0.000 A 
ATOM      4  C   UNL     1       5.384   3.302  19.191  0.00  0.00    +0.000 A 
ATOM      5  C   UNL     1       4.532   2.506  20.089  0.00  0.00    +0.000 A 
ATOM      6  O   UNL     1       4.865   1.369  20.416  0.00  0.00    +0.000 OA
ATOM      7  O   UNL     1       3.364   3.088  20.529  0.00  0.00    +0.000 OA
ATOM      8  C   UNL     1       3.036   4.409  20.169  0.00  0.00    +0.000 A 
ATOM      9  C   UNL     1       1.842   4.912  20.694  0.00  0.00    +0.000 A 
ATOM     10  C   UNL     1       1.465   6.223  20.409  0.00  0.00    +0.000 A 
ATOM     11  C   UNL     1       2.272   7.003  19.589  0.00  0.00    +0.000 A 
ATOM     12  C   UNL     1       3.441   6.471  19.036  0.00  0.00    +0.000 A 
ATOM     13  C   UNL     1       3.859   5.167  19.335  0.00  0.00    +0.000 A 
ENDBRANCH   1   3
BRANCH   1  17
ATOM     14  C   UNL     1       6.195   4.109  13.822  0.00  0.00    +0.000 A 
ATOM     15  C   UNL     1       5.165   3.649  14.636  0.00  0.00    +0.000 A 
ATOM     16  C   UNL     1       5.090   4.049  15.975  0.00  0.00    +0.000 A 
ATOM     17  C   UNL     1       6.037   4.914  16.553  0.00  0.00    +0.000 A 
ATOM     18  C   UNL     1       7.073   5.360  15.711  0.00  0.00    +0.000 A 
ATOM     19  C   UNL     1       7.188   4.938  14.370  0.00  0.00    +0.000 A 
BRANCH  19  20
ATOM     20  N   UNL     1       8.155   5.540  13.535  0.00  0.00    +0.000 N 
ATOM     21  H   UNL     1       8.215   6.548  13.631  0.00  0.00    +0.000 HD
ATOM     22  H   UNL     1       9.056   5.074  13.632  0.00  0.00    +0.000 HD
ENDBRANCH  19  20
BRANCH  14  24
ATOM     23  C   UNL     1       5.165   3.179  11.920  0.00  0.00    +0.000 C 
ATOM     24  O   UNL     1       6.332   3.761  12.497  0.00  0.00    +0.000 OA
ENDBRANCH  14  24
ENDBRANCH   1  17
TORSDOF 4
ENDMDL
