MODEL 1
REMARK VINA RESULT:      -7.4      0.000      0.000
REMARK  Name = 
REMARK  7 active torsions:
REMARK  status: ('A' for Active; 'I' for Inactive)
REMARK    1  A    between atoms: C_1  and  C_2
REMARK    2  A    between atoms: C_2  and  N_3
REMARK    3  A    between atoms: C_2  and  C_16
REMARK    4  A    between atoms: N_6  and  C_7
REMARK    5  A    between atoms: C_7  and  C_8
REMARK    6  A    between atoms: C_8  and  C_9
REMARK    7  A    between atoms: C_9  and  C_10
REMARK                            x       y       z     vdW  Elec       q    Type
REMARK                         _______ _______ _______ _____ _____    ______ ____
ROOT
ATOM      1  N   UNL     1       3.661   5.734  19.208  0.00  0.00    +0.000 N 
ATOM      2  C   UNL     1       4.895   5.116  19.207  0.00  0.00    +0.000 C 
ATOM      3  O   UNL     1       5.137   4.081  19.802  0.00  0.00    +0.000 OA
ATOM      4  N   UNL     1       5.816   5.780  18.431  0.00  0.00    +0.000 N 
ATOM      5  H   UNL     1       3.670   6.726  19.050  0.00  0.00    +0.000 HD
ATOM      6  H   UNL     1       5.450   6.373  17.698  0.00  0.00    +0.000 HD
ENDROOT
BRANCH   1   8
ATOM      7  C   UNL     1       1.833   6.208  20.797  0.00  0.00    +0.000 C 
ATOM      8  C   UNL     1       2.545   5.152  19.948  0.00  0.00    +0.000 C 
BRANCH   8   9
ATOM      9  C   UNL     1       1.523   4.352  19.084  0.00  0.00    +0.000 C 
ATOM     10  C   UNL     1       1.747   4.316  17.562  0.00  0.00    +0.000 C 
ATOM     11  C   UNL     1       2.800   3.323  17.079  0.00  0.00    +0.000 C 
ATOM     12  C   UNL     1       2.705   1.950  17.741  0.00  0.00    +0.000 C 
ATOM     13  C   UNL     1       2.450   1.985  19.244  0.00  0.00    +0.000 C 
ATOM     14  C   UNL     1       1.312   2.926  19.613  0.00  0.00    +0.000 C 
ENDBRANCH   8   9
ENDBRANCH   1   8
BRANCH   4  15
ATOM     15  C   UNL     1       7.124   5.167  18.223  0.00  0.00    +0.000 C 
BRANCH  15  16
ATOM     16  C   UNL     1       7.214   4.496  16.851  0.00  0.00    +0.000 C 
BRANCH  16  17
ATOM     17  C   UNL     1       6.988   5.489  15.706  0.00  0.00    +0.000 C 
BRANCH  17  18
ATOM     18  C   UNL     1       6.752   4.815  14.372  0.00  0.00    +0.000 A 
ATOM     19  C   UNL     1       7.631   5.050  13.307  0.00  0.00    +0.000 A 
ATOM     20  C   UNL     1       7.432   4.445  12.066  0.00  0.00    +0.000 A 
ATOM     21  C   UNL     1       6.347   3.591  11.872  0.00  0.00    +0.000 A 
ATOM     22  C   UNL     1       5.464   3.343  12.918  0.00  0.00    +0.000 A 
ATOM     23  C   UNL     1       5.663   3.952  14.167  0.00  0.00    +0.000 A 
ENDBRANCH  17  18
ENDBRANCH  16  17
ENDBRANCH  15  16
ENDBRANCH   4  15
TORSDOF 6
ENDMDL
MODEL 2
REMARK VINA RESULT:      -7.3      0.256      1.083
REMARK  Name = 
REMARK  7 active torsions:
REMARK  status: ('A' for Active; 'I' for Inactive)
REMARK    1  A    between atoms: C_1  and  C_2
REMARK    2  A    between atoms: C_2  and  N_3
REMARK    3  A    between atoms: C_2  and  C_16
REMARK    4  A    between atoms: N_6  and  C_7
REMARK    5  A    between atoms: C_7  and  C_8
REMARK    6  A    between atoms: C_8  and  C_9
REMARK    7  A    between atoms: C_9  and  C_10
REMARK                            x       y       z     vdW  Elec       q    Type
REMARK                         _______ _______ _______ _____ _____    ______ ____
ROOT
ATOM      1  N   UNL     1       3.811   5.819  19.099  0.00  0.00    +0.000 N 
ATOM      2  C   UNL     1       5.014   5.147  19.166  0.00  0.00    +0.000 C 
ATOM      3  O   UNL     1       5.184   4.119  19.798  0.00  0.00    +0.000 OA
ATOM      4  N   UNL     1       5.995   5.745  18.411  0.00  0.00    +0.000 N 
ATOM      5  H   UNL     1       3.873   6.805  18.914  0.00  0.00    +0.000 HD
ATOM      6  H   UNL     1       5.687   6.333  17.647  0.00  0.00    +0.000 HD
ENDROOT
BRANCH   1   8
ATOM      7  C   UNL     1       1.978   6.408  20.644  0.00  0.00    +0.000 C 
ATOM      8  C   UNL     1       2.641   5.309  19.808  0.00  0.00    +0.000 C 
BRANCH   8   9
ATOM      9  C   UNL     1       1.591   4.581  18.915  0.00  0.00    +0.000 C 
ATOM     10  C   UNL     1       1.980   4.276  17.457  0.00  0.00    +0.000 C 
ATOM     11  C   UNL     1       2.869   3.052  17.260  0.00  0.00    +0.000 C 
ATOM     12  C   UNL     1       2.431   1.833  18.070  0.00  0.00    +0.000 C 
ATOM     13  C   UNL     1       2.014   2.140  19.505  0.00  0.00    +0.000 C 
ATOM     14  C   UNL     1       1.046   3.312  19.584  0.00  0.00    +0.000 C 
ENDBRANCH   8   9
ENDBRANCH   1   8
BRANCH   4  15
ATOM     15  C   UNL     1       7.280   5.068  18.273  0.00  0.00    +0.000 C 
BRANCH  15  16
ATOM     16  C   UNL     1       7.492   4.554  16.848  0.00  0.00    +0.000 C 
BRANCH  16  17
ATOM     17  C   UNL     1       6.908   5.504  15.799  0.00  0.00    +0.000 C 
BRANCH  17  18
ATOM     18  C   UNL     1       6.722   4.855  14.445  0.00  0.00    +0.000 A 
ATOM     19  C   UNL     1       5.632   4.005  14.222  0.00  0.00    +0.000 A 
ATOM     20  C   UNL     1       5.441   3.391  12.984  0.00  0.00    +0.000 A 
ATOM     21  C   UNL     1       6.343   3.621  11.945  0.00  0.00    +0.000 A 
ATOM     22  C   UNL     1       7.431   4.464  12.146  0.00  0.00    +0.000 A 
ATOM     23  C   UNL     1       7.624   5.082  13.391  0.00  0.00    +0.000 A 
ENDBRANCH  17  18
ENDBRANCH  16  17
ENDBRANCH  15  16
ENDBRANCH   4  15
TORSDOF 6
ENDMDL
MODEL 3
REMARK VINA RESULT:      -7.3      1.829      6.227
REMARK  Name = 
REMARK  7 active torsions:
REMARK  status: ('A' for Active; 'I' for Inactive)
REMARK    1  A    between atoms: C_1  and  C_2
REMARK    2  A    between atoms: C_2  and  N_3
REMARK    3  A    between atoms: C_2  and  C_16
REMARK    4  A    between atoms: N_6  and  C_7
REMARK    5  A    between atoms: C_7  and  C_8
REMARK    6  A    between atoms: C_8  and  C_9
REMARK    7  A    between atoms: C_9  and  C_10
REMARK                            x       y       z     vdW  Elec       q    Type
REMARK                         _______ _______ _______ _____ _____    ______ ____
ROOT
ATOM      1  N   UNL     1       6.453   4.175  18.576  0.00  0.00    +0.000 N 
ATOM      2  C   UNL     1       5.332   3.913  19.336  0.00  0.00    +0.000 C 
ATOM      3  O   UNL     1       4.772   4.744  20.029  0.00  0.00    +0.000 OA
ATOM      4  N   UNL     1       4.894   2.617  19.200  0.00  0.00    +0.000 N 
ATOM      5  H   UNL     1       7.046   3.386  18.386  0.00  0.00    +0.000 HD
ATOM      6  H   UNL     1       5.162   2.133  18.353  0.00  0.00    +0.000 HD
ENDROOT
BRANCH   1   8
ATOM      7  C   UNL     1       8.272   5.584  19.472  0.00  0.00    +0.000 C 
ATOM      8  C   UNL     1       7.041   5.512  18.564  0.00  0.00    +0.000 C 
BRANCH   8   9
ATOM      9  C   UNL     1       7.360   6.082  17.149  0.00  0.00    +0.000 C 
ATOM     10  C   UNL     1       7.565   5.077  16.001  0.00  0.00    +0.000 C 
ATOM     11  C   UNL     1       6.285   4.513  15.390  0.00  0.00    +0.000 C 
ATOM     12  C   UNL     1       5.208   5.564  15.131  0.00  0.00    +0.000 C 
ATOM     13  C   UNL     1       5.028   6.580  16.254  0.00  0.00    +0.000 C 
ATOM     14  C   UNL     1       6.354   7.161  16.722  0.00  0.00    +0.000 C 
ENDBRANCH   8   9
ENDBRANCH   1   8
BRANCH   4  15
ATOM     15  C   UNL     1       3.637   2.235  19.835  0.00  0.00    +0.000 C 
BRANCH  15  16
ATOM     16  C   UNL     1       2.566   1.897  18.797  0.00  0.00    +0.000 C 
BRANCH  16  17
ATOM     17  C   UNL     1       1.307   2.753  18.966  0.00  0.00    +0.000 C 
BRANCH  17  18
ATOM     18  C   UNL     1       1.607   4.226  19.133  0.00  0.00    +0.000 A 
ATOM     19  C   UNL     1       1.454   4.832  20.386  0.00  0.00    +0.000 A 
ATOM     20  C   UNL     1       1.720   6.191  20.563  0.00  0.00    +0.000 A 
ATOM     21  C   UNL     1       2.146   6.965  19.485  0.00  0.00    +0.000 A 
ATOM     22  C   UNL     1       2.305   6.381  18.233  0.00  0.00    +0.000 A 
ATOM     23  C   UNL     1       2.037   5.015  18.053  0.00  0.00    +0.000 A 
ENDBRANCH  17  18
ENDBRANCH  16  17
ENDBRANCH  15  16
ENDBRANCH   4  15
TORSDOF 6
ENDMDL
MODEL 4
REMARK VINA RESULT:      -6.9      5.889      8.842
REMARK  Name = 
REMARK  7 active torsions:
REMARK  status: ('A' for Active; 'I' for Inactive)
REMARK    1  A    between atoms: C_1  and  C_2
REMARK    2  A    between atoms: C_2  and  N_3
REMARK    3  A    between atoms: C_2  and  C_16
REMARK    4  A    between atoms: N_6  and  C_7
REMARK    5  A    between atoms: C_7  and  C_8
REMARK    6  A    between atoms: C_8  and  C_9
REMARK    7  A    between atoms: C_9  and  C_10
REMARK                            x       y       z     vdW  Elec       q    Type
REMARK                         _______ _______ _______ _____ _____    ______ ____
ROOT
ATOM      1  N   UNL     1       9.331   9.921  19.717  0.00  0.00    +0.000 N 
ATOM      2  C   UNL     1       8.614   9.504  18.615  0.00  0.00    +0.000 C 
ATOM      3  O   UNL     1       8.185  10.256  17.758  0.00  0.00    +0.000 OA
ATOM      4  N   UNL     1       8.465   8.138  18.569  0.00  0.00    +0.000 N 
ATOM      5  H   UNL     1       9.280   9.322  20.522  0.00  0.00    +0.000 HD
ATOM      6  H   UNL     1       9.148   7.589  19.075  0.00  0.00    +0.000 HD
ENDROOT
BRANCH   1   8
ATOM      7  C   UNL     1       9.251  11.788  21.331  0.00  0.00    +0.000 C 
ATOM      8  C   UNL     1       9.622  11.339  19.915  0.00  0.00    +0.000 C 
BRANCH   8   9
ATOM      9  C   UNL     1      11.076  11.772  19.557  0.00  0.00    +0.000 C 
ATOM     10  C   UNL     1      11.524  11.633  18.091  0.00  0.00    +0.000 C 
ATOM     11  C   UNL     1      11.056  12.745  17.157  0.00  0.00    +0.000 C 
ATOM     12  C   UNL     1      11.211  14.148  17.739  0.00  0.00    +0.000 C 
ATOM     13  C   UNL     1      10.798  14.278  19.202  0.00  0.00    +0.000 C 
ATOM     14  C   UNL     1      11.400  13.182  20.069  0.00  0.00    +0.000 C 
ENDBRANCH   8   9
ENDBRANCH   1   8
BRANCH   4  15
ATOM     15  C   UNL     1       7.851   7.542  17.388  0.00  0.00    +0.000 C 
BRANCH  15  16
ATOM     16  C   UNL     1       6.739   6.563  17.770  0.00  0.00    +0.000 C 
BRANCH  16  17
ATOM     17  C   UNL     1       5.397   6.936  17.132  0.00  0.00    +0.000 C 
BRANCH  17  18
ATOM     18  C   UNL     1       4.323   5.893  17.349  0.00  0.00    +0.000 A 
ATOM     19  C   UNL     1       4.531   4.577  16.918  0.00  0.00    +0.000 A 
ATOM     20  C   UNL     1       3.555   3.598  17.103  0.00  0.00    +0.000 A 
ATOM     21  C   UNL     1       2.350   3.923  17.726  0.00  0.00    +0.000 A 
ATOM     22  C   UNL     1       2.125   5.224  18.163  0.00  0.00    +0.000 A 
ATOM     23  C   UNL     1       3.107   6.210  17.977  0.00  0.00    +0.000 A 
ENDBRANCH  17  18
ENDBRANCH  16  17
ENDBRANCH  15  16
ENDBRANCH   4  15
TORSDOF 6
ENDMDL
MODEL 5
REMARK VINA RESULT:      -6.9      5.219      7.097
REMARK  Name = 
REMARK  7 active torsions:
REMARK  status: ('A' for Active; 'I' for Inactive)
REMARK    1  A    between atoms: C_1  and  C_2
REMARK    2  A    between atoms: C_2  and  N_3
REMARK    3  A    between atoms: C_2  and  C_16
REMARK    4  A    between atoms: N_6  and  C_7
REMARK    5  A    between atoms: C_7  and  C_8
REMARK    6  A    between atoms: C_8  and  C_9
REMARK    7  A    between atoms: C_9  and  C_10
REMARK                            x       y       z     vdW  Elec       q    Type
REMARK                         _______ _______ _______ _____ _____    ______ ____
ROOT
ATOM      1  N   UNL     1       5.820   6.690  16.465  0.00  0.00    +0.000 N 
ATOM      2  C   UNL     1       6.830   6.960  17.366  0.00  0.00    +0.000 C 
ATOM      3  O   UNL     1       7.261   6.149  18.166  0.00  0.00    +0.000 OA
ATOM      4  N   UNL     1       7.322   8.238  17.238  0.00  0.00    +0.000 N 
ATOM      5  H   UNL     1       5.285   7.484  16.160  0.00  0.00    +0.000 HD
ATOM      6  H   UNL     1       7.191   8.688  16.342  0.00  0.00    +0.000 HD
ENDROOT
BRANCH   1   8
ATOM      7  C   UNL     1       6.136   4.336  15.795  0.00  0.00    +0.000 C 
ATOM      8  C   UNL     1       5.199   5.369  16.427  0.00  0.00    +0.000 C 
BRANCH   8   9
ATOM      9  C   UNL     1       4.647   4.857  17.792  0.00  0.00    +0.000 C 
ATOM     10  C   UNL     1       3.683   5.775  18.563  0.00  0.00    +0.000 C 
ATOM     11  C   UNL     1       2.237   5.765  18.074  0.00  0.00    +0.000 C 
ATOM     12  C   UNL     1       1.692   4.368  17.786  0.00  0.00    +0.000 C 
ATOM     13  C   UNL     1       2.660   3.447  17.050  0.00  0.00    +0.000 C 
ATOM     14  C   UNL     1       4.046   3.449  17.679  0.00  0.00    +0.000 C 
ENDBRANCH   8   9
ENDBRANCH   1   8
BRANCH   4  15
ATOM     15  C   UNL     1       8.488   8.618  18.029  0.00  0.00    +0.000 C 
BRANCH  15  16
ATOM     16  C   UNL     1       8.515  10.124  18.295  0.00  0.00    +0.000 C 
BRANCH  16  17
ATOM     17  C   UNL     1       9.347  10.477  19.533  0.00  0.00    +0.000 C 
BRANCH  17  18
ATOM     18  C   UNL     1      10.364  11.567  19.276  0.00  0.00    +0.000 A 
ATOM     19  C   UNL     1      10.579  12.561  20.238  0.00  0.00    +0.000 A 
ATOM     20  C   UNL     1      11.509  13.580  20.023  0.00  0.00    +0.000 A 
ATOM     21  C   UNL     1      12.240  13.617  18.836  0.00  0.00    +0.000 A 
ATOM     22  C   UNL     1      12.042  12.637  17.869  0.00  0.00    +0.000 A 
ATOM     23  C   UNL     1      11.107  11.612  18.085  0.00  0.00    +0.000 A 
ENDBRANCH  17  18
ENDBRANCH  16  17
ENDBRANCH  15  16
ENDBRANCH   4  15
TORSDOF 6
ENDMDL
MODEL 6
REMARK VINA RESULT:      -6.8      4.212      6.088
REMARK  Name = 
REMARK  7 active torsions:
REMARK  status: ('A' for Active; 'I' for Inactive)
REMARK    1  A    between atoms: C_1  and  C_2
REMARK    2  A    between atoms: C_2  and  N_3
REMARK    3  A    between atoms: C_2  and  C_16
REMARK    4  A    between atoms: N_6  and  C_7
REMARK    5  A    between atoms: C_7  and  C_8
REMARK    6  A    between atoms: C_8  and  C_9
REMARK    7  A    between atoms: C_9  and  C_10
REMARK                            x       y       z     vdW  Elec       q    Type
REMARK                         _______ _______ _______ _____ _____    ______ ____
ROOT
ATOM      1  N   UNL     1       5.103   4.933  18.602  0.00  0.00    +0.000 N 
ATOM      2  C   UNL     1       5.873   5.561  17.645  0.00  0.00    +0.000 C 
ATOM      3  O   UNL     1       5.737   5.395  16.446  0.00  0.00    +0.000 OA
ATOM      4  N   UNL     1       6.792   6.426  18.193  0.00  0.00    +0.000 N 
ATOM      5  H   UNL     1       5.534   4.817  19.502  0.00  0.00    +0.000 HD
ATOM      6  H   UNL     1       6.586   6.783  19.116  0.00  0.00    +0.000 HD
ENDROOT
BRANCH   1   8
ATOM      7  C   UNL     1       4.144   2.690  18.983  0.00  0.00    +0.000 C 
ATOM      8  C   UNL     1       4.046   4.005  18.206  0.00  0.00    +0.000 C 
BRANCH   8   9
ATOM      9  C   UNL     1       2.600   4.584  18.271  0.00  0.00    +0.000 C 
ATOM     10  C   UNL     1       1.427   3.596  18.140  0.00  0.00    +0.000 C 
ATOM     11  C   UNL     1       1.081   2.821  19.408  0.00  0.00    +0.000 C 
ATOM     12  C   UNL     1       1.050   3.682  20.670  0.00  0.00    +0.000 C 
ATOM     13  C   UNL     1       2.195   4.684  20.783  0.00  0.00    +0.000 C 
ATOM     14  C   UNL     1       2.392   5.479  19.500  0.00  0.00    +0.000 C 
ENDBRANCH   8   9
ENDBRANCH   1   8
BRANCH   4  15
ATOM     15  C   UNL     1       7.581   7.265  17.297  0.00  0.00    +0.000 C 
BRANCH  15  16
ATOM     16  C   UNL     1       7.697   8.695  17.829  0.00  0.00    +0.000 C 
BRANCH  16  17
ATOM     17  C   UNL     1       8.856   8.849  18.819  0.00  0.00    +0.000 C 
BRANCH  17  18
ATOM     18  C   UNL     1       9.269  10.289  19.032  0.00  0.00    +0.000 A 
ATOM     19  C   UNL     1       9.560  11.102  17.930  0.00  0.00    +0.000 A 
ATOM     20  C   UNL     1       9.948  12.432  18.101  0.00  0.00    +0.000 A 
ATOM     21  C   UNL     1      10.048  12.969  19.384  0.00  0.00    +0.000 A 
ATOM     22  C   UNL     1       9.761  12.179  20.491  0.00  0.00    +0.000 A 
ATOM     23  C   UNL     1       9.371  10.841  20.320  0.00  0.00    +0.000 A 
ENDBRANCH  17  18
ENDBRANCH  16  17
ENDBRANCH  15  16
ENDBRANCH   4  15
TORSDOF 6
ENDMDL
MODEL 7
REMARK VINA RESULT:      -6.8      0.973      1.647
REMARK  Name = 
REMARK  7 active torsions:
REMARK  status: ('A' for Active; 'I' for Inactive)
REMARK    1  A    between atoms: C_1  and  C_2
REMARK    2  A    between atoms: C_2  and  N_3
REMARK    3  A    between atoms: C_2  and  C_16
REMARK    4  A    between atoms: N_6  and  C_7
REMARK    5  A    between atoms: C_7  and  C_8
REMARK    6  A    between atoms: C_8  and  C_9
REMARK    7  A    between atoms: C_9  and  C_10
REMARK                            x       y       z     vdW  Elec       q    Type
REMARK                         _______ _______ _______ _____ _____    ______ ____
ROOT
ATOM      1  N   UNL     1       3.934   5.634  19.103  0.00  0.00    +0.000 N 
ATOM      2  C   UNL     1       5.305   5.541  18.987  0.00  0.00    +0.000 C 
ATOM      3  O   UNL     1       6.020   4.985  19.802  0.00  0.00    +0.000 OA
ATOM      4  N   UNL     1       5.777   6.114  17.829  0.00  0.00    +0.000 N 
ATOM      5  H   UNL     1       3.509   6.415  18.635  0.00  0.00    +0.000 HD
ATOM      6  H   UNL     1       5.122   6.196  17.063  0.00  0.00    +0.000 HD
ENDROOT
BRANCH   1   8
ATOM      7  C   UNL     1       1.885   5.705  20.477  0.00  0.00    +0.000 C 
ATOM      8  C   UNL     1       3.248   5.047  20.251  0.00  0.00    +0.000 C 
BRANCH   8   9
ATOM      9  C   UNL     1       3.119   3.494  20.221  0.00  0.00    +0.000 C 
ATOM     10  C   UNL     1       1.909   2.862  20.932  0.00  0.00    +0.000 C 
ATOM     11  C   UNL     1       0.599   2.899  20.151  0.00  0.00    +0.000 C 
ATOM     12  C   UNL     1       0.746   2.514  18.680  0.00  0.00    +0.000 C 
ATOM     13  C   UNL     1       1.963   3.113  17.984  0.00  0.00    +0.000 C 
ATOM     14  C   UNL     1       3.237   2.933  18.798  0.00  0.00    +0.000 C 
ENDBRANCH   8   9
ENDBRANCH   1   8
BRANCH   4  15
ATOM     15  C   UNL     1       7.192   5.967  17.504  0.00  0.00    +0.000 C 
BRANCH  15  16
ATOM     16  C   UNL     1       7.460   4.663  16.751  0.00  0.00    +0.000 C 
BRANCH  16  17
ATOM     17  C   UNL     1       6.270   4.243  15.882  0.00  0.00    +0.000 C 
BRANCH  17  18
ATOM     18  C   UNL     1       6.576   4.270  14.400  0.00  0.00    +0.000 A 
ATOM     19  C   UNL     1       7.508   5.186  13.897  0.00  0.00    +0.000 A 
ATOM     20  C   UNL     1       7.804   5.233  12.534  0.00  0.00    +0.000 A 
ATOM     21  C   UNL     1       7.168   4.360  11.652  0.00  0.00    +0.000 A 
ATOM     22  C   UNL     1       6.240   3.443  12.132  0.00  0.00    +0.000 A 
ATOM     23  C   UNL     1       5.942   3.394  13.503  0.00  0.00    +0.000 A 
ENDBRANCH  17  18
ENDBRANCH  16  17
ENDBRANCH  15  16
ENDBRANCH   4  15
TORSDOF 6
ENDMDL
MODEL 8
REMARK VINA RESULT:      -6.8      5.020      7.248
REMARK  Name = 
REMARK  7 active torsions:
REMARK  status: ('A' for Active; 'I' for Inactive)
REMARK    1  A    between atoms: C_1  and  C_2
REMARK    2  A    between atoms: C_2  and  N_3
REMARK    3  A    between atoms: C_2  and  C_16
REMARK    4  A    between atoms: N_6  and  C_7
REMARK    5  A    between atoms: C_7  and  C_8
REMARK    6  A    between atoms: C_8  and  C_9
REMARK    7  A    between atoms: C_9  and  C_10
REMARK                            x       y       z     vdW  Elec       q    Type
REMARK                         _______ _______ _______ _____ _____    ______ ____
ROOT
ATOM      1  N   UNL     1       6.456   5.408  17.569  0.00  0.00    +0.000 N 
ATOM      2  C   UNL     1       6.628   6.721  17.181  0.00  0.00    +0.000 C 
ATOM      3  O   UNL     1       5.912   7.291  16.379  0.00  0.00    +0.000 OA
ATOM      4  N   UNL     1       7.680   7.328  17.827  0.00  0.00    +0.000 N 
ATOM      5  H   UNL     1       7.284   4.936  17.889  0.00  0.00    +0.000 HD
ATOM      6  H   UNL     1       7.959   6.931  18.714  0.00  0.00    +0.000 HD
ENDROOT
BRANCH   1   8
ATOM      7  C   UNL     1       5.820   3.822  15.788  0.00  0.00    +0.000 C 
ATOM      8  C   UNL     1       5.363   4.612  17.017  0.00  0.00    +0.000 C 
BRANCH   8   9
ATOM      9  C   UNL     1       4.640   3.682  18.038  0.00  0.00    +0.000 C 
ATOM     10  C   UNL     1       4.447   4.207  19.472  0.00  0.00    +0.000 C 
ATOM     11  C   UNL     1       3.284   5.176  19.663  0.00  0.00    +0.000 C 
ATOM     12  C   UNL     1       1.997   4.741  18.966  0.00  0.00    +0.000 C 
ATOM     13  C   UNL     1       2.192   4.191  17.557  0.00  0.00    +0.000 C 
ATOM     14  C   UNL     1       3.305   3.156  17.493  0.00  0.00    +0.000 C 
ENDBRANCH   8   9
ENDBRANCH   1   8
BRANCH   4  15
ATOM     15  C   UNL     1       7.894   8.756  17.621  0.00  0.00    +0.000 C 
BRANCH  15  16
ATOM     16  C   UNL     1       8.784   9.351  18.713  0.00  0.00    +0.000 C 
BRANCH  16  17
ATOM     17  C   UNL     1       9.462  10.649  18.262  0.00  0.00    +0.000 C 
BRANCH  17  18
ATOM     18  C   UNL     1       9.621  11.657  19.379  0.00  0.00    +0.000 A 
ATOM     19  C   UNL     1       9.351  11.283  20.701  0.00  0.00    +0.000 A 
ATOM     20  C   UNL     1       9.486  12.196  21.747  0.00  0.00    +0.000 A 
ATOM     21  C   UNL     1       9.895  13.503  21.484  0.00  0.00    +0.000 A 
ATOM     22  C   UNL     1      10.170  13.894  20.178  0.00  0.00    +0.000 A 
ATOM     23  C   UNL     1      10.034  12.976  19.125  0.00  0.00    +0.000 A 
ENDBRANCH  17  18
ENDBRANCH  16  17
ENDBRANCH  15  16
ENDBRANCH   4  15
TORSDOF 6
ENDMDL
MODEL 9
REMARK VINA RESULT:      -6.7      4.526      6.150
REMARK  Name = 
REMARK  7 active torsions:
REMARK  status: ('A' for Active; 'I' for Inactive)
REMARK    1  A    between atoms: C_1  and  C_2
REMARK    2  A    between atoms: C_2  and  N_3
REMARK    3  A    between atoms: C_2  and  C_16
REMARK    4  A    between atoms: N_6  and  C_7
REMARK    5  A    between atoms: C_7  and  C_8
REMARK    6  A    between atoms: C_8  and  C_9
REMARK    7  A    between atoms: C_9  and  C_10
REMARK                            x       y       z     vdW  Elec       q    Type
REMARK                         _______ _______ _______ _____ _____    ______ ____
ROOT
ATOM      1  N   UNL     1       4.667   6.014  17.561  0.00  0.00    +0.000 N 
ATOM      2  C   UNL     1       5.904   6.426  18.013  0.00  0.00    +0.000 C 
ATOM      3  O   UNL     1       6.419   6.028  19.043  0.00  0.00    +0.000 OA
ATOM      4  N   UNL     1       6.510   7.312  17.153  0.00  0.00    +0.000 N 
ATOM      5  H   UNL     1       4.180   6.664  16.969  0.00  0.00    +0.000 HD
ATOM      6  H   UNL     1       6.210   7.287  16.188  0.00  0.00    +0.000 HD
ENDROOT
BRANCH   1   8
ATOM      7  C   UNL     1       3.018   5.734  19.377  0.00  0.00    +0.000 C 
ATOM      8  C   UNL     1       3.889   5.042  18.325  0.00  0.00    +0.000 C 
BRANCH   8   9
ATOM      9  C   UNL     1       3.044   4.051  17.468  0.00  0.00    +0.000 C 
ATOM     10  C   UNL     1       3.478   2.575  17.444  0.00  0.00    +0.000 C 
ATOM     11  C   UNL     1       3.056   1.750  18.656  0.00  0.00    +0.000 C 
ATOM     12  C   UNL     1       1.609   1.981  19.088  0.00  0.00    +0.000 C 
ATOM     13  C   UNL     1       1.169   3.441  19.080  0.00  0.00    +0.000 C 
ATOM     14  C   UNL     1       1.545   4.148  17.785  0.00  0.00    +0.000 C 
ENDBRANCH   8   9
ENDBRANCH   1   8
BRANCH   4  15
ATOM     15  C   UNL     1       7.882   7.726  17.431  0.00  0.00    +0.000 C 
BRANCH  15  16
ATOM     16  C   UNL     1       7.954   9.208  17.804  0.00  0.00    +0.000 C 
BRANCH  16  17
ATOM     17  C   UNL     1       8.963   9.471  18.927  0.00  0.00    +0.000 C 
BRANCH  17  18
ATOM     18  C   UNL     1       9.582  10.850  18.859  0.00  0.00    +0.000 A 
ATOM     19  C   UNL     1       9.098  11.788  17.939  0.00  0.00    +0.000 A 
ATOM     20  C   UNL     1       9.656  13.065  17.855  0.00  0.00    +0.000 A 
ATOM     21  C   UNL     1      10.711  13.422  18.694  0.00  0.00    +0.000 A 
ATOM     22  C   UNL     1      11.205  12.505  19.614  0.00  0.00    +0.000 A 
ATOM     23  C   UNL     1      10.645  11.220  19.700  0.00  0.00    +0.000 A 
ENDBRANCH  17  18
ENDBRANCH  16  17
ENDBRANCH  15  16
ENDBRANCH   4  15
TORSDOF 6
ENDMDL
