MODEL 1
REMARK VINA RESULT:      -7.0      0.000      0.000
REMARK  Name = 
REMARK  6 active torsions:
REMARK  status: ('A' for Active; 'I' for Inactive)
REMARK    1  A    between atoms: C_1  and  N_2
REMARK    2  A    between atoms: C_4  and  C_5
REMARK    3  A    between atoms: C_5  and  O_6
REMARK    4  A    between atoms: C_5  and  C_7
REMARK    5  A    between atoms: C_7  and  N_8
REMARK    6  A    between atoms: C_9  and  C_11
REMARK                            x       y       z     vdW  Elec       q    Type
REMARK                         _______ _______ _______ _____ _____    ______ ____
ROOT
ATOM      1  N   UNL     1       5.584   4.212  17.433  0.00  0.00    +0.000 N 
ATOM      2  C   UNL     1       5.410   4.535  18.758  0.00  0.00    +0.000 C 
ATOM      3  O   UNL     1       6.335   4.923  19.464  0.00  0.00    +0.000 OA
ATOM      4  H   UNL     1       4.826   3.774  16.921  0.00  0.00    +0.000 HD
ENDROOT
BRANCH   2   5
ATOM      5  C   UNL     1       4.035   4.454  19.328  0.00  0.00    +0.000 A 
ATOM      6  C   UNL     1       3.477   5.686  19.718  0.00  0.00    +0.000 A 
ATOM      7  C   UNL     1       2.184   5.748  20.230  0.00  0.00    +0.000 A 
ATOM      8 BR   UNL     1       1.451   7.416  20.730  0.00  0.00    +0.000 Br
ATOM      9  C   UNL     1       1.428   4.590  20.370  0.00  0.00    +0.000 A 
ATOM     10  C   UNL     1       1.977   3.360  20.007  0.00  0.00    +0.000 A 
ATOM     11  C   UNL     1       3.280   3.284  19.491  0.00  0.00    +0.000 A 
ATOM     12 CL   UNL     1       3.864   1.698  19.125  0.00  0.00    +0.000 Cl
ENDBRANCH   2   5
BRANCH   1  13
ATOM     13  C   UNL     1       6.894   4.273  16.807  0.00  0.00    +0.000 C 
BRANCH  13  14
ATOM     14  C   UNL     1       7.035   5.329  15.685  0.00  0.00    +0.000 C 
BRANCH  14  18
ATOM     15  C   UNL     1       5.549   2.614  11.712  0.00  0.00    +0.000 C 
ATOM     16  N   UNL     1       6.210   3.554  12.584  0.00  0.00    +0.000 N 
ATOM     17  C   UNL     1       5.942   3.781  13.902  0.00  0.00    +0.000 A 
ATOM     18  C   UNL     1       6.848   4.737  14.324  0.00  0.00    +0.000 A 
ATOM     19  C   UNL     1       7.605   5.021  13.163  0.00  0.00    +0.000 A 
ATOM     20  N   UNL     1       7.224   4.297  12.109  0.00  0.00    +0.000 NA
ENDBRANCH  14  18
BRANCH  14  21
ATOM     21  O   UNL     1       6.100   6.386  15.918  0.00  0.00    +0.000 OA
ATOM     22  H   UNL     1       6.274   7.070  15.253  0.00  0.00    +0.000 HD
ENDBRANCH  14  21
ENDBRANCH  13  14
ENDBRANCH   1  13
TORSDOF 5
ENDMDL
MODEL 2
REMARK VINA RESULT:      -6.8      1.771      2.027
REMARK  Name = 
REMARK  6 active torsions:
REMARK  status: ('A' for Active; 'I' for Inactive)
REMARK    1  A    between atoms: C_1  and  N_2
REMARK    2  A    between atoms: C_4  and  C_5
REMARK    3  A    between atoms: C_5  and  O_6
REMARK    4  A    between atoms: C_5  and  C_7
REMARK    5  A    between atoms: C_7  and  N_8
REMARK    6  A    between atoms: C_9  and  C_11
REMARK                            x       y       z     vdW  Elec       q    Type
REMARK                         _______ _______ _______ _____ _____    ______ ____
ROOT
ATOM      1  N   UNL     1       5.424   4.466  17.271  0.00  0.00    +0.000 N 
ATOM      2  C   UNL     1       5.335   4.746  18.613  0.00  0.00    +0.000 C 
ATOM      3  O   UNL     1       6.329   4.882  19.320  0.00  0.00    +0.000 OA
ATOM      4  H   UNL     1       4.584   4.233  16.752  0.00  0.00    +0.000 HD
ENDROOT
BRANCH   2   5
ATOM      5  C   UNL     1       3.981   4.938  19.206  0.00  0.00    +0.000 A 
ATOM      6  C   UNL     1       3.537   3.890  20.034  0.00  0.00    +0.000 A 
ATOM      7  C   UNL     1       2.305   3.968  20.676  0.00  0.00    +0.000 A 
ATOM      8 BR   UNL     1       1.739   2.556  21.797  0.00  0.00    +0.000 Br
ATOM      9  C   UNL     1       1.491   5.082  20.502  0.00  0.00    +0.000 A 
ATOM     10  C   UNL     1       1.910   6.118  19.667  0.00  0.00    +0.000 A 
ATOM     11  C   UNL     1       3.149   6.051  19.012  0.00  0.00    +0.000 A 
ATOM     12 CL   UNL     1       3.533   7.374  17.967  0.00  0.00    +0.000 Cl
ENDBRANCH   2   5
BRANCH   1  13
ATOM     13  C   UNL     1       6.710   4.272  16.623  0.00  0.00    +0.000 C 
BRANCH  13  14
ATOM     14  C   UNL     1       7.018   5.257  15.471  0.00  0.00    +0.000 C 
BRANCH  14  18
ATOM     15  C   UNL     1       5.376   2.527  11.570  0.00  0.00    +0.000 C 
ATOM     16  N   UNL     1       6.090   3.452  12.417  0.00  0.00    +0.000 N 
ATOM     17  C   UNL     1       5.838   3.726  13.729  0.00  0.00    +0.000 A 
ATOM     18  C   UNL     1       6.795   4.642  14.125  0.00  0.00    +0.000 A 
ATOM     19  C   UNL     1       7.564   4.855  12.956  0.00  0.00    +0.000 A 
ATOM     20  N   UNL     1       7.141   4.127  11.922  0.00  0.00    +0.000 NA
ENDBRANCH  14  18
BRANCH  14  21
ATOM     21  O   UNL     1       6.220   6.433  15.636  0.00  0.00    +0.000 OA
ATOM     22  H   UNL     1       5.309   6.139  15.790  0.00  0.00    +0.000 HD
ENDBRANCH  14  21
ENDBRANCH  13  14
ENDBRANCH   1  13
TORSDOF 5
ENDMDL
MODEL 3
REMARK VINA RESULT:      -6.8      3.090      4.338
REMARK  Name = 
REMARK  6 active torsions:
REMARK  status: ('A' for Active; 'I' for Inactive)
REMARK    1  A    between atoms: C_1  and  N_2
REMARK    2  A    between atoms: C_4  and  C_5
REMARK    3  A    between atoms: C_5  and  O_6
REMARK    4  A    between atoms: C_5  and  C_7
REMARK    5  A    between atoms: C_7  and  N_8
REMARK    6  A    between atoms: C_9  and  C_11
REMARK                            x       y       z     vdW  Elec       q    Type
REMARK                         _______ _______ _______ _____ _____    ______ ____
ROOT
ATOM      1  N   UNL     1       3.782   5.977  19.602  0.00  0.00    +0.000 N 
ATOM      2  C   UNL     1       2.454   6.107  19.929  0.00  0.00    +0.000 C 
ATOM      3  O   UNL     1       1.756   5.142  20.226  0.00  0.00    +0.000 OA
ATOM      4  H   UNL     1       4.288   6.776  19.237  0.00  0.00    +0.000 HD
ENDROOT
BRANCH   2   5
ATOM      5  C   UNL     1       1.868   7.477  19.968  0.00  0.00    +0.000 A 
ATOM      6  C   UNL     1       1.242   7.825  21.179  0.00  0.00    +0.000 A 
ATOM      7  C   UNL     1       0.690   9.090  21.353  0.00  0.00    +0.000 A 
ATOM      8 BR   UNL     1      -0.130   9.539  22.996  0.00  0.00    +0.000 Br
ATOM      9  C   UNL     1       0.743  10.028  20.328  0.00  0.00    +0.000 A 
ATOM     10  C   UNL     1       1.343   9.688  19.115  0.00  0.00    +0.000 A 
ATOM     11  C   UNL     1       1.902   8.415  18.925  0.00  0.00    +0.000 A 
ATOM     12 CL   UNL     1       2.571   8.100  17.362  0.00  0.00    +0.000 Cl
ENDBRANCH   2   5
BRANCH   1  13
ATOM     13  C   UNL     1       4.423   4.674  19.550  0.00  0.00    +0.000 C 
BRANCH  13  14
ATOM     14  C   UNL     1       4.284   3.929  18.202  0.00  0.00    +0.000 C 
BRANCH  14  18
ATOM     15  C   UNL     1       7.085   4.846  14.118  0.00  0.00    +0.000 C 
ATOM     16  N   UNL     1       6.616   4.674  15.472  0.00  0.00    +0.000 N 
ATOM     17  C   UNL     1       5.345   4.375  15.868  0.00  0.00    +0.000 A 
ATOM     18  C   UNL     1       5.383   4.276  17.247  0.00  0.00    +0.000 A 
ATOM     19  C   UNL     1       6.734   4.548  17.569  0.00  0.00    +0.000 A 
ATOM     20  N   UNL     1       7.484   4.782  16.492  0.00  0.00    +0.000 NA
ENDBRANCH  14  18
BRANCH  14  21
ATOM     21  O   UNL     1       4.245   2.520  18.449  0.00  0.00    +0.000 OA
ATOM     22  H   UNL     1       4.070   2.088  17.598  0.00  0.00    +0.000 HD
ENDBRANCH  14  21
ENDBRANCH  13  14
ENDBRANCH   1  13
TORSDOF 5
ENDMDL
MODEL 4
REMARK VINA RESULT:      -6.7      2.923      4.074
REMARK  Name = 
REMARK  6 active torsions:
REMARK  status: ('A' for Active; 'I' for Inactive)
REMARK    1  A    between atoms: C_1  and  N_2
REMARK    2  A    between atoms: C_4  and  C_5
REMARK    3  A    between atoms: C_5  and  O_6
REMARK    4  A    between atoms: C_5  and  C_7
REMARK    5  A    between atoms: C_7  and  N_8
REMARK    6  A    between atoms: C_9  and  C_11
REMARK                            x       y       z     vdW  Elec       q    Type
REMARK                         _______ _______ _______ _____ _____    ______ ____
ROOT
ATOM      1  N   UNL     1       3.628   5.789  19.149  0.00  0.00    +0.000 N 
ATOM      2  C   UNL     1       2.505   6.009  19.909  0.00  0.00    +0.000 C 
ATOM      3  O   UNL     1       1.993   5.127  20.593  0.00  0.00    +0.000 OA
ATOM      4  H   UNL     1       3.941   6.502  18.501  0.00  0.00    +0.000 HD
ENDROOT
BRANCH   2   5
ATOM      5  C   UNL     1       1.929   7.384  19.935  0.00  0.00    +0.000 A 
ATOM      6  C   UNL     1       1.287   7.741  21.135  0.00  0.00    +0.000 A 
ATOM      7  C   UNL     1       0.742   9.011  21.297  0.00  0.00    +0.000 A 
ATOM      8 BR   UNL     1      -0.099   9.472  22.925  0.00  0.00    +0.000 Br
ATOM      9  C   UNL     1       0.819   9.945  20.269  0.00  0.00    +0.000 A 
ATOM     10  C   UNL     1       1.435   9.596  19.067  0.00  0.00    +0.000 A 
ATOM     11  C   UNL     1       1.986   8.319  18.890  0.00  0.00    +0.000 A 
ATOM     12 CL   UNL     1       2.677   7.993  17.339  0.00  0.00    +0.000 Cl
ENDBRANCH   2   5
BRANCH   1  13
ATOM     13  C   UNL     1       4.248   4.476  19.080  0.00  0.00    +0.000 C 
BRANCH  13  14
ATOM     14  C   UNL     1       5.781   4.486  18.878  0.00  0.00    +0.000 C 
BRANCH  14  18
ATOM     15  C   UNL     1       6.332   4.087  13.887  0.00  0.00    +0.000 C 
ATOM     16  N   UNL     1       6.413   4.506  15.266  0.00  0.00    +0.000 N 
ATOM     17  C   UNL     1       5.739   3.975  16.327  0.00  0.00    +0.000 A 
ATOM     18  C   UNL     1       6.161   4.674  17.443  0.00  0.00    +0.000 A 
ATOM     19  C   UNL     1       7.084   5.614  16.925  0.00  0.00    +0.000 A 
ATOM     20  N   UNL     1       7.243   5.506  15.605  0.00  0.00    +0.000 NA
ENDBRANCH  14  18
BRANCH  14  21
ATOM     21  O   UNL     1       6.354   5.507  19.699  0.00  0.00    +0.000 OA
ATOM     22  H   UNL     1       6.468   5.128  20.585  0.00  0.00    +0.000 HD
ENDBRANCH  14  21
ENDBRANCH  13  14
ENDBRANCH   1  13
TORSDOF 5
ENDMDL
MODEL 5
REMARK VINA RESULT:      -6.6      1.223      1.319
REMARK  Name = 
REMARK  6 active torsions:
REMARK  status: ('A' for Active; 'I' for Inactive)
REMARK    1  A    between atoms: C_1  and  N_2
REMARK    2  A    between atoms: C_4  and  C_5
REMARK    3  A    between atoms: C_5  and  O_6
REMARK    4  A    between atoms: C_5  and  C_7
REMARK    5  A    between atoms: C_7  and  N_8
REMARK    6  A    between atoms: C_9  and  C_11
REMARK                            x       y       z     vdW  Elec       q    Type
REMARK                         _______ _______ _______ _____ _____    ______ ____
ROOT
ATOM      1  N   UNL     1       5.727   4.817  17.743  0.00  0.00    +0.000 N 
ATOM      2  C   UNL     1       4.400   4.460  17.704  0.00  0.00    +0.000 C 
ATOM      3  O   UNL     1       3.954   3.691  16.858  0.00  0.00    +0.000 OA
ATOM      4  H   UNL     1       6.029   5.551  18.373  0.00  0.00    +0.000 HD
ENDROOT
BRANCH   2   5
ATOM      5  C   UNL     1       3.496   4.992  18.762  0.00  0.00    +0.000 A 
ATOM      6  C   UNL     1       3.092   6.329  18.586  0.00  0.00    +0.000 A 
ATOM      7  C   UNL     1       2.218   6.930  19.487  0.00  0.00    +0.000 A 
ATOM      8 BR   UNL     1       1.677   8.721  19.219  0.00  0.00    +0.000 Br
ATOM      9  C   UNL     1       1.735   6.217  20.579  0.00  0.00    +0.000 A 
ATOM     10  C   UNL     1       2.143   4.898  20.776  0.00  0.00    +0.000 A 
ATOM     11  C   UNL     1       3.026   4.281  19.877  0.00  0.00    +0.000 A 
ATOM     12 CL   UNL     1       3.496   2.661  20.257  0.00  0.00    +0.000 Cl
ENDBRANCH   2   5
BRANCH   1  13
ATOM     13  C   UNL     1       6.669   4.331  16.749  0.00  0.00    +0.000 C 
BRANCH  13  14
ATOM     14  C   UNL     1       6.987   5.325  15.607  0.00  0.00    +0.000 C 
BRANCH  14  18
ATOM     15  C   UNL     1       5.524   2.539  11.675  0.00  0.00    +0.000 C 
ATOM     16  N   UNL     1       6.177   3.498  12.533  0.00  0.00    +0.000 N 
ATOM     17  C   UNL     1       5.908   3.741  13.848  0.00  0.00    +0.000 A 
ATOM     18  C   UNL     1       6.804   4.712  14.255  0.00  0.00    +0.000 A 
ATOM     19  C   UNL     1       7.557   4.987  13.089  0.00  0.00    +0.000 A 
ATOM     20  N   UNL     1       7.182   4.245  12.046  0.00  0.00    +0.000 NA
ENDBRANCH  14  18
BRANCH  14  21
ATOM     21  O   UNL     1       6.167   6.488  15.759  0.00  0.00    +0.000 OA
ATOM     22  H   UNL     1       6.193   6.733  16.697  0.00  0.00    +0.000 HD
ENDBRANCH  14  21
ENDBRANCH  13  14
ENDBRANCH   1  13
TORSDOF 5
ENDMDL
MODEL 6
REMARK VINA RESULT:      -6.4      5.177      8.100
REMARK  Name = 
REMARK  6 active torsions:
REMARK  status: ('A' for Active; 'I' for Inactive)
REMARK    1  A    between atoms: C_1  and  N_2
REMARK    2  A    between atoms: C_4  and  C_5
REMARK    3  A    between atoms: C_5  and  O_6
REMARK    4  A    between atoms: C_5  and  C_7
REMARK    5  A    between atoms: C_7  and  N_8
REMARK    6  A    between atoms: C_9  and  C_11
REMARK                            x       y       z     vdW  Elec       q    Type
REMARK                         _______ _______ _______ _____ _____    ______ ____
ROOT
ATOM      1  N   UNL     1       2.296   7.897  17.780  0.00  0.00    +0.000 N 
ATOM      2  C   UNL     1       2.532   6.986  18.782  0.00  0.00    +0.000 C 
ATOM      3  O   UNL     1       2.416   7.274  19.969  0.00  0.00    +0.000 OA
ATOM      4  H   UNL     1       2.529   7.659  16.823  0.00  0.00    +0.000 HD
ENDROOT
BRANCH   2   5
ATOM      5  C   UNL     1       2.891   5.592  18.397  0.00  0.00    +0.000 A 
ATOM      6  C   UNL     1       3.891   5.482  17.413  0.00  0.00    +0.000 A 
ATOM      7  C   UNL     1       4.340   4.233  16.995  0.00  0.00    +0.000 A 
ATOM      8 BR   UNL     1       5.697   4.112  15.685  0.00  0.00    +0.000 Br
ATOM      9  C   UNL     1       3.800   3.073  17.541  0.00  0.00    +0.000 A 
ATOM     10  C   UNL     1       2.793   3.168  18.502  0.00  0.00    +0.000 A 
ATOM     11  C   UNL     1       2.330   4.421  18.930  0.00  0.00    +0.000 A 
ATOM     12 CL   UNL     1       1.046   4.406  20.088  0.00  0.00    +0.000 Cl
ENDBRANCH   2   5
BRANCH   1  13
ATOM     13  C   UNL     1       1.936   9.273  18.080  0.00  0.00    +0.000 C 
BRANCH  13  14
ATOM     14  C   UNL     1       0.457   9.491  18.475  0.00  0.00    +0.000 C 
BRANCH  14  18
ATOM     15  C   UNL     1      -0.817  10.318  23.277  0.00  0.00    +0.000 C 
ATOM     16  N   UNL     1      -0.238  10.403  21.958  0.00  0.00    +0.000 N 
ATOM     17  C   UNL     1      -0.393   9.516  20.934  0.00  0.00    +0.000 A 
ATOM     18  C   UNL     1       0.315  10.030  19.863  0.00  0.00    +0.000 A 
ATOM     19  C   UNL     1       0.869  11.230  20.369  0.00  0.00    +0.000 A 
ATOM     20  N   UNL     1       0.526  11.461  21.638  0.00  0.00    +0.000 NA
ENDBRANCH  14  18
BRANCH  14  21
ATOM     21  O   UNL     1      -0.157  10.363  17.521  0.00  0.00    +0.000 OA
ATOM     22  H   UNL     1      -1.066  10.049  17.394  0.00  0.00    +0.000 HD
ENDBRANCH  14  21
ENDBRANCH  13  14
ENDBRANCH   1  13
TORSDOF 5
ENDMDL
MODEL 7
REMARK VINA RESULT:      -6.4      4.404      7.347
REMARK  Name = 
REMARK  6 active torsions:
REMARK  status: ('A' for Active; 'I' for Inactive)
REMARK    1  A    between atoms: C_1  and  N_2
REMARK    2  A    between atoms: C_4  and  C_5
REMARK    3  A    between atoms: C_5  and  O_6
REMARK    4  A    between atoms: C_5  and  C_7
REMARK    5  A    between atoms: C_7  and  N_8
REMARK    6  A    between atoms: C_9  and  C_11
REMARK                            x       y       z     vdW  Elec       q    Type
REMARK                         _______ _______ _______ _____ _____    ______ ____
ROOT
ATOM      1  N   UNL     1       2.590   7.009  18.314  0.00  0.00    +0.000 N 
ATOM      2  C   UNL     1       3.677   6.177  18.200  0.00  0.00    +0.000 C 
ATOM      3  O   UNL     1       4.805   6.601  17.969  0.00  0.00    +0.000 OA
ATOM      4  H   UNL     1       1.659   6.612  18.375  0.00  0.00    +0.000 HD
ENDROOT
BRANCH   2   5
ATOM      5  C   UNL     1       3.472   4.717  18.418  0.00  0.00    +0.000 A 
ATOM      6  C   UNL     1       2.806   4.378  19.610  0.00  0.00    +0.000 A 
ATOM      7  C   UNL     1       2.521   3.049  19.910  0.00  0.00    +0.000 A 
ATOM      8 BR   UNL     1       1.609   2.621  21.509  0.00  0.00    +0.000 Br
ATOM      9  C   UNL     1       2.898   2.035  19.036  0.00  0.00    +0.000 A 
ATOM     10  C   UNL     1       3.578   2.356  17.861  0.00  0.00    +0.000 A 
ATOM     11  C   UNL     1       3.873   3.691  17.548  0.00  0.00    +0.000 A 
ATOM     12 CL   UNL     1       4.762   3.955  16.088  0.00  0.00    +0.000 Cl
ENDBRANCH   2   5
BRANCH   1  13
ATOM     13  C   UNL     1       2.715   8.445  18.122  0.00  0.00    +0.000 C 
BRANCH  13  14
ATOM     14  C   UNL     1       1.393   9.239  18.242  0.00  0.00    +0.000 C 
BRANCH  14  18
ATOM     15  C   UNL     1       0.252   9.410  23.145  0.00  0.00    +0.000 C 
ATOM     16  N   UNL     1       0.611   9.748  21.788  0.00  0.00    +0.000 N 
ATOM     17  C   UNL     1       0.834   8.882  20.758  0.00  0.00    +0.000 A 
ATOM     18  C   UNL     1       1.112   9.661  19.650  0.00  0.00    +0.000 A 
ATOM     19  C   UNL     1       1.039  10.986  20.141  0.00  0.00    +0.000 A 
ATOM     20  N   UNL     1       0.727  11.039  21.437  0.00  0.00    +0.000 NA
ENDBRANCH  14  18
BRANCH  14  21
ATOM     21  O   UNL     1       1.447  10.371  17.368  0.00  0.00    +0.000 OA
ATOM     22  H   UNL     1       2.274  10.302  16.866  0.00  0.00    +0.000 HD
ENDBRANCH  14  21
ENDBRANCH  13  14
ENDBRANCH   1  13
TORSDOF 5
ENDMDL
MODEL 8
REMARK VINA RESULT:      -6.4      3.737      7.022
REMARK  Name = 
REMARK  6 active torsions:
REMARK  status: ('A' for Active; 'I' for Inactive)
REMARK    1  A    between atoms: C_1  and  N_2
REMARK    2  A    between atoms: C_4  and  C_5
REMARK    3  A    between atoms: C_5  and  O_6
REMARK    4  A    between atoms: C_5  and  C_7
REMARK    5  A    between atoms: C_7  and  N_8
REMARK    6  A    between atoms: C_9  and  C_11
REMARK                            x       y       z     vdW  Elec       q    Type
REMARK                         _______ _______ _______ _____ _____    ______ ____
ROOT
ATOM      1  N   UNL     1       3.483   2.472  17.625  0.00  0.00    +0.000 N 
ATOM      2  C   UNL     1       4.465   3.384  17.931  0.00  0.00    +0.000 C 
ATOM      3  O   UNL     1       5.044   3.384  19.012  0.00  0.00    +0.000 OA
ATOM      4  H   UNL     1       2.941   2.586  16.776  0.00  0.00    +0.000 HD
ENDROOT
BRANCH   2   5
ATOM      5  C   UNL     1       4.864   4.367  16.883  0.00  0.00    +0.000 A 
ATOM      6  C   UNL     1       5.415   3.806  15.716  0.00  0.00    +0.000 A 
ATOM      7  C   UNL     1       5.792   4.617  14.650  0.00  0.00    +0.000 A 
ATOM      8 BR   UNL     1       6.514   3.838  13.087  0.00  0.00    +0.000 Br
ATOM      9  C   UNL     1       5.635   5.997  14.727  0.00  0.00    +0.000 A 
ATOM     10  C   UNL     1       5.109   6.566  15.887  0.00  0.00    +0.000 A 
ATOM     11  C   UNL     1       4.727   5.760  16.969  0.00  0.00    +0.000 A 
ATOM     12 CL   UNL     1       4.136   6.589  18.367  0.00  0.00    +0.000 Cl
ENDBRANCH   2   5
BRANCH   1  13
ATOM     13  C   UNL     1       3.047   1.480  18.593  0.00  0.00    +0.000 C 
BRANCH  13  14
ATOM     14  C   UNL     1       1.716   1.806  19.311  0.00  0.00    +0.000 C 
BRANCH  14  18
ATOM     15  C   UNL     1       1.466   6.617  20.778  0.00  0.00    +0.000 C 
ATOM     16  N   UNL     1       1.682   5.191  20.718  0.00  0.00    +0.000 N 
ATOM     17  C   UNL     1       1.355   4.354  19.692  0.00  0.00    +0.000 A 
ATOM     18  C   UNL     1       1.782   3.094  20.069  0.00  0.00    +0.000 A 
ATOM     19  C   UNL     1       2.342   3.296  21.353  0.00  0.00    +0.000 A 
ATOM     20  N   UNL     1       2.289   4.570  21.743  0.00  0.00    +0.000 NA
ENDBRANCH  14  18
BRANCH  14  21
ATOM     21  O   UNL     1       0.660   1.832  18.346  0.00  0.00    +0.000 OA
ATOM     22  H   UNL     1       0.239   0.957  18.362  0.00  0.00    +0.000 HD
ENDBRANCH  14  21
ENDBRANCH  13  14
ENDBRANCH   1  13
TORSDOF 5
ENDMDL
MODEL 9
REMARK VINA RESULT:      -6.4      5.625      8.483
REMARK  Name = 
REMARK  6 active torsions:
REMARK  status: ('A' for Active; 'I' for Inactive)
REMARK    1  A    between atoms: C_1  and  N_2
REMARK    2  A    between atoms: C_4  and  C_5
REMARK    3  A    between atoms: C_5  and  O_6
REMARK    4  A    between atoms: C_5  and  C_7
REMARK    5  A    between atoms: C_7  and  N_8
REMARK    6  A    between atoms: C_9  and  C_11
REMARK                            x       y       z     vdW  Elec       q    Type
REMARK                         _______ _______ _______ _____ _____    ______ ____
ROOT
ATOM      1  N   UNL     1       2.062   8.366  17.758  0.00  0.00    +0.000 N 
ATOM      2  C   UNL     1       2.384   7.424  18.706  0.00  0.00    +0.000 C 
ATOM      3  O   UNL     1       2.297   7.650  19.909  0.00  0.00    +0.000 OA
ATOM      4  H   UNL     1       2.271   8.185  16.783  0.00  0.00    +0.000 HD
ENDROOT
BRANCH   2   5
ATOM      5  C   UNL     1       2.802   6.071  18.241  0.00  0.00    +0.000 A 
ATOM      6  C   UNL     1       1.950   5.018  18.623  0.00  0.00    +0.000 A 
ATOM      7  C   UNL     1       2.212   3.712  18.219  0.00  0.00    +0.000 A 
ATOM      8 BR   UNL     1       1.042   2.319  18.730  0.00  0.00    +0.000 Br
ATOM      9  C   UNL     1       3.326   3.429  17.436  0.00  0.00    +0.000 A 
ATOM     10  C   UNL     1       4.190   4.461  17.068  0.00  0.00    +0.000 A 
ATOM     11  C   UNL     1       3.938   5.781  17.471  0.00  0.00    +0.000 A 
ATOM     12 CL   UNL     1       5.109   6.961  16.993  0.00  0.00    +0.000 Cl
ENDBRANCH   2   5
BRANCH   1  13
ATOM     13  C   UNL     1       1.640   9.704  18.137  0.00  0.00    +0.000 C 
BRANCH  13  14
ATOM     14  C   UNL     1       0.145   9.839  18.509  0.00  0.00    +0.000 C 
BRANCH  14  18
ATOM     15  C   UNL     1      -1.545  12.835  22.188  0.00  0.00    +0.000 C 
ATOM     16  N   UNL     1      -0.781  11.901  21.396  0.00  0.00    +0.000 N 
ATOM     17  C   UNL     1      -1.093  11.429  20.155  0.00  0.00    +0.000 A 
ATOM     18  C   UNL     1      -0.055  10.593  19.785  0.00  0.00    +0.000 A 
ATOM     19  C   UNL     1       0.822  10.631  20.896  0.00  0.00    +0.000 A 
ATOM     20  N   UNL     1       0.386  11.431  21.870  0.00  0.00    +0.000 NA
ENDBRANCH  14  18
BRANCH  14  21
ATOM     21  O   UNL     1      -0.551  10.466  17.427  0.00  0.00    +0.000 OA
ATOM     22  H   UNL     1      -1.338  10.890  17.804  0.00  0.00    +0.000 HD
ENDBRANCH  14  21
ENDBRANCH  13  14
ENDBRANCH   1  13
TORSDOF 5
ENDMDL
