MODEL 1
REMARK VINA RESULT:      -7.8      0.000      0.000
REMARK  Name = 
REMARK  9 active torsions:
REMARK  status: ('A' for Active; 'I' for Inactive)
REMARK    1  A    between atoms: C_1  and  C_2
REMARK    2  A    between atoms: C_2  and  C_3
REMARK    3  A    between atoms: C_3  and  C_4
REMARK    4  A    between atoms: C_4  and  C_5
REMARK    5  A    between atoms: C_5  and  N_6
REMARK    6  A    between atoms: C_8  and  C_9
REMARK    7  A    between atoms: C_12  and  O_13
REMARK    8  A    between atoms: O_13  and  C_14
REMARK    9  A    between atoms: C_14  and  C_15
REMARK                            x       y       z     vdW  Elec       q    Type
REMARK                         _______ _______ _______ _____ _____    ______ ____
ROOT
ATOM      1  C   UNL     1       6.213   5.771  18.116  0.00  0.00    +0.000 A 
ATOM      2  C   UNL     1       5.858   6.787  17.225  0.00  0.00    +0.000 A 
ATOM      3  C   UNL     1       6.666   7.924  17.094  0.00  0.00    +0.000 A 
ATOM      4  C   UNL     1       7.825   8.062  17.870  0.00  0.00    +0.000 A 
ATOM      5  C   UNL     1       8.203   7.030  18.725  0.00  0.00    +0.000 A 
ATOM      6  C   UNL     1       7.399   5.891  18.853  0.00  0.00    +0.000 A 
ENDROOT
BRANCH   1   9
ATOM      7  N   UNL     1       3.960   3.028  18.178  0.00  0.00    +0.000 N 
ATOM      8  N   UNL     1       4.419   4.135  17.493  0.00  0.00    +0.000 NA
ATOM      9  C   UNL     1       5.347   4.593  18.280  0.00  0.00    +0.000 A 
ATOM     10  O   UNL     1       5.546   3.897  19.425  0.00  0.00    +0.000 OA
ATOM     11  C   UNL     1       4.644   2.888  19.356  0.00  0.00    +0.000 A 
ATOM     12  S   UNL     1       4.554   1.790  20.581  0.00  0.00    +0.000 S 
BRANCH   7  13
ATOM     13  C   UNL     1       2.879   2.202  17.661  0.00  0.00    +0.000 C 
BRANCH  13  14
ATOM     14  C   UNL     1       1.565   2.362  18.429  0.00  0.00    +0.000 C 
BRANCH  14  15
ATOM     15  C   UNL     1       1.234   3.819  18.757  0.00  0.00    +0.000 C 
BRANCH  15  17
ATOM     16  C   UNL     1       2.070   4.947  20.855  0.00  0.00    +0.000 C 
ATOM     17  C   UNL     1       1.024   4.018  20.259  0.00  0.00    +0.000 C 
ENDBRANCH  15  17
ENDBRANCH  14  15
ENDBRANCH  13  14
ENDBRANCH   7  13
ENDBRANCH   1   9
BRANCH   4  18
ATOM     18  O   UNL     1       8.648   9.162  17.864  0.00  0.00    +0.000 OA
BRANCH  18  19
ATOM     19  C   UNL     1       8.888   9.747  19.147  0.00  0.00    +0.000 C 
BRANCH  19  20
ATOM     20  C   UNL     1       9.923  10.842  19.039  0.00  0.00    +0.000 A 
ATOM     21  C   UNL     1      10.500  11.405  20.185  0.00  0.00    +0.000 A 
ATOM     22  C   UNL     1      11.462  12.411  20.070  0.00  0.00    +0.000 A 
ATOM     23  C   UNL     1      11.857  12.862  18.811  0.00  0.00    +0.000 A 
ATOM     24  C   UNL     1      11.301  12.301  17.665  0.00  0.00    +0.000 A 
ATOM     25  C   UNL     1      10.340  11.295  17.778  0.00  0.00    +0.000 A 
ENDBRANCH  19  20
ENDBRANCH  18  19
ENDBRANCH   4  18
TORSDOF 8
ENDMDL
MODEL 2
REMARK VINA RESULT:      -7.7      5.175      8.370
REMARK  Name = 
REMARK  9 active torsions:
REMARK  status: ('A' for Active; 'I' for Inactive)
REMARK    1  A    between atoms: C_1  and  C_2
REMARK    2  A    between atoms: C_2  and  C_3
REMARK    3  A    between atoms: C_3  and  C_4
REMARK    4  A    between atoms: C_4  and  C_5
REMARK    5  A    between atoms: C_5  and  N_6
REMARK    6  A    between atoms: C_8  and  C_9
REMARK    7  A    between atoms: C_12  and  O_13
REMARK    8  A    between atoms: O_13  and  C_14
REMARK    9  A    between atoms: C_14  and  C_15
REMARK                            x       y       z     vdW  Elec       q    Type
REMARK                         _______ _______ _______ _____ _____    ______ ____
ROOT
ATOM      1  C   UNL     1       2.558   7.217  18.508  0.00  0.00    +0.000 A 
ATOM      2  C   UNL     1       2.268   8.232  17.592  0.00  0.00    +0.000 A 
ATOM      3  C   UNL     1       1.549   9.363  17.999  0.00  0.00    +0.000 A 
ATOM      4  C   UNL     1       1.097   9.477  19.321  0.00  0.00    +0.000 A 
ATOM      5  C   UNL     1       1.423   8.488  20.244  0.00  0.00    +0.000 A 
ATOM      6  C   UNL     1       2.147   7.359  19.840  0.00  0.00    +0.000 A 
ENDROOT
BRANCH   1   9
ATOM      7  N   UNL     1       4.543   4.547  17.268  0.00  0.00    +0.000 N 
ATOM      8  N   UNL     1       4.347   5.911  17.333  0.00  0.00    +0.000 NA
ATOM      9  C   UNL     1       3.283   6.013  18.073  0.00  0.00    +0.000 A 
ATOM     10  O   UNL     1       2.751   4.843  18.504  0.00  0.00    +0.000 OA
ATOM     11  C   UNL     1       3.567   3.898  17.976  0.00  0.00    +0.000 A 
ATOM     12  S   UNL     1       3.262   2.305  18.265  0.00  0.00    +0.000 S 
BRANCH   7  13
ATOM     13  C   UNL     1       5.638   3.966  16.505  0.00  0.00    +0.000 C 
BRANCH  13  14
ATOM     14  C   UNL     1       6.909   4.818  16.511  0.00  0.00    +0.000 C 
BRANCH  14  15
ATOM     15  C   UNL     1       7.741   4.648  17.783  0.00  0.00    +0.000 C 
BRANCH  15  17
ATOM     16  C   UNL     1       7.734   7.169  17.904  0.00  0.00    +0.000 C 
ATOM     17  C   UNL     1       7.625   5.873  18.692  0.00  0.00    +0.000 C 
ENDBRANCH  15  17
ENDBRANCH  14  15
ENDBRANCH  13  14
ENDBRANCH   7  13
ENDBRANCH   1   9
BRANCH   4  18
ATOM     18  O   UNL     1       0.332  10.512  19.803  0.00  0.00    +0.000 OA
BRANCH  18  19
ATOM     19  C   UNL     1      -0.118  11.445  18.817  0.00  0.00    +0.000 C 
BRANCH  19  20
ATOM     20  C   UNL     1      -1.572  11.201  18.488  0.00  0.00    +0.000 A 
ATOM     21  C   UNL     1      -2.585  11.963  19.088  0.00  0.00    +0.000 A 
ATOM     22  C   UNL     1      -3.925  11.731  18.769  0.00  0.00    +0.000 A 
ATOM     23  C   UNL     1      -4.265  10.741  17.849  0.00  0.00    +0.000 A 
ATOM     24  C   UNL     1      -3.267   9.986  17.237  0.00  0.00    +0.000 A 
ATOM     25  C   UNL     1      -1.928  10.216  17.554  0.00  0.00    +0.000 A 
ENDBRANCH  19  20
ENDBRANCH  18  19
ENDBRANCH   4  18
TORSDOF 8
ENDMDL
MODEL 3
REMARK VINA RESULT:      -7.4      5.423      8.538
REMARK  Name = 
REMARK  9 active torsions:
REMARK  status: ('A' for Active; 'I' for Inactive)
REMARK    1  A    between atoms: C_1  and  C_2
REMARK    2  A    between atoms: C_2  and  C_3
REMARK    3  A    between atoms: C_3  and  C_4
REMARK    4  A    between atoms: C_4  and  C_5
REMARK    5  A    between atoms: C_5  and  N_6
REMARK    6  A    between atoms: C_8  and  C_9
REMARK    7  A    between atoms: C_12  and  O_13
REMARK    8  A    between atoms: O_13  and  C_14
REMARK    9  A    between atoms: C_14  and  C_15
REMARK                            x       y       z     vdW  Elec       q    Type
REMARK                         _______ _______ _______ _____ _____    ______ ____
ROOT
ATOM      1  C   UNL     1       5.380   5.035  16.240  0.00  0.00    +0.000 A 
ATOM      2  C   UNL     1       5.550   4.185  17.337  0.00  0.00    +0.000 A 
ATOM      3  C   UNL     1       4.992   4.517  18.578  0.00  0.00    +0.000 A 
ATOM      4  C   UNL     1       4.276   5.712  18.736  0.00  0.00    +0.000 A 
ATOM      5  C   UNL     1       4.069   6.536  17.634  0.00  0.00    +0.000 A 
ATOM      6  C   UNL     1       4.622   6.203  16.391  0.00  0.00    +0.000 A 
ENDROOT
BRANCH   1   9
ATOM      7  N   UNL     1       6.640   3.927  13.111  0.00  0.00    +0.000 N 
ATOM      8  N   UNL     1       5.758   3.705  14.149  0.00  0.00    +0.000 NA
ATOM      9  C   UNL     1       5.996   4.705  14.945  0.00  0.00    +0.000 A 
ATOM     10  O   UNL     1       6.955   5.569  14.535  0.00  0.00    +0.000 OA
ATOM     11  C   UNL     1       7.372   5.059  13.351  0.00  0.00    +0.000 A 
ATOM     12  S   UNL     1       8.559   5.827  12.506  0.00  0.00    +0.000 S 
BRANCH   7  13
ATOM     13  C   UNL     1       6.734   3.018  11.978  0.00  0.00    +0.000 C 
BRANCH  13  14
ATOM     14  C   UNL     1       5.379   2.488  11.503  0.00  0.00    +0.000 C 
BRANCH  14  15
ATOM     15  C   UNL     1       4.315   3.581  11.384  0.00  0.00    +0.000 C 
BRANCH  15  17
ATOM     16  C   UNL     1       2.906   4.283   9.411  0.00  0.00    +0.000 C 
ATOM     17  C   UNL     1       3.209   3.176  10.408  0.00  0.00    +0.000 C 
ENDBRANCH  15  17
ENDBRANCH  14  15
ENDBRANCH  13  14
ENDBRANCH   7  13
ENDBRANCH   1   9
BRANCH   4  18
ATOM     18  O   UNL     1       3.746   6.159  19.922  0.00  0.00    +0.000 OA
BRANCH  18  19
ATOM     19  C   UNL     1       2.319   6.116  20.003  0.00  0.00    +0.000 C 
BRANCH  19  20
ATOM     20  C   UNL     1       1.835   4.685  19.990  0.00  0.00    +0.000 A 
ATOM     21  C   UNL     1       1.856   3.906  21.154  0.00  0.00    +0.000 A 
ATOM     22  C   UNL     1       1.398   2.586  21.129  0.00  0.00    +0.000 A 
ATOM     23  C   UNL     1       0.915   2.035  19.943  0.00  0.00    +0.000 A 
ATOM     24  C   UNL     1       0.878   2.804  18.783  0.00  0.00    +0.000 A 
ATOM     25  C   UNL     1       1.333   4.122  18.806  0.00  0.00    +0.000 A 
ENDBRANCH  19  20
ENDBRANCH  18  19
ENDBRANCH   4  18
TORSDOF 8
ENDMDL
MODEL 4
REMARK VINA RESULT:      -7.4      5.455      8.664
REMARK  Name = 
REMARK  9 active torsions:
REMARK  status: ('A' for Active; 'I' for Inactive)
REMARK    1  A    between atoms: C_1  and  C_2
REMARK    2  A    between atoms: C_2  and  C_3
REMARK    3  A    between atoms: C_3  and  C_4
REMARK    4  A    between atoms: C_4  and  C_5
REMARK    5  A    between atoms: C_5  and  N_6
REMARK    6  A    between atoms: C_8  and  C_9
REMARK    7  A    between atoms: C_12  and  O_13
REMARK    8  A    between atoms: O_13  and  C_14
REMARK    9  A    between atoms: C_14  and  C_15
REMARK                            x       y       z     vdW  Elec       q    Type
REMARK                         _______ _______ _______ _____ _____    ______ ____
ROOT
ATOM      1  C   UNL     1       2.645   7.511  18.644  0.00  0.00    +0.000 A 
ATOM      2  C   UNL     1       2.028   7.687  19.885  0.00  0.00    +0.000 A 
ATOM      3  C   UNL     1       1.165   8.770  20.096  0.00  0.00    +0.000 A 
ATOM      4  C   UNL     1       0.929   9.698  19.072  0.00  0.00    +0.000 A 
ATOM      5  C   UNL     1       1.509   9.499  17.822  0.00  0.00    +0.000 A 
ATOM      6  C   UNL     1       2.367   8.413  17.608  0.00  0.00    +0.000 A 
ENDROOT
BRANCH   1   9
ATOM      7  N   UNL     1       5.069   5.036  17.868  0.00  0.00    +0.000 N 
ATOM      8  N   UNL     1       4.600   6.312  17.631  0.00  0.00    +0.000 NA
ATOM      9  C   UNL     1       3.579   6.394  18.432  0.00  0.00    +0.000 A 
ATOM     10  O   UNL     1       3.323   5.291  19.176  0.00  0.00    +0.000 OA
ATOM     11  C   UNL     1       4.288   4.414  18.804  0.00  0.00    +0.000 A 
ATOM     12  S   UNL     1       4.334   2.916  19.488  0.00  0.00    +0.000 S 
BRANCH   7  13
ATOM     13  C   UNL     1       6.219   4.499  17.155  0.00  0.00    +0.000 C 
BRANCH  13  14
ATOM     14  C   UNL     1       5.849   3.742  15.877  0.00  0.00    +0.000 C 
BRANCH  14  15
ATOM     15  C   UNL     1       6.211   4.505  14.601  0.00  0.00    +0.000 C 
BRANCH  15  17
ATOM     16  C   UNL     1       6.550   3.557  12.286  0.00  0.00    +0.000 C 
ATOM     17  C   UNL     1       5.539   3.886  13.374  0.00  0.00    +0.000 C 
ENDBRANCH  15  17
ENDBRANCH  14  15
ENDBRANCH  13  14
ENDBRANCH   7  13
ENDBRANCH   1   9
BRANCH   4  18
ATOM     18  O   UNL     1       0.154  10.825  19.196  0.00  0.00    +0.000 OA
BRANCH  18  19
ATOM     19  C   UNL     1      -1.213  10.586  19.546  0.00  0.00    +0.000 C 
BRANCH  19  20
ATOM     20  C   UNL     1      -2.091  10.670  18.321  0.00  0.00    +0.000 A 
ATOM     21  C   UNL     1      -1.820   9.895  17.185  0.00  0.00    +0.000 A 
ATOM     22  C   UNL     1      -2.645   9.977  16.061  0.00  0.00    +0.000 A 
ATOM     23  C   UNL     1      -3.747  10.832  16.062  0.00  0.00    +0.000 A 
ATOM     24  C   UNL     1      -4.033  11.598  17.189  0.00  0.00    +0.000 A 
ATOM     25  C   UNL     1      -3.210  11.516  18.313  0.00  0.00    +0.000 A 
ENDBRANCH  19  20
ENDBRANCH  18  19
ENDBRANCH   4  18
TORSDOF 8
ENDMDL
MODEL 5
REMARK VINA RESULT:      -7.4      5.516      8.593
REMARK  Name = 
REMARK  9 active torsions:
REMARK  status: ('A' for Active; 'I' for Inactive)
REMARK    1  A    between atoms: C_1  and  C_2
REMARK    2  A    between atoms: C_2  and  C_3
REMARK    3  A    between atoms: C_3  and  C_4
REMARK    4  A    between atoms: C_4  and  C_5
REMARK    5  A    between atoms: C_5  and  N_6
REMARK    6  A    between atoms: C_8  and  C_9
REMARK    7  A    between atoms: C_12  and  O_13
REMARK    8  A    between atoms: O_13  and  C_14
REMARK    9  A    between atoms: C_14  and  C_15
REMARK                            x       y       z     vdW  Elec       q    Type
REMARK                         _______ _______ _______ _____ _____    ______ ____
ROOT
ATOM      1  C   UNL     1       2.501   7.317  18.765  0.00  0.00    +0.000 A 
ATOM      2  C   UNL     1       2.321   8.317  17.806  0.00  0.00    +0.000 A 
ATOM      3  C   UNL     1       1.596   9.474  18.122  0.00  0.00    +0.000 A 
ATOM      4  C   UNL     1       1.028   9.627  19.395  0.00  0.00    +0.000 A 
ATOM      5  C   UNL     1       1.244   8.652  20.363  0.00  0.00    +0.000 A 
ATOM      6  C   UNL     1       1.973   7.498  20.050  0.00  0.00    +0.000 A 
ENDROOT
BRANCH   1   9
ATOM      7  N   UNL     1       4.347   4.515  17.604  0.00  0.00    +0.000 N 
ATOM      8  N   UNL     1       3.903   5.797  17.348  0.00  0.00    +0.000 NA
ATOM      9  C   UNL     1       3.232   6.087  18.423  0.00  0.00    +0.000 A 
ATOM     10  O   UNL     1       3.186   5.117  19.369  0.00  0.00    +0.000 OA
ATOM     11  C   UNL     1       3.905   4.101  18.832  0.00  0.00    +0.000 A 
ATOM     12  S   UNL     1       4.096   2.702  19.679  0.00  0.00    +0.000 S 
BRANCH   7  13
ATOM     13  C   UNL     1       5.141   3.772  16.636  0.00  0.00    +0.000 C 
BRANCH  13  14
ATOM     14  C   UNL     1       5.383   4.532  15.330  0.00  0.00    +0.000 C 
BRANCH  14  15
ATOM     15  C   UNL     1       6.848   4.516  14.888  0.00  0.00    +0.000 C 
BRANCH  15  17
ATOM     16  C   UNL     1       6.241   3.570  12.627  0.00  0.00    +0.000 C 
ATOM     17  C   UNL     1       6.973   4.676  13.372  0.00  0.00    +0.000 C 
ENDBRANCH  15  17
ENDBRANCH  14  15
ENDBRANCH  13  14
ENDBRANCH   7  13
ENDBRANCH   1   9
BRANCH   4  18
ATOM     18  O   UNL     1       0.248  10.690  19.783  0.00  0.00    +0.000 OA
BRANCH  18  19
ATOM     19  C   UNL     1      -0.203  11.533  18.719  0.00  0.00    +0.000 C 
BRANCH  19  20
ATOM     20  C   UNL     1      -1.641  11.226  18.378  0.00  0.00    +0.000 A 
ATOM     21  C   UNL     1      -1.968  10.181  17.502  0.00  0.00    +0.000 A 
ATOM     22  C   UNL     1      -3.304   9.903  17.202  0.00  0.00    +0.000 A 
ATOM     23  C   UNL     1      -4.323  10.663  17.774  0.00  0.00    +0.000 A 
ATOM     24  C   UNL     1      -4.011  11.695  18.656  0.00  0.00    +0.000 A 
ATOM     25  C   UNL     1      -2.678  11.973  18.958  0.00  0.00    +0.000 A 
ENDBRANCH  19  20
ENDBRANCH  18  19
ENDBRANCH   4  18
TORSDOF 8
ENDMDL
MODEL 6
REMARK VINA RESULT:      -7.2      5.445      8.141
REMARK  Name = 
REMARK  9 active torsions:
REMARK  status: ('A' for Active; 'I' for Inactive)
REMARK    1  A    between atoms: C_1  and  C_2
REMARK    2  A    between atoms: C_2  and  C_3
REMARK    3  A    between atoms: C_3  and  C_4
REMARK    4  A    between atoms: C_4  and  C_5
REMARK    5  A    between atoms: C_5  and  N_6
REMARK    6  A    between atoms: C_8  and  C_9
REMARK    7  A    between atoms: C_12  and  O_13
REMARK    8  A    between atoms: O_13  and  C_14
REMARK    9  A    between atoms: C_14  and  C_15
REMARK                            x       y       z     vdW  Elec       q    Type
REMARK                         _______ _______ _______ _____ _____    ______ ____
ROOT
ATOM      1  C   UNL     1       2.438   7.535  18.818  0.00  0.00    +0.000 A 
ATOM      2  C   UNL     1       1.792   7.846  20.017  0.00  0.00    +0.000 A 
ATOM      3  C   UNL     1       1.083   9.047  20.145  0.00  0.00    +0.000 A 
ATOM      4  C   UNL     1       1.034   9.957  19.079  0.00  0.00    +0.000 A 
ATOM      5  C   UNL     1       1.640   9.628  17.871  0.00  0.00    +0.000 A 
ATOM      6  C   UNL     1       2.344   8.424  17.739  0.00  0.00    +0.000 A 
ENDROOT
BRANCH   1   9
ATOM      7  N   UNL     1       4.228   4.469  18.892  0.00  0.00    +0.000 N 
ATOM      8  N   UNL     1       3.453   5.375  19.587  0.00  0.00    +0.000 NA
ATOM      9  C   UNL     1       3.212   6.289  18.695  0.00  0.00    +0.000 A 
ATOM     10  O   UNL     1       3.757   6.078  17.472  0.00  0.00    +0.000 OA
ATOM     11  C   UNL     1       4.417   4.902  17.606  0.00  0.00    +0.000 A 
ATOM     12  S   UNL     1       5.235   4.275  16.321  0.00  0.00    +0.000 S 
BRANCH   7  13
ATOM     13  C   UNL     1       4.754   3.268  19.524  0.00  0.00    +0.000 C 
BRANCH  13  14
ATOM     14  C   UNL     1       3.678   2.235  19.868  0.00  0.00    +0.000 C 
BRANCH  14  15
ATOM     15  C   UNL     1       2.490   2.262  18.905  0.00  0.00    +0.000 C 
BRANCH  15  17
ATOM     16  C   UNL     1       1.412   2.759  21.133  0.00  0.00    +0.000 C 
ATOM     17  C   UNL     1       1.185   2.569  19.641  0.00  0.00    +0.000 C 
ENDBRANCH  15  17
ENDBRANCH  14  15
ENDBRANCH  13  14
ENDBRANCH   7  13
ENDBRANCH   1   9
BRANCH   4  18
ATOM     18  O   UNL     1       0.422  11.186  19.124  0.00  0.00    +0.000 OA
BRANCH  18  19
ATOM     19  C   UNL     1      -0.898  11.188  19.676  0.00  0.00    +0.000 C 
BRANCH  19  20
ATOM     20  C   UNL     1      -1.924  11.010  18.582  0.00  0.00    +0.000 A 
ATOM     21  C   UNL     1      -3.150  11.687  18.626  0.00  0.00    +0.000 A 
ATOM     22  C   UNL     1      -4.087  11.520  17.604  0.00  0.00    +0.000 A 
ATOM     23  C   UNL     1      -3.807  10.677  16.529  0.00  0.00    +0.000 A 
ATOM     24  C   UNL     1      -2.586  10.009  16.468  0.00  0.00    +0.000 A 
ATOM     25  C   UNL     1      -1.649  10.176  17.487  0.00  0.00    +0.000 A 
ENDBRANCH  19  20
ENDBRANCH  18  19
ENDBRANCH   4  18
TORSDOF 8
ENDMDL
MODEL 7
REMARK VINA RESULT:      -7.1      5.773      8.426
REMARK  Name = 
REMARK  9 active torsions:
REMARK  status: ('A' for Active; 'I' for Inactive)
REMARK    1  A    between atoms: C_1  and  C_2
REMARK    2  A    between atoms: C_2  and  C_3
REMARK    3  A    between atoms: C_3  and  C_4
REMARK    4  A    between atoms: C_4  and  C_5
REMARK    5  A    between atoms: C_5  and  N_6
REMARK    6  A    between atoms: C_8  and  C_9
REMARK    7  A    between atoms: C_12  and  O_13
REMARK    8  A    between atoms: O_13  and  C_14
REMARK    9  A    between atoms: C_14  and  C_15
REMARK                            x       y       z     vdW  Elec       q    Type
REMARK                         _______ _______ _______ _____ _____    ______ ____
ROOT
ATOM      1  C   UNL     1       2.193   7.908  18.803  0.00  0.00    +0.000 A 
ATOM      2  C   UNL     1       1.696   8.015  20.105  0.00  0.00    +0.000 A 
ATOM      3  C   UNL     1       0.913   9.117  20.472  0.00  0.00    +0.000 A 
ATOM      4  C   UNL     1       0.639  10.131  19.545  0.00  0.00    +0.000 A 
ATOM      5  C   UNL     1       1.097  10.004  18.236  0.00  0.00    +0.000 A 
ATOM      6  C   UNL     1       1.875   8.900  17.866  0.00  0.00    +0.000 A 
ENDROOT
BRANCH   1   9
ATOM      7  N   UNL     1       4.098   4.975  18.196  0.00  0.00    +0.000 N 
ATOM      8  N   UNL     1       3.146   5.596  18.978  0.00  0.00    +0.000 NA
ATOM      9  C   UNL     1       3.044   6.769  18.426  0.00  0.00    +0.000 A 
ATOM     10  O   UNL     1       3.842   6.986  17.352  0.00  0.00    +0.000 OA
ATOM     11  C   UNL     1       4.525   5.824  17.210  0.00  0.00    +0.000 A 
ATOM     12  S   UNL     1       5.625   5.669  15.994  0.00  0.00    +0.000 S 
BRANCH   7  13
ATOM     13  C   UNL     1       4.549   3.618  18.471  0.00  0.00    +0.000 C 
BRANCH  13  14
ATOM     14  C   UNL     1       3.676   2.539  17.826  0.00  0.00    +0.000 C 
BRANCH  14  15
ATOM     15  C   UNL     1       2.710   1.880  18.811  0.00  0.00    +0.000 C 
BRANCH  15  17
ATOM     16  C   UNL     1       0.842   3.111  19.981  0.00  0.00    +0.000 C 
ATOM     17  C   UNL     1       1.302   2.463  18.684  0.00  0.00    +0.000 C 
ENDBRANCH  15  17
ENDBRANCH  14  15
ENDBRANCH  13  14
ENDBRANCH   7  13
ENDBRANCH   1   9
BRANCH   4  18
ATOM     18  O   UNL     1      -0.061  11.280  19.821  0.00  0.00    +0.000 OA
BRANCH  18  19
ATOM     19  C   UNL     1      -0.453  12.043  18.677  0.00  0.00    +0.000 C 
BRANCH  19  20
ATOM     20  C   UNL     1      -1.912  11.808  18.364  0.00  0.00    +0.000 A 
ATOM     21  C   UNL     1      -2.911  12.151  19.284  0.00  0.00    +0.000 A 
ATOM     22  C   UNL     1      -4.257  11.935  18.978  0.00  0.00    +0.000 A 
ATOM     23  C   UNL     1      -4.616  11.378  17.752  0.00  0.00    +0.000 A 
ATOM     24  C   UNL     1      -3.632  11.046  16.824  0.00  0.00    +0.000 A 
ATOM     25  C   UNL     1      -2.288  11.261  17.127  0.00  0.00    +0.000 A 
ENDBRANCH  19  20
ENDBRANCH  18  19
ENDBRANCH   4  18
TORSDOF 8
ENDMDL
MODEL 8
REMARK VINA RESULT:      -7.1      5.541      8.607
REMARK  Name = 
REMARK  9 active torsions:
REMARK  status: ('A' for Active; 'I' for Inactive)
REMARK    1  A    between atoms: C_1  and  C_2
REMARK    2  A    between atoms: C_2  and  C_3
REMARK    3  A    between atoms: C_3  and  C_4
REMARK    4  A    between atoms: C_4  and  C_5
REMARK    5  A    between atoms: C_5  and  N_6
REMARK    6  A    between atoms: C_8  and  C_9
REMARK    7  A    between atoms: C_12  and  O_13
REMARK    8  A    between atoms: O_13  and  C_14
REMARK    9  A    between atoms: C_14  and  C_15
REMARK                            x       y       z     vdW  Elec       q    Type
REMARK                         _______ _______ _______ _____ _____    ______ ____
ROOT
ATOM      1  C   UNL     1       2.426   7.320  19.164  0.00  0.00    +0.000 A 
ATOM      2  C   UNL     1       1.826   7.441  20.420  0.00  0.00    +0.000 A 
ATOM      3  C   UNL     1       1.044   8.564  20.722  0.00  0.00    +0.000 A 
ATOM      4  C   UNL     1       0.873   9.583  19.775  0.00  0.00    +0.000 A 
ATOM      5  C   UNL     1       1.433   9.441  18.509  0.00  0.00    +0.000 A 
ATOM      6  C   UNL     1       2.211   8.317  18.204  0.00  0.00    +0.000 A 
ENDROOT
BRANCH   1   9
ATOM      7  N   UNL     1       4.608   4.719  18.125  0.00  0.00    +0.000 N 
ATOM      8  N   UNL     1       4.145   6.000  17.904  0.00  0.00    +0.000 NA
ATOM      9  C   UNL     1       3.276   6.159  18.858  0.00  0.00    +0.000 A 
ATOM     10  O   UNL     1       3.117   5.102  19.692  0.00  0.00    +0.000 OA
ATOM     11  C   UNL     1       3.978   4.172  19.211  0.00  0.00    +0.000 A 
ATOM     12  S   UNL     1       4.093   2.707  19.955  0.00  0.00    +0.000 S 
BRANCH   7  13
ATOM     13  C   UNL     1       5.604   4.105  17.260  0.00  0.00    +0.000 C 
BRANCH  13  14
ATOM     14  C   UNL     1       5.256   4.184  15.772  0.00  0.00    +0.000 C 
BRANCH  14  15
ATOM     15  C   UNL     1       6.466   3.980  14.859  0.00  0.00    +0.000 C 
BRANCH  15  17
ATOM     16  C   UNL     1       6.309   3.404  12.406  0.00  0.00    +0.000 C 
ATOM     17  C   UNL     1       6.195   4.506  13.449  0.00  0.00    +0.000 C 
ENDBRANCH  15  17
ENDBRANCH  14  15
ENDBRANCH  13  14
ENDBRANCH   7  13
ENDBRANCH   1   9
BRANCH   4  18
ATOM     18  O   UNL     1       0.181  10.750  19.993  0.00  0.00    +0.000 OA
BRANCH  18  19
ATOM     19  C   UNL     1      -0.194  11.463  18.812  0.00  0.00    +0.000 C 
BRANCH  19  20
ATOM     20  C   UNL     1      -1.641  11.198  18.475  0.00  0.00    +0.000 A 
ATOM     21  C   UNL     1      -2.664  11.992  19.011  0.00  0.00    +0.000 A 
ATOM     22  C   UNL     1      -3.999  11.739  18.685  0.00  0.00    +0.000 A 
ATOM     23  C   UNL     1      -4.323  10.694  17.821  0.00  0.00    +0.000 A 
ATOM     24  C   UNL     1      -3.315   9.906  17.272  0.00  0.00    +0.000 A 
ATOM     25  C   UNL     1      -1.981  10.158  17.596  0.00  0.00    +0.000 A 
ENDBRANCH  19  20
ENDBRANCH  18  19
ENDBRANCH   4  18
TORSDOF 8
ENDMDL
MODEL 9
REMARK VINA RESULT:      -7.0      5.294      8.178
REMARK  Name = 
REMARK  9 active torsions:
REMARK  status: ('A' for Active; 'I' for Inactive)
REMARK    1  A    between atoms: C_1  and  C_2
REMARK    2  A    between atoms: C_2  and  C_3
REMARK    3  A    between atoms: C_3  and  C_4
REMARK    4  A    between atoms: C_4  and  C_5
REMARK    5  A    between atoms: C_5  and  N_6
REMARK    6  A    between atoms: C_8  and  C_9
REMARK    7  A    between atoms: C_12  and  O_13
REMARK    8  A    between atoms: O_13  and  C_14
REMARK    9  A    between atoms: C_14  and  C_15
REMARK                            x       y       z     vdW  Elec       q    Type
REMARK                         _______ _______ _______ _____ _____    ______ ____
ROOT
ATOM      1  C   UNL     1       2.560   7.505  18.592  0.00  0.00    +0.000 A 
ATOM      2  C   UNL     1       1.977   7.642  19.855  0.00  0.00    +0.000 A 
ATOM      3  C   UNL     1       1.245   8.793  20.172  0.00  0.00    +0.000 A 
ATOM      4  C   UNL     1       1.107   9.825  19.234  0.00  0.00    +0.000 A 
ATOM      5  C   UNL     1       1.650   9.670  17.962  0.00  0.00    +0.000 A 
ATOM      6  C   UNL     1       2.378   8.517  17.641  0.00  0.00    +0.000 A 
ENDROOT
BRANCH   1   9
ATOM      7  N   UNL     1       4.647   4.835  17.534  0.00  0.00    +0.000 N 
ATOM      8  N   UNL     1       4.272   6.151  17.359  0.00  0.00    +0.000 NA
ATOM      9  C   UNL     1       3.359   6.312  18.270  0.00  0.00    +0.000 A 
ATOM     10  O   UNL     1       3.090   5.225  19.033  0.00  0.00    +0.000 OA
ATOM     11  C   UNL     1       3.923   4.271  18.550  0.00  0.00    +0.000 A 
ATOM     12  S   UNL     1       3.910   2.764  19.216  0.00  0.00    +0.000 S 
BRANCH   7  13
ATOM     13  C   UNL     1       5.656   4.207  16.693  0.00  0.00    +0.000 C 
BRANCH  13  14
ATOM     14  C   UNL     1       7.050   4.821  16.846  0.00  0.00    +0.000 C 
BRANCH  14  15
ATOM     15  C   UNL     1       7.508   4.916  18.302  0.00  0.00    +0.000 C 
BRANCH  15  17
ATOM     16  C   UNL     1       7.560   7.328  17.559  0.00  0.00    +0.000 C 
ATOM     17  C   UNL     1       7.914   6.345  18.665  0.00  0.00    +0.000 C 
ENDBRANCH  15  17
ENDBRANCH  14  15
ENDBRANCH  13  14
ENDBRANCH   7  13
ENDBRANCH   1   9
BRANCH   4  18
ATOM     18  O   UNL     1       0.466  11.018  19.467  0.00  0.00    +0.000 OA
BRANCH  18  19
ATOM     19  C   UNL     1      -0.961  10.940  19.514  0.00  0.00    +0.000 C 
BRANCH  19  20
ATOM     20  C   UNL     1      -1.485  11.646  20.742  0.00  0.00    +0.000 A 
ATOM     21  C   UNL     1      -0.887  11.453  21.995  0.00  0.00    +0.000 A 
ATOM     22  C   UNL     1      -1.377  12.119  23.121  0.00  0.00    +0.000 A 
ATOM     23  C   UNL     1      -2.466  12.981  23.006  0.00  0.00    +0.000 A 
ATOM     24  C   UNL     1      -3.061  13.190  21.764  0.00  0.00    +0.000 A 
ATOM     25  C   UNL     1      -2.572  12.527  20.638  0.00  0.00    +0.000 A 
ENDBRANCH  19  20
ENDBRANCH  18  19
ENDBRANCH   4  18
TORSDOF 8
ENDMDL
