MODEL 1
REMARK VINA RESULT:      -8.4      0.000      0.000
REMARK  Name = 
REMARK  12 active torsions:
REMARK  status: ('A' for Active; 'I' for Inactive)
REMARK    1  A    between atoms: C_1  and  C_2
REMARK    2  A    between atoms: C_2  and  O_3
REMARK    3  A    between atoms: O_3  and  C_4
REMARK    4  A    between atoms: C_7  and  C_8
REMARK    5  A    between atoms: C_9  and  C_10
REMARK    6  A    between atoms: C_10  and  O_12
REMARK    7  A    between atoms: O_12  and  C_13
REMARK    8  A    between atoms: C_13  and  C_14
REMARK    9  A    between atoms: C_14  and  C_15
REMARK   10  A    between atoms: C_21  and  C_22
REMARK   11  A    between atoms: C_29  and  C_30
REMARK   12  A    between atoms: C_29  and  C_31
REMARK                            x       y       z     vdW  Elec       q    Type
REMARK                         _______ _______ _______ _____ _____    ______ ____
ROOT
ATOM      1  C   UNL     1       5.511   6.274  17.582  0.00  0.00    +0.000 C 
ATOM      2  C   UNL     1       6.870   6.322  18.320  0.00  0.00    +0.000 C 
ATOM      3  C   UNL     1       7.081   5.508  19.391  0.00  0.00    +0.000 C 
ATOM      4  C   UNL     1       8.332   5.351  20.219  0.00  0.00    +0.000 C 
ATOM      5  N   UNL     1       6.043   4.691  19.829  0.00  0.00    +0.000 N 
ATOM      6  C   UNL     1       4.722   4.885  19.497  0.00  0.00    +0.000 C 
ATOM      7  C   UNL     1       4.410   5.692  18.462  0.00  0.00    +0.000 C 
ATOM      8  C   UNL     1       2.987   6.061  18.227  0.00  0.00    +0.000 C 
ATOM      9  O   UNL     1       2.682   6.859  17.350  0.00  0.00    +0.000 OA
ATOM     10  C   UNL     1       1.933   5.521  19.180  0.00  0.00    +0.000 C 
ATOM     11  C   UNL     1       2.290   4.133  19.731  0.00  0.00    +0.000 C 
ATOM     12  C   UNL     1       1.283   3.734  20.825  0.00  0.00    +0.000 C 
ATOM     13  C   UNL     1       2.224   3.076  18.607  0.00  0.00    +0.000 C 
ATOM     14  C   UNL     1       3.698   4.186  20.354  0.00  0.00    +0.000 C 
ATOM     15  H   UNL     1       6.238   4.092  20.629  0.00  0.00    +0.000 HD
ENDROOT
BRANCH   1  19
ATOM     16  C   UNL     1       5.803   4.001  13.880  0.00  0.00    +0.000 A 
ATOM     17  C   UNL     1       6.055   3.383  15.101  0.00  0.00    +0.000 A 
ATOM     18  C   UNL     1       5.924   4.098  16.290  0.00  0.00    +0.000 A 
ATOM     19  C   UNL     1       5.608   5.467  16.280  0.00  0.00    +0.000 A 
ATOM     20  C   UNL     1       5.358   6.079  15.043  0.00  0.00    +0.000 A 
ATOM     21  C   UNL     1       5.461   5.353  13.852  0.00  0.00    +0.000 A 
BRANCH  16  22
ATOM     22  O   UNL     1       5.922   3.194  12.784  0.00  0.00    +0.000 OA
BRANCH  22  24
ATOM     23  C   UNL     1       4.075   3.072  11.287  0.00  0.00    +0.000 C 
ATOM     24  C   UNL     1       5.410   3.736  11.567  0.00  0.00    +0.000 C 
ENDBRANCH  22  24
ENDBRANCH  16  22
ENDBRANCH   1  19
BRANCH   2  25
ATOM     25  C   UNL     1       7.829   7.317  17.760  0.00  0.00    +0.000 C 
ATOM     26  O   UNL     1       8.081   7.448  16.572  0.00  0.00    +0.000 OA
BRANCH  25  27
ATOM     27  O   UNL     1       8.223   8.173  18.725  0.00  0.00    +0.000 OA
BRANCH  27  28
ATOM     28  C   UNL     1       8.628   9.469  18.275  0.00  0.00    +0.000 C 
BRANCH  28  29
ATOM     29  C   UNL     1       9.223  10.189  19.490  0.00  0.00    +0.000 C 
BRANCH  29  30
ATOM     30  C   UNL     1      10.254  11.214  19.104  0.00  0.00    +0.000 A 
ATOM     31  C   UNL     1      10.327  11.679  17.784  0.00  0.00    +0.000 A 
ATOM     32  C   UNL     1      11.327  12.577  17.405  0.00  0.00    +0.000 A 
ATOM     33  C   UNL     1      12.250  13.034  18.345  0.00  0.00    +0.000 A 
ATOM     34  C   UNL     1      12.172  12.593  19.664  0.00  0.00    +0.000 A 
ATOM     35  C   UNL     1      11.183  11.682  20.041  0.00  0.00    +0.000 A 
ENDBRANCH  29  30
ENDBRANCH  28  29
ENDBRANCH  27  28
ENDBRANCH  25  27
ENDBRANCH   2  25
TORSDOF 8
ENDMDL
MODEL 2
REMARK VINA RESULT:      -8.4      6.654     10.455
REMARK  Name = 
REMARK  12 active torsions:
REMARK  status: ('A' for Active; 'I' for Inactive)
REMARK    1  A    between atoms: C_1  and  C_2
REMARK    2  A    between atoms: C_2  and  O_3
REMARK    3  A    between atoms: O_3  and  C_4
REMARK    4  A    between atoms: C_7  and  C_8
REMARK    5  A    between atoms: C_9  and  C_10
REMARK    6  A    between atoms: C_10  and  O_12
REMARK    7  A    between atoms: O_12  and  C_13
REMARK    8  A    between atoms: C_13  and  C_14
REMARK    9  A    between atoms: C_14  and  C_15
REMARK   10  A    between atoms: C_21  and  C_22
REMARK   11  A    between atoms: C_29  and  C_30
REMARK   12  A    between atoms: C_29  and  C_31
REMARK                            x       y       z     vdW  Elec       q    Type
REMARK                         _______ _______ _______ _____ _____    ______ ____
ROOT
ATOM      1  C   UNL     1       0.303  11.029  19.747  0.00  0.00    +0.000 C 
ATOM      2  C   UNL     1      -0.148  10.400  21.086  0.00  0.00    +0.000 C 
ATOM      3  C   UNL     1      -0.601  11.205  22.087  0.00  0.00    +0.000 C 
ATOM      4  C   UNL     1      -1.135  10.811  23.441  0.00  0.00    +0.000 C 
ATOM      5  N   UNL     1      -0.594  12.584  21.896  0.00  0.00    +0.000 N 
ATOM      6  C   UNL     1       0.151  13.220  20.929  0.00  0.00    +0.000 C 
ATOM      7  C   UNL     1       0.661  12.503  19.906  0.00  0.00    +0.000 C 
ATOM      8  C   UNL     1       1.627  13.146  18.974  0.00  0.00    +0.000 C 
ATOM      9  O   UNL     1       2.172  12.498  18.089  0.00  0.00    +0.000 OA
ATOM     10  C   UNL     1       2.016  14.595  19.221  0.00  0.00    +0.000 C 
ATOM     11  C   UNL     1       0.874  15.416  19.837  0.00  0.00    +0.000 C 
ATOM     12  C   UNL     1       1.393  16.810  20.234  0.00  0.00    +0.000 C 
ATOM     13  C   UNL     1      -0.269  15.599  18.815  0.00  0.00    +0.000 C 
ATOM     14  C   UNL     1       0.368  14.701  21.105  0.00  0.00    +0.000 C 
ATOM     15  H   UNL     1      -0.943  13.155  22.662  0.00  0.00    +0.000 HD
ENDROOT
BRANCH   1  19
ATOM     16  C   UNL     1      -2.751  10.621  16.671  0.00  0.00    +0.000 A 
ATOM     17  C   UNL     1      -1.667   9.749  16.699  0.00  0.00    +0.000 A 
ATOM     18  C   UNL     1      -0.709   9.852  17.706  0.00  0.00    +0.000 A 
ATOM     19  C   UNL     1      -0.775  10.877  18.665  0.00  0.00    +0.000 A 
ATOM     20  C   UNL     1      -1.871  11.752  18.624  0.00  0.00    +0.000 A 
ATOM     21  C   UNL     1      -2.847  11.629  17.630  0.00  0.00    +0.000 A 
BRANCH  16  22
ATOM     22  O   UNL     1      -3.649  10.401  15.664  0.00  0.00    +0.000 OA
BRANCH  22  24
ATOM     23  C   UNL     1      -4.189   9.951  13.391  0.00  0.00    +0.000 C 
ATOM     24  C   UNL     1      -3.090   9.939  14.435  0.00  0.00    +0.000 C 
ENDBRANCH  22  24
ENDBRANCH  16  22
ENDBRANCH   1  19
BRANCH   2  25
ATOM     25  C   UNL     1      -0.008   8.917  21.137  0.00  0.00    +0.000 C 
ATOM     26  O   UNL     1      -0.838   8.155  21.610  0.00  0.00    +0.000 OA
BRANCH  25  27
ATOM     27  O   UNL     1       1.064   8.530  20.415  0.00  0.00    +0.000 OA
BRANCH  27  28
ATOM     28  C   UNL     1       1.721   7.343  20.871  0.00  0.00    +0.000 C 
BRANCH  28  29
ATOM     29  C   UNL     1       2.384   6.709  19.643  0.00  0.00    +0.000 C 
BRANCH  29  30
ATOM     30  C   UNL     1       1.954   5.283  19.429  0.00  0.00    +0.000 A 
ATOM     31  C   UNL     1       2.020   4.710  18.152  0.00  0.00    +0.000 A 
ATOM     32  C   UNL     1       1.557   3.411  17.935  0.00  0.00    +0.000 A 
ATOM     33  C   UNL     1       1.043   2.666  18.995  0.00  0.00    +0.000 A 
ATOM     34  C   UNL     1       0.992   3.220  20.272  0.00  0.00    +0.000 A 
ATOM     35  C   UNL     1       1.439   4.525  20.488  0.00  0.00    +0.000 A 
ENDBRANCH  29  30
ENDBRANCH  28  29
ENDBRANCH  27  28
ENDBRANCH  25  27
ENDBRANCH   2  25
TORSDOF 8
ENDMDL
MODEL 3
REMARK VINA RESULT:      -8.3      0.449      1.246
REMARK  Name = 
REMARK  12 active torsions:
REMARK  status: ('A' for Active; 'I' for Inactive)
REMARK    1  A    between atoms: C_1  and  C_2
REMARK    2  A    between atoms: C_2  and  O_3
REMARK    3  A    between atoms: O_3  and  C_4
REMARK    4  A    between atoms: C_7  and  C_8
REMARK    5  A    between atoms: C_9  and  C_10
REMARK    6  A    between atoms: C_10  and  O_12
REMARK    7  A    between atoms: O_12  and  C_13
REMARK    8  A    between atoms: C_13  and  C_14
REMARK    9  A    between atoms: C_14  and  C_15
REMARK   10  A    between atoms: C_21  and  C_22
REMARK   11  A    between atoms: C_29  and  C_30
REMARK   12  A    between atoms: C_29  and  C_31
REMARK                            x       y       z     vdW  Elec       q    Type
REMARK                         _______ _______ _______ _____ _____    ______ ____
ROOT
ATOM      1  C   UNL     1       5.623   6.304  17.506  0.00  0.00    +0.000 C 
ATOM      2  C   UNL     1       6.952   6.377  18.294  0.00  0.00    +0.000 C 
ATOM      3  C   UNL     1       7.159   5.532  19.342  0.00  0.00    +0.000 C 
ATOM      4  C   UNL     1       8.386   5.393  20.208  0.00  0.00    +0.000 C 
ATOM      5  N   UNL     1       6.140   4.659  19.712  0.00  0.00    +0.000 N 
ATOM      6  C   UNL     1       4.825   4.814  19.340  0.00  0.00    +0.000 C 
ATOM      7  C   UNL     1       4.516   5.647  18.324  0.00  0.00    +0.000 C 
ATOM      8  C   UNL     1       3.089   5.968  18.052  0.00  0.00    +0.000 C 
ATOM      9  O   UNL     1       2.783   6.786  17.193  0.00  0.00    +0.000 OA
ATOM     10  C   UNL     1       2.025   5.352  18.946  0.00  0.00    +0.000 C 
ATOM     11  C   UNL     1       2.418   3.959  19.458  0.00  0.00    +0.000 C 
ATOM     12  C   UNL     1       1.391   3.481  20.500  0.00  0.00    +0.000 C 
ATOM     13  C   UNL     1       2.434   2.944  18.296  0.00  0.00    +0.000 C 
ATOM     14  C   UNL     1       3.801   4.044  20.133  0.00  0.00    +0.000 C 
ATOM     15  H   UNL     1       6.331   4.039  20.497  0.00  0.00    +0.000 HD
ENDROOT
BRANCH   1  19
ATOM     16  C   UNL     1       6.105   4.147  13.755  0.00  0.00    +0.000 A 
ATOM     17  C   UNL     1       5.520   5.410  13.765  0.00  0.00    +0.000 A 
ATOM     18  C   UNL     1       5.400   6.118  14.958  0.00  0.00    +0.000 A 
ATOM     19  C   UNL     1       5.797   5.550  16.180  0.00  0.00    +0.000 A 
ATOM     20  C   UNL     1       6.384   4.276  16.158  0.00  0.00    +0.000 A 
ATOM     21  C   UNL     1       6.530   3.577  14.955  0.00  0.00    +0.000 A 
BRANCH  16  22
ATOM     22  O   UNL     1       6.208   3.563  12.524  0.00  0.00    +0.000 OA
BRANCH  22  24
ATOM     23  C   UNL     1       5.427   1.715  11.243  0.00  0.00    +0.000 C 
ATOM     24  C   UNL     1       5.019   2.938  12.042  0.00  0.00    +0.000 C 
ENDBRANCH  22  24
ENDBRANCH  16  22
ENDBRANCH   1  19
BRANCH   2  25
ATOM     25  C   UNL     1       7.889   7.428  17.805  0.00  0.00    +0.000 C 
ATOM     26  O   UNL     1       8.206   7.589  16.636  0.00  0.00    +0.000 OA
BRANCH  25  27
ATOM     27  O   UNL     1       8.177   8.290  18.802  0.00  0.00    +0.000 OA
BRANCH  27  28
ATOM     28  C   UNL     1       8.578   9.601  18.390  0.00  0.00    +0.000 C 
BRANCH  28  29
ATOM     29  C   UNL     1       9.321  10.225  19.577  0.00  0.00    +0.000 C 
BRANCH  29  30
ATOM     30  C   UNL     1      10.367  11.216  19.145  0.00  0.00    +0.000 A 
ATOM     31  C   UNL     1      11.198  11.825  20.094  0.00  0.00    +0.000 A 
ATOM     32  C   UNL     1      12.122  12.798  19.706  0.00  0.00    +0.000 A 
ATOM     33  C   UNL     1      12.238  13.155  18.364  0.00  0.00    +0.000 A 
ATOM     34  C   UNL     1      11.430  12.541  17.410  0.00  0.00    +0.000 A 
ATOM     35  C   UNL     1      10.494  11.580  17.798  0.00  0.00    +0.000 A 
ENDBRANCH  29  30
ENDBRANCH  28  29
ENDBRANCH  27  28
ENDBRANCH  25  27
ENDBRANCH   2  25
TORSDOF 8
ENDMDL
MODEL 4
REMARK VINA RESULT:      -8.1      0.709      1.046
REMARK  Name = 
REMARK  12 active torsions:
REMARK  status: ('A' for Active; 'I' for Inactive)
REMARK    1  A    between atoms: C_1  and  C_2
REMARK    2  A    between atoms: C_2  and  O_3
REMARK    3  A    between atoms: O_3  and  C_4
REMARK    4  A    between atoms: C_7  and  C_8
REMARK    5  A    between atoms: C_9  and  C_10
REMARK    6  A    between atoms: C_10  and  O_12
REMARK    7  A    between atoms: O_12  and  C_13
REMARK    8  A    between atoms: C_13  and  C_14
REMARK    9  A    between atoms: C_14  and  C_15
REMARK   10  A    between atoms: C_21  and  C_22
REMARK   11  A    between atoms: C_29  and  C_30
REMARK   12  A    between atoms: C_29  and  C_31
REMARK                            x       y       z     vdW  Elec       q    Type
REMARK                         _______ _______ _______ _____ _____    ______ ____
ROOT
ATOM      1  C   UNL     1       5.417   6.214  17.572  0.00  0.00    +0.000 C 
ATOM      2  C   UNL     1       6.794   6.281  18.274  0.00  0.00    +0.000 C 
ATOM      3  C   UNL     1       7.055   5.449  19.320  0.00  0.00    +0.000 C 
ATOM      4  C   UNL     1       8.332   5.305  20.110  0.00  0.00    +0.000 C 
ATOM      5  N   UNL     1       6.050   4.596  19.767  0.00  0.00    +0.000 N 
ATOM      6  C   UNL     1       4.716   4.764  19.476  0.00  0.00    +0.000 C 
ATOM      7  C   UNL     1       4.355   5.586  18.468  0.00  0.00    +0.000 C 
ATOM      8  C   UNL     1       2.918   5.923  18.280  0.00  0.00    +0.000 C 
ATOM      9  O   UNL     1       2.569   6.732  17.430  0.00  0.00    +0.000 OA
ATOM     10  C   UNL     1       1.904   5.336  19.249  0.00  0.00    +0.000 C 
ATOM     11  C   UNL     1       2.311   3.945  19.758  0.00  0.00    +0.000 C 
ATOM     12  C   UNL     1       1.344   3.497  20.870  0.00  0.00    +0.000 C 
ATOM     13  C   UNL     1       2.240   2.912  18.613  0.00  0.00    +0.000 C 
ATOM     14  C   UNL     1       3.734   4.020  20.344  0.00  0.00    +0.000 C 
ATOM     15  H   UNL     1       6.281   3.985  20.548  0.00  0.00    +0.000 HD
ENDROOT
BRANCH   1  19
ATOM     16  C   UNL     1       5.663   4.031  13.814  0.00  0.00    +0.000 A 
ATOM     17  C   UNL     1       5.891   3.374  15.019  0.00  0.00    +0.000 A 
ATOM     18  C   UNL     1       5.774   4.062  16.225  0.00  0.00    +0.000 A 
ATOM     19  C   UNL     1       5.498   5.439  16.250  0.00  0.00    +0.000 A 
ATOM     20  C   UNL     1       5.273   6.090  15.028  0.00  0.00    +0.000 A 
ATOM     21  C   UNL     1       5.362   5.393  13.819  0.00  0.00    +0.000 A 
BRANCH  16  22
ATOM     22  O   UNL     1       5.765   3.250  12.697  0.00  0.00    +0.000 OA
BRANCH  22  24
ATOM     23  C   UNL     1       7.290   2.208  11.196  0.00  0.00    +0.000 C 
ATOM     24  C   UNL     1       6.898   3.510  11.869  0.00  0.00    +0.000 C 
ENDBRANCH  22  24
ENDBRANCH  16  22
ENDBRANCH   1  19
BRANCH   2  25
ATOM     25  C   UNL     1       7.712   7.311  17.710  0.00  0.00    +0.000 C 
ATOM     26  O   UNL     1       8.080   7.354  16.546  0.00  0.00    +0.000 OA
BRANCH  25  27
ATOM     27  O   UNL     1       7.917   8.291  18.615  0.00  0.00    +0.000 OA
BRANCH  27  28
ATOM     28  C   UNL     1       8.395   9.532  18.086  0.00  0.00    +0.000 C 
BRANCH  28  29
ATOM     29  C   UNL     1       9.240  10.182  19.187  0.00  0.00    +0.000 C 
BRANCH  29  30
ATOM     30  C   UNL     1      10.038  11.354  18.685  0.00  0.00    +0.000 A 
ATOM     31  C   UNL     1      11.414  11.430  18.937  0.00  0.00    +0.000 A 
ATOM     32  C   UNL     1      12.146  12.549  18.533  0.00  0.00    +0.000 A 
ATOM     33  C   UNL     1      11.514  13.591  17.856  0.00  0.00    +0.000 A 
ATOM     34  C   UNL     1      10.151  13.514  17.583  0.00  0.00    +0.000 A 
ATOM     35  C   UNL     1       9.414  12.403  18.000  0.00  0.00    +0.000 A 
ENDBRANCH  29  30
ENDBRANCH  28  29
ENDBRANCH  27  28
ENDBRANCH  25  27
ENDBRANCH   2  25
TORSDOF 8
ENDMDL
MODEL 5
REMARK VINA RESULT:      -8.0      7.155     11.157
REMARK  Name = 
REMARK  12 active torsions:
REMARK  status: ('A' for Active; 'I' for Inactive)
REMARK    1  A    between atoms: C_1  and  C_2
REMARK    2  A    between atoms: C_2  and  O_3
REMARK    3  A    between atoms: O_3  and  C_4
REMARK    4  A    between atoms: C_7  and  C_8
REMARK    5  A    between atoms: C_9  and  C_10
REMARK    6  A    between atoms: C_10  and  O_12
REMARK    7  A    between atoms: O_12  and  C_13
REMARK    8  A    between atoms: C_13  and  C_14
REMARK    9  A    between atoms: C_14  and  C_15
REMARK   10  A    between atoms: C_21  and  C_22
REMARK   11  A    between atoms: C_29  and  C_30
REMARK   12  A    between atoms: C_29  and  C_31
REMARK                            x       y       z     vdW  Elec       q    Type
REMARK                         _______ _______ _______ _____ _____    ______ ____
ROOT
ATOM      1  C   UNL     1       0.024  11.560  20.115  0.00  0.00    +0.000 C 
ATOM      2  C   UNL     1      -0.175  10.701  18.844  0.00  0.00    +0.000 C 
ATOM      3  C   UNL     1      -1.362  10.750  18.179  0.00  0.00    +0.000 C 
ATOM      4  C   UNL     1      -1.755  10.047  16.904  0.00  0.00    +0.000 C 
ATOM      5  N   UNL     1      -2.389  11.535  18.696  0.00  0.00    +0.000 N 
ATOM      6  C   UNL     1      -2.430  11.986  19.995  0.00  0.00    +0.000 C 
ATOM      7  C   UNL     1      -1.308  11.958  20.743  0.00  0.00    +0.000 C 
ATOM      8  C   UNL     1      -1.393  12.255  22.198  0.00  0.00    +0.000 C 
ATOM      9  O   UNL     1      -0.408  12.154  22.918  0.00  0.00    +0.000 OA
ATOM     10  C   UNL     1      -2.756  12.568  22.795  0.00  0.00    +0.000 C 
ATOM     11  C   UNL     1      -3.683  13.287  21.804  0.00  0.00    +0.000 C 
ATOM     12  C   UNL     1      -5.096  13.400  22.405  0.00  0.00    +0.000 C 
ATOM     13  C   UNL     1      -3.164  14.713  21.521  0.00  0.00    +0.000 C 
ATOM     14  C   UNL     1      -3.766  12.464  20.504  0.00  0.00    +0.000 C 
ATOM     15  H   UNL     1      -3.261  11.552  18.170  0.00  0.00    +0.000 HD
ENDROOT
BRANCH   1  19
ATOM     16  C   UNL     1       2.378  15.121  19.258  0.00  0.00    +0.000 A 
ATOM     17  C   UNL     1       1.063  15.028  18.811  0.00  0.00    +0.000 A 
ATOM     18  C   UNL     1       0.295  13.907  19.118  0.00  0.00    +0.000 A 
ATOM     19  C   UNL     1       0.847  12.821  19.816  0.00  0.00    +0.000 A 
ATOM     20  C   UNL     1       2.174  12.925  20.259  0.00  0.00    +0.000 A 
ATOM     21  C   UNL     1       2.936  14.063  19.976  0.00  0.00    +0.000 A 
BRANCH  16  22
ATOM     22  O   UNL     1       3.022  16.282  18.934  0.00  0.00    +0.000 OA
BRANCH  22  24
ATOM     23  C   UNL     1       3.537  17.724  20.756  0.00  0.00    +0.000 C 
ATOM     24  C   UNL     1       2.568  17.447  19.623  0.00  0.00    +0.000 C 
ENDBRANCH  22  24
ENDBRANCH  16  22
ENDBRANCH   1  19
BRANCH   2  25
ATOM     25  C   UNL     1       1.005   9.862  18.490  0.00  0.00    +0.000 C 
ATOM     26  O   UNL     1       1.789  10.109  17.586  0.00  0.00    +0.000 OA
BRANCH  25  27
ATOM     27  O   UNL     1       1.193   8.909  19.427  0.00  0.00    +0.000 OA
BRANCH  27  28
ATOM     28  C   UNL     1       2.129   7.882  19.086  0.00  0.00    +0.000 C 
BRANCH  28  29
ATOM     29  C   UNL     1       2.086   6.855  20.224  0.00  0.00    +0.000 C 
BRANCH  29  30
ATOM     30  C   UNL     1       1.827   5.459  19.729  0.00  0.00    +0.000 A 
ATOM     31  C   UNL     1       2.063   5.130  18.388  0.00  0.00    +0.000 A 
ATOM     32  C   UNL     1       1.758   3.854  17.908  0.00  0.00    +0.000 A 
ATOM     33  C   UNL     1       1.233   2.891  18.767  0.00  0.00    +0.000 A 
ATOM     34  C   UNL     1       1.014   3.203  20.107  0.00  0.00    +0.000 A 
ATOM     35  C   UNL     1       1.303   4.482  20.586  0.00  0.00    +0.000 A 
ENDBRANCH  29  30
ENDBRANCH  28  29
ENDBRANCH  27  28
ENDBRANCH  25  27
ENDBRANCH   2  25
TORSDOF 8
ENDMDL
MODEL 6
REMARK VINA RESULT:      -8.0      6.469     10.408
REMARK  Name = 
REMARK  12 active torsions:
REMARK  status: ('A' for Active; 'I' for Inactive)
REMARK    1  A    between atoms: C_1  and  C_2
REMARK    2  A    between atoms: C_2  and  O_3
REMARK    3  A    between atoms: O_3  and  C_4
REMARK    4  A    between atoms: C_7  and  C_8
REMARK    5  A    between atoms: C_9  and  C_10
REMARK    6  A    between atoms: C_10  and  O_12
REMARK    7  A    between atoms: O_12  and  C_13
REMARK    8  A    between atoms: C_13  and  C_14
REMARK    9  A    between atoms: C_14  and  C_15
REMARK   10  A    between atoms: C_21  and  C_22
REMARK   11  A    between atoms: C_29  and  C_30
REMARK   12  A    between atoms: C_29  and  C_31
REMARK                            x       y       z     vdW  Elec       q    Type
REMARK                         _______ _______ _______ _____ _____    ______ ____
ROOT
ATOM      1  C   UNL     1       0.538  10.904  19.817  0.00  0.00    +0.000 C 
ATOM      2  C   UNL     1       0.098  10.208  21.126  0.00  0.00    +0.000 C 
ATOM      3  C   UNL     1      -0.308  10.963  22.184  0.00  0.00    +0.000 C 
ATOM      4  C   UNL     1      -0.824  10.502  23.525  0.00  0.00    +0.000 C 
ATOM      5  N   UNL     1      -0.264  12.350  22.076  0.00  0.00    +0.000 N 
ATOM      6  C   UNL     1       0.478  13.022  21.132  0.00  0.00    +0.000 C 
ATOM      7  C   UNL     1       0.944  12.355  20.055  0.00  0.00    +0.000 C 
ATOM      8  C   UNL     1       1.907  13.026  19.141  0.00  0.00    +0.000 C 
ATOM      9  O   UNL     1       2.412  12.418  18.206  0.00  0.00    +0.000 OA
ATOM     10  C   UNL     1       2.344  14.445  19.466  0.00  0.00    +0.000 C 
ATOM     11  C   UNL     1       1.241  15.259  20.158  0.00  0.00    +0.000 C 
ATOM     12  C   UNL     1       1.810  16.611  20.625  0.00  0.00    +0.000 C 
ATOM     13  C   UNL     1       0.082  15.537  19.176  0.00  0.00    +0.000 C 
ATOM     14  C   UNL     1       0.743  14.483  21.392  0.00  0.00    +0.000 C 
ATOM     15  H   UNL     1      -0.579  12.883  22.884  0.00  0.00    +0.000 HD
ENDROOT
BRANCH   1  19
ATOM     16  C   UNL     1      -2.603  10.724  16.808  0.00  0.00    +0.000 A 
ATOM     17  C   UNL     1      -2.591  11.753  17.744  0.00  0.00    +0.000 A 
ATOM     18  C   UNL     1      -1.565  11.835  18.683  0.00  0.00    +0.000 A 
ATOM     19  C   UNL     1      -0.567  10.849  18.753  0.00  0.00    +0.000 A 
ATOM     20  C   UNL     1      -0.592   9.815  17.806  0.00  0.00    +0.000 A 
ATOM     21  C   UNL     1      -1.606   9.749  16.845  0.00  0.00    +0.000 A 
BRANCH  16  22
ATOM     22  O   UNL     1      -3.633  10.766  15.910  0.00  0.00    +0.000 OA
BRANCH  22  24
ATOM     23  C   UNL     1      -3.192  10.061  13.680  0.00  0.00    +0.000 C 
ATOM     24  C   UNL     1      -3.729   9.642  15.036  0.00  0.00    +0.000 C 
ENDBRANCH  22  24
ENDBRANCH  16  22
ENDBRANCH   1  19
BRANCH   2  25
ATOM     25  C   UNL     1       0.195   8.721  21.084  0.00  0.00    +0.000 C 
ATOM     26  O   UNL     1      -0.698   7.955  21.412  0.00  0.00    +0.000 OA
BRANCH  25  27
ATOM     27  O   UNL     1       1.328   8.350  20.450  0.00  0.00    +0.000 OA
BRANCH  27  28
ATOM     28  C   UNL     1       1.772   7.014  20.709  0.00  0.00    +0.000 C 
BRANCH  28  29
ATOM     29  C   UNL     1       2.313   6.468  19.384  0.00  0.00    +0.000 C 
BRANCH  29  30
ATOM     30  C   UNL     1       1.940   5.028  19.159  0.00  0.00    +0.000 A 
ATOM     31  C   UNL     1       1.274   4.308  20.160  0.00  0.00    +0.000 A 
ATOM     32  C   UNL     1       0.988   2.952  19.984  0.00  0.00    +0.000 A 
ATOM     33  C   UNL     1       1.345   2.310  18.799  0.00  0.00    +0.000 A 
ATOM     34  C   UNL     1       1.989   3.023  17.791  0.00  0.00    +0.000 A 
ATOM     35  C   UNL     1       2.291   4.375  17.972  0.00  0.00    +0.000 A 
ENDBRANCH  29  30
ENDBRANCH  28  29
ENDBRANCH  27  28
ENDBRANCH  25  27
ENDBRANCH   2  25
TORSDOF 8
ENDMDL
MODEL 7
REMARK VINA RESULT:      -8.0      7.017     10.974
REMARK  Name = 
REMARK  12 active torsions:
REMARK  status: ('A' for Active; 'I' for Inactive)
REMARK    1  A    between atoms: C_1  and  C_2
REMARK    2  A    between atoms: C_2  and  O_3
REMARK    3  A    between atoms: O_3  and  C_4
REMARK    4  A    between atoms: C_7  and  C_8
REMARK    5  A    between atoms: C_9  and  C_10
REMARK    6  A    between atoms: C_10  and  O_12
REMARK    7  A    between atoms: O_12  and  C_13
REMARK    8  A    between atoms: C_13  and  C_14
REMARK    9  A    between atoms: C_14  and  C_15
REMARK   10  A    between atoms: C_21  and  C_22
REMARK   11  A    between atoms: C_29  and  C_30
REMARK   12  A    between atoms: C_29  and  C_31
REMARK                            x       y       z     vdW  Elec       q    Type
REMARK                         _______ _______ _______ _____ _____    ______ ____
ROOT
ATOM      1  C   UNL     1      -0.009  11.573  20.105  0.00  0.00    +0.000 C 
ATOM      2  C   UNL     1      -0.192  10.743  18.813  0.00  0.00    +0.000 C 
ATOM      3  C   UNL     1      -1.383  10.783  18.153  0.00  0.00    +0.000 C 
ATOM      4  C   UNL     1      -1.764  10.104  16.861  0.00  0.00    +0.000 C 
ATOM      5  N   UNL     1      -2.425  11.531  18.693  0.00  0.00    +0.000 N 
ATOM      6  C   UNL     1      -2.472  11.947  20.004  0.00  0.00    +0.000 C 
ATOM      7  C   UNL     1      -1.346  11.924  20.747  0.00  0.00    +0.000 C 
ATOM      8  C   UNL     1      -1.433  12.182  22.210  0.00  0.00    +0.000 C 
ATOM      9  O   UNL     1      -0.443  12.084  22.924  0.00  0.00    +0.000 OA
ATOM     10  C   UNL     1      -2.801  12.447  22.819  0.00  0.00    +0.000 C 
ATOM     11  C   UNL     1      -3.747  13.171  21.850  0.00  0.00    +0.000 C 
ATOM     12  C   UNL     1      -5.160  13.237  22.458  0.00  0.00    +0.000 C 
ATOM     13  C   UNL     1      -3.262  14.616  21.603  0.00  0.00    +0.000 C 
ATOM     14  C   UNL     1      -3.816  12.380  20.529  0.00  0.00    +0.000 C 
ATOM     15  H   UNL     1      -3.299  11.542  18.171  0.00  0.00    +0.000 HD
ENDROOT
BRANCH   1  19
ATOM     16  C   UNL     1       2.225  15.234  19.356  0.00  0.00    +0.000 A 
ATOM     17  C   UNL     1       2.815  14.187  20.058  0.00  0.00    +0.000 A 
ATOM     18  C   UNL     1       2.116  13.000  20.264  0.00  0.00    +0.000 A 
ATOM     19  C   UNL     1       0.785  12.859  19.838  0.00  0.00    +0.000 A 
ATOM     20  C   UNL     1       0.201  13.922  19.133  0.00  0.00    +0.000 A 
ATOM     21  C   UNL     1       0.914  15.103  18.901  0.00  0.00    +0.000 A 
BRANCH  16  22
ATOM     22  O   UNL     1       3.017  16.334  19.177  0.00  0.00    +0.000 OA
BRANCH  22  24
ATOM     23  C   UNL     1       5.358  16.482  18.773  0.00  0.00    +0.000 C 
ATOM     24  C   UNL     1       4.000  16.220  18.150  0.00  0.00    +0.000 C 
ENDBRANCH  22  24
ENDBRANCH  16  22
ENDBRANCH   1  19
BRANCH   2  25
ATOM     25  C   UNL     1       1.005   9.940  18.433  0.00  0.00    +0.000 C 
ATOM     26  O   UNL     1       1.863  10.301  17.642  0.00  0.00    +0.000 OA
BRANCH  25  27
ATOM     27  O   UNL     1       1.105   8.855  19.230  0.00  0.00    +0.000 OA
BRANCH  27  28
ATOM     28  C   UNL     1       2.174   7.956  18.920  0.00  0.00    +0.000 C 
BRANCH  28  29
ATOM     29  C   UNL     1       2.247   6.947  20.071  0.00  0.00    +0.000 C 
BRANCH  29  30
ATOM     30  C   UNL     1       1.907   5.549  19.633  0.00  0.00    +0.000 A 
ATOM     31  C   UNL     1       2.119   5.154  18.305  0.00  0.00    +0.000 A 
ATOM     32  C   UNL     1       1.740   3.880  17.877  0.00  0.00    +0.000 A 
ATOM     33  C   UNL     1       1.165   2.983  18.775  0.00  0.00    +0.000 A 
ATOM     34  C   UNL     1       0.969   3.359  20.101  0.00  0.00    +0.000 A 
ATOM     35  C   UNL     1       1.332   4.639  20.528  0.00  0.00    +0.000 A 
ENDBRANCH  29  30
ENDBRANCH  28  29
ENDBRANCH  27  28
ENDBRANCH  25  27
ENDBRANCH   2  25
TORSDOF 8
ENDMDL
MODEL 8
REMARK VINA RESULT:      -7.9      6.955     10.905
REMARK  Name = 
REMARK  12 active torsions:
REMARK  status: ('A' for Active; 'I' for Inactive)
REMARK    1  A    between atoms: C_1  and  C_2
REMARK    2  A    between atoms: C_2  and  O_3
REMARK    3  A    between atoms: O_3  and  C_4
REMARK    4  A    between atoms: C_7  and  C_8
REMARK    5  A    between atoms: C_9  and  C_10
REMARK    6  A    between atoms: C_10  and  O_12
REMARK    7  A    between atoms: O_12  and  C_13
REMARK    8  A    between atoms: C_13  and  C_14
REMARK    9  A    between atoms: C_14  and  C_15
REMARK   10  A    between atoms: C_21  and  C_22
REMARK   11  A    between atoms: C_29  and  C_30
REMARK   12  A    between atoms: C_29  and  C_31
REMARK                            x       y       z     vdW  Elec       q    Type
REMARK                         _______ _______ _______ _____ _____    ______ ____
ROOT
ATOM      1  C   UNL     1      -0.029  11.484  20.337  0.00  0.00    +0.000 C 
ATOM      2  C   UNL     1      -0.229  10.568  19.106  0.00  0.00    +0.000 C 
ATOM      3  C   UNL     1      -1.374  10.666  18.375  0.00  0.00    +0.000 C 
ATOM      4  C   UNL     1      -1.755   9.919  17.121  0.00  0.00    +0.000 C 
ATOM      5  N   UNL     1      -2.362  11.554  18.791  0.00  0.00    +0.000 N 
ATOM      6  C   UNL     1      -2.433  12.082  20.060  0.00  0.00    +0.000 C 
ATOM      7  C   UNL     1      -1.355  12.015  20.868  0.00  0.00    +0.000 C 
ATOM      8  C   UNL     1      -1.491  12.403  22.298  0.00  0.00    +0.000 C 
ATOM      9  O   UNL     1      -0.553  12.271  23.075  0.00  0.00    +0.000 OA
ATOM     10  C   UNL     1      -2.854  12.850  22.801  0.00  0.00    +0.000 C 
ATOM     11  C   UNL     1      -3.672  13.576  21.724  0.00  0.00    +0.000 C 
ATOM     12  C   UNL     1      -5.100  13.829  22.239  0.00  0.00    +0.000 C 
ATOM     13  C   UNL     1      -3.031  14.941  21.392  0.00  0.00    +0.000 C 
ATOM     14  C   UNL     1      -3.752  12.686  20.468  0.00  0.00    +0.000 C 
ATOM     15  H   UNL     1      -3.203  11.604  18.219  0.00  0.00    +0.000 HD
ENDROOT
BRANCH   1  19
ATOM     16  C   UNL     1       2.635  14.804  19.424  0.00  0.00    +0.000 A 
ATOM     17  C   UNL     1       1.520  14.563  18.626  0.00  0.00    +0.000 A 
ATOM     18  C   UNL     1       0.645  13.526  18.939  0.00  0.00    +0.000 A 
ATOM     19  C   UNL     1       0.903  12.660  20.015  0.00  0.00    +0.000 A 
ATOM     20  C   UNL     1       2.031  12.912  20.810  0.00  0.00    +0.000 A 
ATOM     21  C   UNL     1       2.894  13.972  20.512  0.00  0.00    +0.000 A 
BRANCH  16  22
ATOM     22  O   UNL     1       3.400  15.872  19.047  0.00  0.00    +0.000 OA
BRANCH  22  24
ATOM     23  C   UNL     1       5.161  14.853  17.812  0.00  0.00    +0.000 C 
ATOM     24  C   UNL     1       3.968  15.787  17.741  0.00  0.00    +0.000 C 
ENDBRANCH  22  24
ENDBRANCH  16  22
ENDBRANCH   1  19
BRANCH   2  25
ATOM     25  C   UNL     1       0.900   9.624  18.863  0.00  0.00    +0.000 C 
ATOM     26  O   UNL     1       1.370   9.371  17.765  0.00  0.00    +0.000 OA
BRANCH  25  27
ATOM     27  O   UNL     1       1.448   9.249  20.037  0.00  0.00    +0.000 OA
BRANCH  27  28
ATOM     28  C   UNL     1       1.153   7.913  20.459  0.00  0.00    +0.000 C 
BRANCH  28  29
ATOM     29  C   UNL     1       2.335   7.043  20.018  0.00  0.00    +0.000 C 
BRANCH  29  30
ATOM     30  C   UNL     1       1.908   5.665  19.593  0.00  0.00    +0.000 A 
ATOM     31  C   UNL     1       1.360   4.776  20.528  0.00  0.00    +0.000 A 
ATOM     32  C   UNL     1       1.027   3.472  20.153  0.00  0.00    +0.000 A 
ATOM     33  C   UNL     1       1.220   3.052  18.839  0.00  0.00    +0.000 A 
ATOM     34  C   UNL     1       1.746   3.934  17.898  0.00  0.00    +0.000 A 
ATOM     35  C   UNL     1       2.094   5.233  18.274  0.00  0.00    +0.000 A 
ENDBRANCH  29  30
ENDBRANCH  28  29
ENDBRANCH  27  28
ENDBRANCH  25  27
ENDBRANCH   2  25
TORSDOF 8
ENDMDL
MODEL 9
REMARK VINA RESULT:      -7.8      6.873     10.788
REMARK  Name = 
REMARK  12 active torsions:
REMARK  status: ('A' for Active; 'I' for Inactive)
REMARK    1  A    between atoms: C_1  and  C_2
REMARK    2  A    between atoms: C_2  and  O_3
REMARK    3  A    between atoms: O_3  and  C_4
REMARK    4  A    between atoms: C_7  and  C_8
REMARK    5  A    between atoms: C_9  and  C_10
REMARK    6  A    between atoms: C_10  and  O_12
REMARK    7  A    between atoms: O_12  and  C_13
REMARK    8  A    between atoms: C_13  and  C_14
REMARK    9  A    between atoms: C_14  and  C_15
REMARK   10  A    between atoms: C_21  and  C_22
REMARK   11  A    between atoms: C_29  and  C_30
REMARK   12  A    between atoms: C_29  and  C_31
REMARK                            x       y       z     vdW  Elec       q    Type
REMARK                         _______ _______ _______ _____ _____    ______ ____
ROOT
ATOM      1  C   UNL     1       0.004  11.439  20.249  0.00  0.00    +0.000 C 
ATOM      2  C   UNL     1      -0.217  10.538  19.012  0.00  0.00    +0.000 C 
ATOM      3  C   UNL     1      -1.361  10.665  18.285  0.00  0.00    +0.000 C 
ATOM      4  C   UNL     1      -1.760   9.937  17.025  0.00  0.00    +0.000 C 
ATOM      5  N   UNL     1      -2.331  11.568  18.711  0.00  0.00    +0.000 N 
ATOM      6  C   UNL     1      -2.389  12.087  19.984  0.00  0.00    +0.000 C 
ATOM      7  C   UNL     1      -1.310  11.992  20.789  0.00  0.00    +0.000 C 
ATOM      8  C   UNL     1      -1.434  12.370  22.223  0.00  0.00    +0.000 C 
ATOM      9  O   UNL     1      -0.498  12.213  22.996  0.00  0.00    +0.000 OA
ATOM     10  C   UNL     1      -2.788  12.839  22.733  0.00  0.00    +0.000 C 
ATOM     11  C   UNL     1      -3.593  13.591  21.664  0.00  0.00    +0.000 C 
ATOM     12  C   UNL     1      -5.015  13.867  22.185  0.00  0.00    +0.000 C 
ATOM     13  C   UNL     1      -2.927  14.946  21.342  0.00  0.00    +0.000 C 
ATOM     14  C   UNL     1      -3.694  12.714  20.401  0.00  0.00    +0.000 C 
ATOM     15  H   UNL     1      -3.171  11.641  18.141  0.00  0.00    +0.000 HD
ENDROOT
BRANCH   1  19
ATOM     16  C   UNL     1       2.692  14.746  19.357  0.00  0.00    +0.000 A 
ATOM     17  C   UNL     1       2.865  13.999  20.518  0.00  0.00    +0.000 A 
ATOM     18  C   UNL     1       2.031  12.916  20.786  0.00  0.00    +0.000 A 
ATOM     19  C   UNL     1       0.959  12.600  19.935  0.00  0.00    +0.000 A 
ATOM     20  C   UNL     1       0.793  13.362  18.769  0.00  0.00    +0.000 A 
ATOM     21  C   UNL     1       1.649  14.431  18.486  0.00  0.00    +0.000 A 
BRANCH  16  22
ATOM     22  O   UNL     1       3.592  15.758  19.176  0.00  0.00    +0.000 OA
BRANCH  22  24
ATOM     23  C   UNL     1       5.355  14.831  17.874  0.00  0.00    +0.000 C 
ATOM     24  C   UNL     1       4.965  15.374  19.235  0.00  0.00    +0.000 C 
ENDBRANCH  22  24
ENDBRANCH  16  22
ENDBRANCH   1  19
BRANCH   2  25
ATOM     25  C   UNL     1       0.892   9.575  18.757  0.00  0.00    +0.000 C 
ATOM     26  O   UNL     1       1.525   9.501  17.715  0.00  0.00    +0.000 OA
BRANCH  25  27
ATOM     27  O   UNL     1       1.223   8.939  19.901  0.00  0.00    +0.000 OA
BRANCH  27  28
ATOM     28  C   UNL     1       2.020   7.761  19.746  0.00  0.00    +0.000 C 
BRANCH  28  29
ATOM     29  C   UNL     1       1.446   6.713  20.706  0.00  0.00    +0.000 C 
BRANCH  29  30
ATOM     30  C   UNL     1       1.890   5.317  20.367  0.00  0.00    +0.000 A 
ATOM     31  C   UNL     1       1.022   4.234  20.559  0.00  0.00    +0.000 A 
ATOM     32  C   UNL     1       1.454   2.929  20.312  0.00  0.00    +0.000 A 
ATOM     33  C   UNL     1       2.749   2.696  19.851  0.00  0.00    +0.000 A 
ATOM     34  C   UNL     1       3.612   3.768  19.637  0.00  0.00    +0.000 A 
ATOM     35  C   UNL     1       3.188   5.073  19.900  0.00  0.00    +0.000 A 
ENDBRANCH  29  30
ENDBRANCH  28  29
ENDBRANCH  27  28
ENDBRANCH  25  27
ENDBRANCH   2  25
TORSDOF 8
ENDMDL
