MODEL 1
REMARK VINA RESULT:      -8.0      0.000      0.000
REMARK  Name = 
REMARK  8 active torsions:
REMARK  status: ('A' for Active; 'I' for Inactive)
REMARK    1  A    between atoms: C_1  and  C_2
REMARK    2  A    between atoms: C_6  and  O_7
REMARK    3  A    between atoms: O_7  and  C_8
REMARK    4  A    between atoms: C_8  and  C_9
REMARK    5  A    between atoms: N_11  and  C_12
REMARK    6  A    between atoms: C_15  and  N_16
REMARK    7  A    between atoms: C_17  and  C_19
REMARK    8  A    between atoms: C_24  and  C_25
REMARK                            x       y       z     vdW  Elec       q    Type
REMARK                         _______ _______ _______ _____ _____    ______ ____
ROOT
ATOM      1  C   UNL     1       1.397   7.883  20.308  0.00  0.00    +0.000 A 
ATOM      2  C   UNL     1       1.746   8.554  19.145  0.00  0.00    +0.000 A 
ATOM      3  C   UNL     1       2.562   7.941  18.190  0.00  0.00    +0.000 A 
ATOM      4  C   UNL     1       3.024   6.628  18.346  0.00  0.00    +0.000 A 
ATOM      5  C   UNL     1       2.699   5.945  19.531  0.00  0.00    +0.000 A 
ATOM      6  C   UNL     1       3.086   4.518  19.813  0.00  0.00    +0.000 C 
ATOM      7  C   UNL     1       1.922   6.604  20.519  0.00  0.00    +0.000 A 
ENDROOT
BRANCH   1  10
ATOM      8  C   UNL     1       0.906   9.201  22.367  0.00  0.00    +0.000 C 
ATOM      9  O   UNL     1       2.055   9.540  22.645  0.00  0.00    +0.000 OA
ATOM     10  N   UNL     1       0.525   8.423  21.278  0.00  0.00    +0.000 N 
ATOM     11  H   UNL     1      -0.465   8.344  21.088  0.00  0.00    +0.000 HD
BRANCH   8  12
ATOM     12  C   UNL     1      -0.266   9.672  23.224  0.00  0.00    +0.000 C 
BRANCH  12  13
ATOM     13  O   UNL     1      -0.309  11.089  23.162  0.00  0.00    +0.000 OA
BRANCH  13  19
ATOM     14  C   UNL     1      -4.910  12.964  23.544  0.00  0.00    +0.000 C 
ATOM     15  C   UNL     1      -3.685  12.608  22.753  0.00  0.00    +0.000 A 
ATOM     16  C   UNL     1      -3.614  12.886  21.384  0.00  0.00    +0.000 A 
ATOM     17  C   UNL     1      -2.475  12.548  20.657  0.00  0.00    +0.000 A 
ATOM     18  C   UNL     1      -1.398  11.938  21.296  0.00  0.00    +0.000 A 
ATOM     19  C   UNL     1      -1.446  11.661  22.664  0.00  0.00    +0.000 A 
ATOM     20  C   UNL     1      -2.594  11.989  23.388  0.00  0.00    +0.000 A 
ENDBRANCH  13  19
ENDBRANCH  12  13
ENDBRANCH   8  12
ENDBRANCH   1  10
BRANCH   4  21
ATOM     21  N   UNL     1       3.819   6.020  17.337  0.00  0.00    +0.000 N 
ATOM     22  C   UNL     1       5.142   6.345  17.038  0.00  0.00    +0.000 C 
ATOM     23  O   UNL     1       5.748   7.295  17.526  0.00  0.00    +0.000 OA
ATOM     24  H   UNL     1       3.392   5.338  16.724  0.00  0.00    +0.000 HD
BRANCH  22  25
ATOM     25  C   UNL     1       5.784   5.492  16.058  0.00  0.00    +0.000 A 
ATOM     26  C   UNL     1       5.275   4.401  15.376  0.00  0.00    +0.000 A 
ATOM     27  C   UNL     1       6.286   3.957  14.494  0.00  0.00    +0.000 A 
ATOM     28  C   UNL     1       7.355   4.800  14.695  0.00  0.00    +0.000 A 
ATOM     29  O   UNL     1       7.069   5.729  15.653  0.00  0.00    +0.000 OA
ENDBRANCH  22  25
ENDBRANCH   4  21
TORSDOF 6
ENDMDL
MODEL 2
REMARK VINA RESULT:      -7.9      0.569      1.510
REMARK  Name = 
REMARK  8 active torsions:
REMARK  status: ('A' for Active; 'I' for Inactive)
REMARK    1  A    between atoms: C_1  and  C_2
REMARK    2  A    between atoms: C_6  and  O_7
REMARK    3  A    between atoms: O_7  and  C_8
REMARK    4  A    between atoms: C_8  and  C_9
REMARK    5  A    between atoms: N_11  and  C_12
REMARK    6  A    between atoms: C_15  and  N_16
REMARK    7  A    between atoms: C_17  and  C_19
REMARK    8  A    between atoms: C_24  and  C_25
REMARK                            x       y       z     vdW  Elec       q    Type
REMARK                         _______ _______ _______ _____ _____    ______ ____
ROOT
ATOM      1  C   UNL     1       1.381   7.978  20.302  0.00  0.00    +0.000 A 
ATOM      2  C   UNL     1       1.708   8.667  19.143  0.00  0.00    +0.000 A 
ATOM      3  C   UNL     1       2.516   8.073  18.170  0.00  0.00    +0.000 A 
ATOM      4  C   UNL     1       2.993   6.763  18.302  0.00  0.00    +0.000 A 
ATOM      5  C   UNL     1       2.690   6.062  19.483  0.00  0.00    +0.000 A 
ATOM      6  C   UNL     1       3.094   4.635  19.742  0.00  0.00    +0.000 C 
ATOM      7  C   UNL     1       1.920   6.701  20.490  0.00  0.00    +0.000 A 
ENDROOT
BRANCH   1  10
ATOM      8  C   UNL     1       0.913   9.194  22.428  0.00  0.00    +0.000 C 
ATOM      9  O   UNL     1       2.070   9.468  22.741  0.00  0.00    +0.000 OA
ATOM     10  N   UNL     1       0.517   8.497  21.291  0.00  0.00    +0.000 N 
ATOM     11  H   UNL     1      -0.473   8.471  21.083  0.00  0.00    +0.000 HD
BRANCH   8  12
ATOM     12  C   UNL     1      -0.252   9.663  23.296  0.00  0.00    +0.000 C 
BRANCH  12  13
ATOM     13  O   UNL     1      -0.321  11.078  23.204  0.00  0.00    +0.000 OA
BRANCH  13  19
ATOM     14  C   UNL     1      -1.846  12.204  18.596  0.00  0.00    +0.000 C 
ATOM     15  C   UNL     1      -2.030  12.183  20.085  0.00  0.00    +0.000 A 
ATOM     16  C   UNL     1      -3.191  12.704  20.667  0.00  0.00    +0.000 A 
ATOM     17  C   UNL     1      -3.352  12.686  22.051  0.00  0.00    +0.000 A 
ATOM     18  C   UNL     1      -2.357  12.139  22.860  0.00  0.00    +0.000 A 
ATOM     19  C   UNL     1      -1.195  11.606  22.296  0.00  0.00    +0.000 A 
ATOM     20  C   UNL     1      -1.030  11.638  20.910  0.00  0.00    +0.000 A 
ENDBRANCH  13  19
ENDBRANCH  12  13
ENDBRANCH   8  12
ENDBRANCH   1  10
BRANCH   4  21
ATOM     21  N   UNL     1       3.780   6.176  17.275  0.00  0.00    +0.000 N 
ATOM     22  C   UNL     1       5.174   6.157  17.228  0.00  0.00    +0.000 C 
ATOM     23  O   UNL     1       5.899   6.766  18.009  0.00  0.00    +0.000 OA
ATOM     24  H   UNL     1       3.314   5.792  16.463  0.00  0.00    +0.000 HD
BRANCH  22  25
ATOM     25  C   UNL     1       5.748   5.379  16.149  0.00  0.00    +0.000 A 
ATOM     26  C   UNL     1       5.371   4.139  15.665  0.00  0.00    +0.000 A 
ATOM     27  C   UNL     1       6.216   3.852  14.568  0.00  0.00    +0.000 A 
ATOM     28  C   UNL     1       7.062   4.930  14.453  0.00  0.00    +0.000 A 
ATOM     29  O   UNL     1       6.798   5.861  15.417  0.00  0.00    +0.000 OA
ENDBRANCH  22  25
ENDBRANCH   4  21
TORSDOF 6
ENDMDL
MODEL 3
REMARK VINA RESULT:      -7.8      1.832     10.186
REMARK  Name = 
REMARK  8 active torsions:
REMARK  status: ('A' for Active; 'I' for Inactive)
REMARK    1  A    between atoms: C_1  and  C_2
REMARK    2  A    between atoms: C_6  and  O_7
REMARK    3  A    between atoms: O_7  and  C_8
REMARK    4  A    between atoms: C_8  and  C_9
REMARK    5  A    between atoms: N_11  and  C_12
REMARK    6  A    between atoms: C_15  and  N_16
REMARK    7  A    between atoms: C_17  and  C_19
REMARK    8  A    between atoms: C_24  and  C_25
REMARK                            x       y       z     vdW  Elec       q    Type
REMARK                         _______ _______ _______ _____ _____    ______ ____
ROOT
ATOM      1  C   UNL     1       2.421   6.216  19.309  0.00  0.00    +0.000 A 
ATOM      2  C   UNL     1       1.767   6.208  20.532  0.00  0.00    +0.000 A 
ATOM      3  C   UNL     1       1.122   7.357  21.000  0.00  0.00    +0.000 A 
ATOM      4  C   UNL     1       1.078   8.537  20.248  0.00  0.00    +0.000 A 
ATOM      5  C   UNL     1       1.758   8.567  19.017  0.00  0.00    +0.000 A 
ATOM      6  C   UNL     1       1.756   9.749  18.085  0.00  0.00    +0.000 C 
ATOM      7  C   UNL     1       2.460   7.413  18.585  0.00  0.00    +0.000 A 
ENDROOT
BRANCH   1  10
ATOM      8  C   UNL     1       2.435   4.186  17.861  0.00  0.00    +0.000 C 
ATOM      9  O   UNL     1       1.290   4.268  17.420  0.00  0.00    +0.000 OA
ATOM     10  N   UNL     1       3.033   5.072  18.753  0.00  0.00    +0.000 N 
ATOM     11  H   UNL     1       4.025   4.966  18.917  0.00  0.00    +0.000 HD
BRANCH   8  12
ATOM     12  C   UNL     1       3.359   3.060  17.404  0.00  0.00    +0.000 C 
BRANCH  12  13
ATOM     13  O   UNL     1       4.696   3.461  17.664  0.00  0.00    +0.000 OA
BRANCH  13  19
ATOM     14  C   UNL     1       5.956   3.592  12.844  0.00  0.00    +0.000 C 
ATOM     15  C   UNL     1       6.115   4.038  14.269  0.00  0.00    +0.000 A 
ATOM     16  C   UNL     1       7.066   5.005  14.611  0.00  0.00    +0.000 A 
ATOM     17  C   UNL     1       7.210   5.409  15.936  0.00  0.00    +0.000 A 
ATOM     18  C   UNL     1       6.399   4.855  16.925  0.00  0.00    +0.000 A 
ATOM     19  C   UNL     1       5.438   3.895  16.601  0.00  0.00    +0.000 A 
ATOM     20  C   UNL     1       5.304   3.482  15.274  0.00  0.00    +0.000 A 
ENDBRANCH  13  19
ENDBRANCH  12  13
ENDBRANCH   8  12
ENDBRANCH   1  10
BRANCH   4  21
ATOM     21  N   UNL     1       0.380   9.675  20.736  0.00  0.00    +0.000 N 
ATOM     22  C   UNL     1       0.453  10.180  22.034  0.00  0.00    +0.000 C 
ATOM     23  O   UNL     1       1.034   9.622  22.960  0.00  0.00    +0.000 OA
ATOM     24  H   UNL     1      -0.285  10.136  20.129  0.00  0.00    +0.000 HD
BRANCH  22  25
ATOM     25  C   UNL     1      -0.244  11.431  22.253  0.00  0.00    +0.000 A 
ATOM     26  C   UNL     1      -1.471  11.657  22.853  0.00  0.00    +0.000 A 
ATOM     27  C   UNL     1      -1.669  13.057  22.870  0.00  0.00    +0.000 A 
ATOM     28  C   UNL     1      -0.555  13.601  22.273  0.00  0.00    +0.000 A 
ATOM     29  O   UNL     1       0.314  12.623  21.881  0.00  0.00    +0.000 OA
ENDBRANCH  22  25
ENDBRANCH   4  21
TORSDOF 6
ENDMDL
MODEL 4
REMARK VINA RESULT:      -7.6      2.116      9.917
REMARK  Name = 
REMARK  8 active torsions:
REMARK  status: ('A' for Active; 'I' for Inactive)
REMARK    1  A    between atoms: C_1  and  C_2
REMARK    2  A    between atoms: C_6  and  O_7
REMARK    3  A    between atoms: O_7  and  C_8
REMARK    4  A    between atoms: C_8  and  C_9
REMARK    5  A    between atoms: N_11  and  C_12
REMARK    6  A    between atoms: C_15  and  N_16
REMARK    7  A    between atoms: C_17  and  C_19
REMARK    8  A    between atoms: C_24  and  C_25
REMARK                            x       y       z     vdW  Elec       q    Type
REMARK                         _______ _______ _______ _____ _____    ______ ____
ROOT
ATOM      1  C   UNL     1       2.260   7.274  19.578  0.00  0.00    +0.000 A 
ATOM      2  C   UNL     1       1.600   7.082  20.783  0.00  0.00    +0.000 A 
ATOM      3  C   UNL     1       0.738   8.062  21.283  0.00  0.00    +0.000 A 
ATOM      4  C   UNL     1       0.478   9.246  20.582  0.00  0.00    +0.000 A 
ATOM      5  C   UNL     1       1.160   9.465  19.371  0.00  0.00    +0.000 A 
ATOM      6  C   UNL     1       0.946  10.667  18.491  0.00  0.00    +0.000 C 
ATOM      7  C   UNL     1       2.079   8.489  18.908  0.00  0.00    +0.000 A 
ENDROOT
BRANCH   1  10
ATOM      8  C   UNL     1       2.674   5.302  18.109  0.00  0.00    +0.000 C 
ATOM      9  O   UNL     1       1.525   5.129  17.708  0.00  0.00    +0.000 OA
ATOM     10  N   UNL     1       3.091   6.296  18.989  0.00  0.00    +0.000 N 
ATOM     11  H   UNL     1       4.087   6.414  19.118  0.00  0.00    +0.000 HD
BRANCH   8  12
ATOM     12  C   UNL     1       3.809   4.412  17.608  0.00  0.00    +0.000 C 
BRANCH  12  13
ATOM     13  O   UNL     1       4.647   5.201  16.778  0.00  0.00    +0.000 OA
BRANCH  13  19
ATOM     14  C   UNL     1       7.957   8.825  17.639  0.00  0.00    +0.000 C 
ATOM     15  C   UNL     1       7.437   7.431  17.834  0.00  0.00    +0.000 A 
ATOM     16  C   UNL     1       8.099   6.535  18.681  0.00  0.00    +0.000 A 
ATOM     17  C   UNL     1       7.613   5.241  18.853  0.00  0.00    +0.000 A 
ATOM     18  C   UNL     1       6.458   4.838  18.186  0.00  0.00    +0.000 A 
ATOM     19  C   UNL     1       5.778   5.720  17.343  0.00  0.00    +0.000 A 
ATOM     20  C   UNL     1       6.275   7.013  17.162  0.00  0.00    +0.000 A 
ENDBRANCH  13  19
ENDBRANCH  12  13
ENDBRANCH   8  12
ENDBRANCH   1  10
BRANCH   4  21
ATOM     21  N   UNL     1      -0.434  10.205  21.100  0.00  0.00    +0.000 N 
ATOM     22  C   UNL     1      -0.467  10.670  22.414  0.00  0.00    +0.000 C 
ATOM     23  O   UNL     1       0.212  10.208  23.328  0.00  0.00    +0.000 OA
ATOM     24  H   UNL     1      -1.177  10.543  20.503  0.00  0.00    +0.000 HD
BRANCH  22  25
ATOM     25  C   UNL     1      -1.401  11.748  22.669  0.00  0.00    +0.000 A 
ATOM     26  C   UNL     1      -2.558  11.744  23.428  0.00  0.00    +0.000 A 
ATOM     27  C   UNL     1      -3.072  13.061  23.401  0.00  0.00    +0.000 A 
ATOM     28  C   UNL     1      -2.202  13.788  22.622  0.00  0.00    +0.000 A 
ATOM     29  O   UNL     1      -1.188  12.999  22.159  0.00  0.00    +0.000 OA
ENDBRANCH  22  25
ENDBRANCH   4  21
TORSDOF 6
ENDMDL
MODEL 5
REMARK VINA RESULT:      -7.6      1.203      1.617
REMARK  Name = 
REMARK  8 active torsions:
REMARK  status: ('A' for Active; 'I' for Inactive)
REMARK    1  A    between atoms: C_1  and  C_2
REMARK    2  A    between atoms: C_6  and  O_7
REMARK    3  A    between atoms: O_7  and  C_8
REMARK    4  A    between atoms: C_8  and  C_9
REMARK    5  A    between atoms: N_11  and  C_12
REMARK    6  A    between atoms: C_15  and  N_16
REMARK    7  A    between atoms: C_17  and  C_19
REMARK    8  A    between atoms: C_24  and  C_25
REMARK                            x       y       z     vdW  Elec       q    Type
REMARK                         _______ _______ _______ _____ _____    ______ ____
ROOT
ATOM      1  C   UNL     1       1.227   8.253  20.181  0.00  0.00    +0.000 A 
ATOM      2  C   UNL     1       1.597   8.849  18.984  0.00  0.00    +0.000 A 
ATOM      3  C   UNL     1       2.414   8.170  18.076  0.00  0.00    +0.000 A 
ATOM      4  C   UNL     1       2.857   6.863  18.314  0.00  0.00    +0.000 A 
ATOM      5  C   UNL     1       2.511   6.256  19.535  0.00  0.00    +0.000 A 
ATOM      6  C   UNL     1       2.878   4.844  19.905  0.00  0.00    +0.000 C 
ATOM      7  C   UNL     1       1.733   6.982  20.473  0.00  0.00    +0.000 A 
ENDROOT
BRANCH   1  10
ATOM      8  C   UNL     1       0.731   9.474  22.298  0.00  0.00    +0.000 C 
ATOM      9  O   UNL     1       1.882   9.586  22.718  0.00  0.00    +0.000 OA
ATOM     10  N   UNL     1       0.352   8.860  21.108  0.00  0.00    +0.000 N 
ATOM     11  H   UNL     1      -0.610   8.969  20.816  0.00  0.00    +0.000 HD
BRANCH   8  12
ATOM     12  C   UNL     1      -0.436  10.074  23.077  0.00  0.00    +0.000 C 
BRANCH  12  13
ATOM     13  O   UNL     1      -1.005  11.104  22.284  0.00  0.00    +0.000 OA
BRANCH  13  19
ATOM     14  C   UNL     1      -0.970  15.730  24.137  0.00  0.00    +0.000 C 
ATOM     15  C   UNL     1      -1.643  14.416  23.863  0.00  0.00    +0.000 A 
ATOM     16  C   UNL     1      -2.967  14.198  24.257  0.00  0.00    +0.000 A 
ATOM     17  C   UNL     1      -3.583  12.974  24.004  0.00  0.00    +0.000 A 
ATOM     18  C   UNL     1      -2.880  11.965  23.348  0.00  0.00    +0.000 A 
ATOM     19  C   UNL     1      -1.560  12.167  22.940  0.00  0.00    +0.000 A 
ATOM     20  C   UNL     1      -0.941  13.390  23.206  0.00  0.00    +0.000 A 
ENDBRANCH  13  19
ENDBRANCH  12  13
ENDBRANCH   8  12
ENDBRANCH   1  10
BRANCH   4  21
ATOM     21  N   UNL     1       3.655   6.187  17.352  0.00  0.00    +0.000 N 
ATOM     22  C   UNL     1       5.010   6.414  17.113  0.00  0.00    +0.000 C 
ATOM     23  O   UNL     1       5.657   7.326  17.620  0.00  0.00    +0.000 OA
ATOM     24  H   UNL     1       3.210   5.527  16.726  0.00  0.00    +0.000 HD
BRANCH  22  25
ATOM     25  C   UNL     1       5.636   5.504  16.176  0.00  0.00    +0.000 A 
ATOM     26  C   UNL     1       5.333   4.182  15.900  0.00  0.00    +0.000 A 
ATOM     27  C   UNL     1       6.202   3.768  14.865  0.00  0.00    +0.000 A 
ATOM     28  C   UNL     1       6.988   4.859  14.575  0.00  0.00    +0.000 A 
ATOM     29  O   UNL     1       6.664   5.918  15.374  0.00  0.00    +0.000 OA
ENDBRANCH  22  25
ENDBRANCH   4  21
TORSDOF 6
ENDMDL
MODEL 6
REMARK VINA RESULT:      -7.5      2.580      9.616
REMARK  Name = 
REMARK  8 active torsions:
REMARK  status: ('A' for Active; 'I' for Inactive)
REMARK    1  A    between atoms: C_1  and  C_2
REMARK    2  A    between atoms: C_6  and  O_7
REMARK    3  A    between atoms: O_7  and  C_8
REMARK    4  A    between atoms: C_8  and  C_9
REMARK    5  A    between atoms: N_11  and  C_12
REMARK    6  A    between atoms: C_15  and  N_16
REMARK    7  A    between atoms: C_17  and  C_19
REMARK    8  A    between atoms: C_24  and  C_25
REMARK                            x       y       z     vdW  Elec       q    Type
REMARK                         _______ _______ _______ _____ _____    ______ ____
ROOT
ATOM      1  C   UNL     1       2.331   6.827  19.267  0.00  0.00    +0.000 A 
ATOM      2  C   UNL     1       2.327   7.689  18.180  0.00  0.00    +0.000 A 
ATOM      3  C   UNL     1       1.804   8.980  18.300  0.00  0.00    +0.000 A 
ATOM      4  C   UNL     1       1.303   9.464  19.515  0.00  0.00    +0.000 A 
ATOM      5  C   UNL     1       1.278   8.593  20.619  0.00  0.00    +0.000 A 
ATOM      6  C   UNL     1       0.812   8.990  21.993  0.00  0.00    +0.000 C 
ATOM      7  C   UNL     1       1.755   7.266  20.464  0.00  0.00    +0.000 A 
ENDROOT
BRANCH   1  10
ATOM      8  C   UNL     1       2.443   4.469  18.462  0.00  0.00    +0.000 C 
ATOM      9  O   UNL     1       1.475   4.489  17.703  0.00  0.00    +0.000 OA
ATOM     10  N   UNL     1       2.903   5.537  19.227  0.00  0.00    +0.000 N 
ATOM     11  H   UNL     1       3.794   5.424  19.692  0.00  0.00    +0.000 HD
BRANCH   8  12
ATOM     12  C   UNL     1       3.290   3.207  18.599  0.00  0.00    +0.000 C 
BRANCH  12  13
ATOM     13  O   UNL     1       4.088   3.090  17.431  0.00  0.00    +0.000 OA
BRANCH  13  19
ATOM     14  C   UNL     1       7.915   5.886  18.971  0.00  0.00    +0.000 C 
ATOM     15  C   UNL     1       6.969   5.401  17.911  0.00  0.00    +0.000 A 
ATOM     16  C   UNL     1       7.075   5.865  16.595  0.00  0.00    +0.000 A 
ATOM     17  C   UNL     1       6.189   5.413  15.619  0.00  0.00    +0.000 A 
ATOM     18  C   UNL     1       5.199   4.491  15.950  0.00  0.00    +0.000 A 
ATOM     19  C   UNL     1       5.083   4.010  17.257  0.00  0.00    +0.000 A 
ATOM     20  C   UNL     1       5.963   4.474  18.237  0.00  0.00    +0.000 A 
ENDBRANCH  13  19
ENDBRANCH  12  13
ENDBRANCH   8  12
ENDBRANCH   1  10
BRANCH   4  21
ATOM     21  N   UNL     1       0.814  10.795  19.612  0.00  0.00    +0.000 N 
ATOM     22  C   UNL     1      -0.505  11.195  19.404  0.00  0.00    +0.000 C 
ATOM     23  O   UNL     1      -1.391  10.459  18.977  0.00  0.00    +0.000 OA
ATOM     24  H   UNL     1       1.473  11.545  19.779  0.00  0.00    +0.000 HD
BRANCH  22  25
ATOM     25  C   UNL     1      -0.785  12.586  19.695  0.00  0.00    +0.000 A 
ATOM     26  C   UNL     1      -0.179  13.726  19.197  0.00  0.00    +0.000 A 
ATOM     27  C   UNL     1      -0.861  14.832  19.753  0.00  0.00    +0.000 A 
ATOM     28  C   UNL     1      -1.839  14.302  20.562  0.00  0.00    +0.000 A 
ATOM     29  O   UNL     1      -1.796  12.937  20.547  0.00  0.00    +0.000 OA
ENDBRANCH  22  25
ENDBRANCH   4  21
TORSDOF 6
ENDMDL
MODEL 7
REMARK VINA RESULT:      -7.5      1.971      9.864
REMARK  Name = 
REMARK  8 active torsions:
REMARK  status: ('A' for Active; 'I' for Inactive)
REMARK    1  A    between atoms: C_1  and  C_2
REMARK    2  A    between atoms: C_6  and  O_7
REMARK    3  A    between atoms: O_7  and  C_8
REMARK    4  A    between atoms: C_8  and  C_9
REMARK    5  A    between atoms: N_11  and  C_12
REMARK    6  A    between atoms: C_15  and  N_16
REMARK    7  A    between atoms: C_17  and  C_19
REMARK    8  A    between atoms: C_24  and  C_25
REMARK                            x       y       z     vdW  Elec       q    Type
REMARK                         _______ _______ _______ _____ _____    ______ ____
ROOT
ATOM      1  C   UNL     1       2.384   6.316  19.369  0.00  0.00    +0.000 A 
ATOM      2  C   UNL     1       1.848   6.388  20.646  0.00  0.00    +0.000 A 
ATOM      3  C   UNL     1       1.269   7.574  21.107  0.00  0.00    +0.000 A 
ATOM      4  C   UNL     1       1.173   8.712  20.298  0.00  0.00    +0.000 A 
ATOM      5  C   UNL     1       1.735   8.662  19.010  0.00  0.00    +0.000 A 
ATOM      6  C   UNL     1       1.665   9.791  18.017  0.00  0.00    +0.000 C 
ATOM      7  C   UNL     1       2.374   7.471  18.580  0.00  0.00    +0.000 A 
ENDROOT
BRANCH   1  10
ATOM      8  C   UNL     1       2.291   4.305  17.897  0.00  0.00    +0.000 C 
ATOM      9  O   UNL     1       1.176   4.485  17.412  0.00  0.00    +0.000 OA
ATOM     10  N   UNL     1       2.922   5.131  18.823  0.00  0.00    +0.000 N 
ATOM     11  H   UNL     1       3.895   4.942  19.025  0.00  0.00    +0.000 HD
BRANCH   8  12
ATOM     12  C   UNL     1       3.138   3.112  17.463  0.00  0.00    +0.000 C 
BRANCH  12  13
ATOM     13  O   UNL     1       4.446   3.294  17.982  0.00  0.00    +0.000 OA
BRANCH  13  19
ATOM     14  C   UNL     1       7.612   7.103  17.433  0.00  0.00    +0.000 C 
ATOM     15  C   UNL     1       6.869   5.910  16.906  0.00  0.00    +0.000 A 
ATOM     16  C   UNL     1       7.040   5.492  15.582  0.00  0.00    +0.000 A 
ATOM     17  C   UNL     1       6.343   4.387  15.100  0.00  0.00    +0.000 A 
ATOM     18  C   UNL     1       5.477   3.689  15.940  0.00  0.00    +0.000 A 
ATOM     19  C   UNL     1       5.300   4.086  17.267  0.00  0.00    +0.000 A 
ATOM     20  C   UNL     1       5.990   5.202  17.745  0.00  0.00    +0.000 A 
ENDBRANCH  13  19
ENDBRANCH  12  13
ENDBRANCH   8  12
ENDBRANCH   1  10
BRANCH   4  21
ATOM     21  N   UNL     1       0.543   9.890  20.785  0.00  0.00    +0.000 N 
ATOM     22  C   UNL     1      -0.256   9.974  21.925  0.00  0.00    +0.000 C 
ATOM     23  O   UNL     1      -0.625   9.006  22.583  0.00  0.00    +0.000 OA
ATOM     24  H   UNL     1       0.608  10.739  20.238  0.00  0.00    +0.000 HD
BRANCH  22  25
ATOM     25  C   UNL     1      -0.675  11.312  22.291  0.00  0.00    +0.000 A 
ATOM     26  C   UNL     1      -1.808  11.721  22.972  0.00  0.00    +0.000 A 
ATOM     27  C   UNL     1      -1.714  13.123  23.124  0.00  0.00    +0.000 A 
ATOM     28  C   UNL     1      -0.532  13.487  22.522  0.00  0.00    +0.000 A 
ATOM     29  O   UNL     1       0.104  12.398  22.000  0.00  0.00    +0.000 OA
ENDBRANCH  22  25
ENDBRANCH   4  21
TORSDOF 6
ENDMDL
MODEL 8
REMARK VINA RESULT:      -7.5      2.474     10.089
REMARK  Name = 
REMARK  8 active torsions:
REMARK  status: ('A' for Active; 'I' for Inactive)
REMARK    1  A    between atoms: C_1  and  C_2
REMARK    2  A    between atoms: C_6  and  O_7
REMARK    3  A    between atoms: O_7  and  C_8
REMARK    4  A    between atoms: C_8  and  C_9
REMARK    5  A    between atoms: N_11  and  C_12
REMARK    6  A    between atoms: C_15  and  N_16
REMARK    7  A    between atoms: C_17  and  C_19
REMARK    8  A    between atoms: C_24  and  C_25
REMARK                            x       y       z     vdW  Elec       q    Type
REMARK                         _______ _______ _______ _____ _____    ______ ____
ROOT
ATOM      1  C   UNL     1       2.011   7.647  19.950  0.00  0.00    +0.000 A 
ATOM      2  C   UNL     1       1.833   8.535  18.899  0.00  0.00    +0.000 A 
ATOM      3  C   UNL     1       1.032   9.670  19.058  0.00  0.00    +0.000 A 
ATOM      4  C   UNL     1       0.416   9.975  20.277  0.00  0.00    +0.000 A 
ATOM      5  C   UNL     1       0.567   9.070  21.344  0.00  0.00    +0.000 A 
ATOM      6  C   UNL     1       0.001   9.291  22.721  0.00  0.00    +0.000 C 
ATOM      7  C   UNL     1       1.331   7.891  21.148  0.00  0.00    +0.000 A 
ENDROOT
BRANCH   1  10
ATOM      8  C   UNL     1       2.439   5.195  19.792  0.00  0.00    +0.000 C 
ATOM      9  O   UNL     1       1.272   4.807  19.770  0.00  0.00    +0.000 OA
ATOM     10  N   UNL     1       2.858   6.520  19.873  0.00  0.00    +0.000 N 
ATOM     11  H   UNL     1       3.843   6.704  19.734  0.00  0.00    +0.000 HD
BRANCH   8  12
ATOM     12  C   UNL     1       3.587   4.195  19.684  0.00  0.00    +0.000 C 
BRANCH  12  13
ATOM     13  O   UNL     1       3.629   3.724  18.346  0.00  0.00    +0.000 OA
BRANCH  13  19
ATOM     14  C   UNL     1       6.255   4.109  14.128  0.00  0.00    +0.000 C 
ATOM     15  C   UNL     1       6.118   4.216  15.618  0.00  0.00    +0.000 A 
ATOM     16  C   UNL     1       7.192   4.648  16.404  0.00  0.00    +0.000 A 
ATOM     17  C   UNL     1       7.058   4.740  17.787  0.00  0.00    +0.000 A 
ATOM     18  C   UNL     1       5.847   4.410  18.392  0.00  0.00    +0.000 A 
ATOM     19  C   UNL     1       4.760   3.985  17.624  0.00  0.00    +0.000 A 
ATOM     20  C   UNL     1       4.901   3.881  16.239  0.00  0.00    +0.000 A 
ENDBRANCH  13  19
ENDBRANCH  12  13
ENDBRANCH   8  12
ENDBRANCH   1  10
BRANCH   4  21
ATOM     21  N   UNL     1      -0.360  11.158  20.416  0.00  0.00    +0.000 N 
ATOM     22  C   UNL     1      -1.537  11.445  19.726  0.00  0.00    +0.000 C 
ATOM     23  O   UNL     1      -1.983  10.762  18.807  0.00  0.00    +0.000 OA
ATOM     24  H   UNL     1      -0.014  11.901  21.009  0.00  0.00    +0.000 HD
BRANCH  22  25
ATOM     25  C   UNL     1      -2.220  12.654  20.138  0.00  0.00    +0.000 A 
ATOM     26  C   UNL     1      -3.565  12.861  20.388  0.00  0.00    +0.000 A 
ATOM     27  C   UNL     1      -3.703  14.201  20.817  0.00  0.00    +0.000 A 
ATOM     28  C   UNL     1      -2.435  14.734  20.797  0.00  0.00    +0.000 A 
ATOM     29  O   UNL     1      -1.525  13.809  20.373  0.00  0.00    +0.000 OA
ENDBRANCH  22  25
ENDBRANCH   4  21
TORSDOF 6
ENDMDL
MODEL 9
REMARK VINA RESULT:      -7.5      2.430      9.920
REMARK  Name = 
REMARK  8 active torsions:
REMARK  status: ('A' for Active; 'I' for Inactive)
REMARK    1  A    between atoms: C_1  and  C_2
REMARK    2  A    between atoms: C_6  and  O_7
REMARK    3  A    between atoms: O_7  and  C_8
REMARK    4  A    between atoms: C_8  and  C_9
REMARK    5  A    between atoms: N_11  and  C_12
REMARK    6  A    between atoms: C_15  and  N_16
REMARK    7  A    between atoms: C_17  and  C_19
REMARK    8  A    between atoms: C_24  and  C_25
REMARK                            x       y       z     vdW  Elec       q    Type
REMARK                         _______ _______ _______ _____ _____    ______ ____
ROOT
ATOM      1  C   UNL     1       2.330   7.036  19.099  0.00  0.00    +0.000 A 
ATOM      2  C   UNL     1       2.237   7.944  18.055  0.00  0.00    +0.000 A 
ATOM      3  C   UNL     1       1.656   9.200  18.257  0.00  0.00    +0.000 A 
ATOM      4  C   UNL     1       1.185   9.603  19.512  0.00  0.00    +0.000 A 
ATOM      5  C   UNL     1       1.250   8.683  20.574  0.00  0.00    +0.000 A 
ATOM      6  C   UNL     1       0.825   8.995  21.984  0.00  0.00    +0.000 C 
ATOM      7  C   UNL     1       1.785   7.391  20.338  0.00  0.00    +0.000 A 
ENDROOT
BRANCH   1  10
ATOM      8  C   UNL     1       2.457   4.681  18.290  0.00  0.00    +0.000 C 
ATOM      9  O   UNL     1       1.387   4.638  17.685  0.00  0.00    +0.000 OA
ATOM     10  N   UNL     1       2.964   5.780  18.976  0.00  0.00    +0.000 N 
ATOM     11  H   UNL     1       3.919   5.723  19.302  0.00  0.00    +0.000 HD
BRANCH   8  12
ATOM     12  C   UNL     1       3.387   3.470  18.300  0.00  0.00    +0.000 C 
BRANCH  12  13
ATOM     13  O   UNL     1       4.705   3.936  18.545  0.00  0.00    +0.000 OA
BRANCH  13  19
ATOM     14  C   UNL     1       5.972   3.824  13.727  0.00  0.00    +0.000 C 
ATOM     15  C   UNL     1       6.125   4.344  15.126  0.00  0.00    +0.000 A 
ATOM     16  C   UNL     1       7.069   5.335  15.419  0.00  0.00    +0.000 A 
ATOM     17  C   UNL     1       7.208   5.809  16.721  0.00  0.00    +0.000 A 
ATOM     18  C   UNL     1       6.399   5.302  17.737  0.00  0.00    +0.000 A 
ATOM     19  C   UNL     1       5.446   4.319  17.462  0.00  0.00    +0.000 A 
ATOM     20  C   UNL     1       5.317   3.836  16.158  0.00  0.00    +0.000 A 
ENDBRANCH  13  19
ENDBRANCH  12  13
ENDBRANCH   8  12
ENDBRANCH   1  10
BRANCH   4  21
ATOM     21  N   UNL     1       0.635  10.901  19.692  0.00  0.00    +0.000 N 
ATOM     22  C   UNL     1      -0.703  11.251  19.509  0.00  0.00    +0.000 C 
ATOM     23  O   UNL     1      -1.555  10.502  19.039  0.00  0.00    +0.000 OA
ATOM     24  H   UNL     1       1.259  11.669  19.903  0.00  0.00    +0.000 HD
BRANCH  22  25
ATOM     25  C   UNL     1      -1.046  12.608  19.885  0.00  0.00    +0.000 A 
ATOM     26  C   UNL     1      -0.326  13.776  19.709  0.00  0.00    +0.000 A 
ATOM     27  C   UNL     1      -1.128  14.832  20.197  0.00  0.00    +0.000 A 
ATOM     28  C   UNL     1      -2.287  14.245  20.649  0.00  0.00    +0.000 A 
ATOM     29  O   UNL     1      -2.246  12.891  20.478  0.00  0.00    +0.000 OA
ENDBRANCH  22  25
ENDBRANCH   4  21
TORSDOF 6
ENDMDL
