MODEL 1
REMARK VINA RESULT:      -7.6      0.000      0.000
REMARK  Name = 
REMARK  9 active torsions:
REMARK  status: ('A' for Active; 'I' for Inactive)
REMARK    1  A    between atoms: C_1  and  C_2
REMARK    2  A    between atoms: C_2  and  C_3
REMARK    3  A    between atoms: C_3  and  C_4
REMARK    4  A    between atoms: C_4  and  C_5
REMARK    5  A    between atoms: C_5  and  C_6
REMARK    6  A    between atoms: C_6  and  C_7
REMARK    7  A    between atoms: C_7  and  C_8
REMARK    8  A    between atoms: C_8  and  C_9
REMARK    9  A    between atoms: C_9  and  N_10
REMARK                            x       y       z     vdW  Elec       q    Type
REMARK                         _______ _______ _______ _____ _____    ______ ____
ROOT
ATOM      1  N   UNL     1       4.120   4.067  17.906  0.00  0.00    +0.000 N 
ATOM      2  C   UNL     1       4.145   3.058  18.810  0.00  0.00    +0.000 A 
ATOM      3  C   UNL     1       3.531   3.179  20.037  0.00  0.00    +0.000 A 
ATOM      4  C   UNL     1       2.899   4.369  20.355  0.00  0.00    +0.000 A 
ATOM      5  C   UNL     1       2.868   5.449  19.444  0.00  0.00    +0.000 A 
ATOM      6  C   UNL     1       2.239   6.716  19.741  0.00  0.00    +0.000 A 
ATOM      7  C   UNL     1       1.580   7.028  20.958  0.00  0.00    +0.000 A 
ATOM      8  C   UNL     1       1.002   8.281  21.189  0.00  0.00    +0.000 A 
ATOM      9  C   UNL     1       1.069   9.269  20.219  0.00  0.00    +0.000 A 
ATOM     10  C   UNL     1       1.703   9.006  19.014  0.00  0.00    +0.000 A 
ATOM     11  C   UNL     1       2.271   7.749  18.769  0.00  0.00    +0.000 A 
ATOM     12  C   UNL     1       2.869   7.525  17.532  0.00  0.00    +0.000 A 
ATOM     13  C   UNL     1       3.445   6.300  17.238  0.00  0.00    +0.000 A 
ATOM     14  C   UNL     1       3.492   5.256  18.178  0.00  0.00    +0.000 A 
ENDROOT
BRANCH   1  15
ATOM     15  C   UNL     1       4.857   3.852  16.627  0.00  0.00    +0.000 C 
BRANCH  15  16
ATOM     16  C   UNL     1       6.222   4.509  16.717  0.00  0.00    +0.000 C 
BRANCH  16  17
ATOM     17  C   UNL     1       6.895   4.529  15.351  0.00  0.00    +0.000 C 
BRANCH  17  18
ATOM     18  C   UNL     1       5.876   4.277  14.247  0.00  0.00    +0.000 C 
BRANCH  18  19
ATOM     19  C   UNL     1       6.567   3.834  12.962  0.00  0.00    +0.000 C 
BRANCH  19  20
ATOM     20  C   UNL     1       5.629   2.987  12.108  0.00  0.00    +0.000 C 
BRANCH  20  21
ATOM     21  C   UNL     1       4.337   3.746  11.818  0.00  0.00    +0.000 C 
BRANCH  21  23
ATOM     22  C   UNL     1       3.019   4.175   9.729  0.00  0.00    +0.000 C 
ATOM     23  C   UNL     1       3.574   3.110  10.661  0.00  0.00    +0.000 C 
ENDBRANCH  21  23
ENDBRANCH  20  21
ENDBRANCH  19  20
ENDBRANCH  18  19
ENDBRANCH  17  18
ENDBRANCH  16  17
ENDBRANCH  15  16
ENDBRANCH   1  15
TORSDOF 8
ENDMDL
MODEL 2
REMARK VINA RESULT:      -7.6      2.252      3.084
REMARK  Name = 
REMARK  9 active torsions:
REMARK  status: ('A' for Active; 'I' for Inactive)
REMARK    1  A    between atoms: C_1  and  C_2
REMARK    2  A    between atoms: C_2  and  C_3
REMARK    3  A    between atoms: C_3  and  C_4
REMARK    4  A    between atoms: C_4  and  C_5
REMARK    5  A    between atoms: C_5  and  C_6
REMARK    6  A    between atoms: C_6  and  C_7
REMARK    7  A    between atoms: C_7  and  C_8
REMARK    8  A    between atoms: C_8  and  C_9
REMARK    9  A    between atoms: C_9  and  N_10
REMARK                            x       y       z     vdW  Elec       q    Type
REMARK                         _______ _______ _______ _____ _____    ______ ____
ROOT
ATOM      1  N   UNL     1       6.277   4.296  16.810  0.00  0.00    +0.000 N 
ATOM      2  C   UNL     1       7.210   5.050  17.442  0.00  0.00    +0.000 A 
ATOM      3  C   UNL     1       6.963   5.607  18.677  0.00  0.00    +0.000 A 
ATOM      4  C   UNL     1       5.725   5.412  19.266  0.00  0.00    +0.000 A 
ATOM      5  C   UNL     1       4.723   4.647  18.627  0.00  0.00    +0.000 A 
ATOM      6  C   UNL     1       3.410   4.433  19.194  0.00  0.00    +0.000 A 
ATOM      7  C   UNL     1       2.973   4.949  20.441  0.00  0.00    +0.000 A 
ATOM      8  C   UNL     1       1.682   4.717  20.928  0.00  0.00    +0.000 A 
ATOM      9  C   UNL     1       0.780   3.972  20.184  0.00  0.00    +0.000 A 
ATOM     10  C   UNL     1       1.167   3.448  18.960  0.00  0.00    +0.000 A 
ATOM     11  C   UNL     1       2.463   3.663  18.472  0.00  0.00    +0.000 A 
ATOM     12  C   UNL     1       2.813   3.090  17.252  0.00  0.00    +0.000 A 
ATOM     13  C   UNL     1       4.081   3.271  16.726  0.00  0.00    +0.000 A 
ATOM     14  C   UNL     1       5.045   4.067  17.366  0.00  0.00    +0.000 A 
ENDROOT
BRANCH   1  15
ATOM     15  C   UNL     1       6.628   3.778  15.455  0.00  0.00    +0.000 C 
BRANCH  15  16
ATOM     16  C   UNL     1       7.203   4.908  14.620  0.00  0.00    +0.000 C 
BRANCH  16  17
ATOM     17  C   UNL     1       6.448   5.032  13.302  0.00  0.00    +0.000 C 
BRANCH  17  18
ATOM     18  C   UNL     1       7.145   4.235  12.207  0.00  0.00    +0.000 C 
BRANCH  18  19
ATOM     19  C   UNL     1       6.356   2.976  11.869  0.00  0.00    +0.000 C 
BRANCH  19  20
ATOM     20  C   UNL     1       4.890   3.136  12.257  0.00  0.00    +0.000 C 
BRANCH  20  21
ATOM     21  C   UNL     1       3.990   2.950  11.038  0.00  0.00    +0.000 C 
BRANCH  21  23
ATOM     22  C   UNL     1       2.767   4.110   9.182  0.00  0.00    +0.000 C 
ATOM     23  C   UNL     1       3.526   4.294  10.486  0.00  0.00    +0.000 C 
ENDBRANCH  21  23
ENDBRANCH  20  21
ENDBRANCH  19  20
ENDBRANCH  18  19
ENDBRANCH  17  18
ENDBRANCH  16  17
ENDBRANCH  15  16
ENDBRANCH   1  15
TORSDOF 8
ENDMDL
MODEL 3
REMARK VINA RESULT:      -7.5      1.753      3.470
REMARK  Name = 
REMARK  9 active torsions:
REMARK  status: ('A' for Active; 'I' for Inactive)
REMARK    1  A    between atoms: C_1  and  C_2
REMARK    2  A    between atoms: C_2  and  C_3
REMARK    3  A    between atoms: C_3  and  C_4
REMARK    4  A    between atoms: C_4  and  C_5
REMARK    5  A    between atoms: C_5  and  C_6
REMARK    6  A    between atoms: C_6  and  C_7
REMARK    7  A    between atoms: C_7  and  C_8
REMARK    8  A    between atoms: C_8  and  C_9
REMARK    9  A    between atoms: C_9  and  N_10
REMARK                            x       y       z     vdW  Elec       q    Type
REMARK                         _______ _______ _______ _____ _____    ______ ____
ROOT
ATOM      1  N   UNL     1       5.637   5.069  16.654  0.00  0.00    +0.000 N 
ATOM      2  C   UNL     1       5.469   6.378  16.345  0.00  0.00    +0.000 A 
ATOM      3  C   UNL     1       4.474   7.130  16.930  0.00  0.00    +0.000 A 
ATOM      4  C   UNL     1       3.616   6.522  17.831  0.00  0.00    +0.000 A 
ATOM      5  C   UNL     1       3.752   5.155  18.163  0.00  0.00    +0.000 A 
ATOM      6  C   UNL     1       2.867   4.473  19.082  0.00  0.00    +0.000 A 
ATOM      7  C   UNL     1       1.778   5.080  19.758  0.00  0.00    +0.000 A 
ATOM      8  C   UNL     1       0.950   4.360  20.626  0.00  0.00    +0.000 A 
ATOM      9  C   UNL     1       1.173   3.009  20.842  0.00  0.00    +0.000 A 
ATOM     10  C   UNL     1       2.228   2.377  20.201  0.00  0.00    +0.000 A 
ATOM     11  C   UNL     1       3.072   3.094  19.342  0.00  0.00    +0.000 A 
ATOM     12  C   UNL     1       4.135   2.421  18.748  0.00  0.00    +0.000 A 
ATOM     13  C   UNL     1       4.999   3.083  17.891  0.00  0.00    +0.000 A 
ATOM     14  C   UNL     1       4.818   4.434  17.552  0.00  0.00    +0.000 A 
ENDROOT
BRANCH   1  15
ATOM     15  C   UNL     1       6.713   4.334  15.928  0.00  0.00    +0.000 C 
BRANCH  15  16
ATOM     16  C   UNL     1       6.130   3.692  14.682  0.00  0.00    +0.000 C 
BRANCH  16  17
ATOM     17  C   UNL     1       6.777   4.273  13.432  0.00  0.00    +0.000 C 
BRANCH  17  18
ATOM     18  C   UNL     1       6.292   3.542  12.186  0.00  0.00    +0.000 C 
BRANCH  18  19
ATOM     19  C   UNL     1       4.793   3.737  11.993  0.00  0.00    +0.000 C 
BRANCH  19  20
ATOM     20  C   UNL     1       4.171   2.515  11.325  0.00  0.00    +0.000 C 
BRANCH  20  21
ATOM     21  C   UNL     1       3.151   2.940  10.273  0.00  0.00    +0.000 C 
BRANCH  21  23
ATOM     22  C   UNL     1       2.205   4.898   9.024  0.00  0.00    +0.000 C 
ATOM     23  C   UNL     1       3.384   4.382   9.832  0.00  0.00    +0.000 C 
ENDBRANCH  21  23
ENDBRANCH  20  21
ENDBRANCH  19  20
ENDBRANCH  18  19
ENDBRANCH  17  18
ENDBRANCH  16  17
ENDBRANCH  15  16
ENDBRANCH   1  15
TORSDOF 8
ENDMDL
MODEL 4
REMARK VINA RESULT:      -7.5      3.721      6.252
REMARK  Name = 
REMARK  9 active torsions:
REMARK  status: ('A' for Active; 'I' for Inactive)
REMARK    1  A    between atoms: C_1  and  C_2
REMARK    2  A    between atoms: C_2  and  C_3
REMARK    3  A    between atoms: C_3  and  C_4
REMARK    4  A    between atoms: C_4  and  C_5
REMARK    5  A    between atoms: C_5  and  C_6
REMARK    6  A    between atoms: C_6  and  C_7
REMARK    7  A    between atoms: C_7  and  C_8
REMARK    8  A    between atoms: C_8  and  C_9
REMARK    9  A    between atoms: C_9  and  N_10
REMARK                            x       y       z     vdW  Elec       q    Type
REMARK                         _______ _______ _______ _____ _____    ______ ____
ROOT
ATOM      1  N   UNL     1       2.063   7.953  19.228  0.00  0.00    +0.000 N 
ATOM      2  C   UNL     1       2.355   8.518  18.031  0.00  0.00    +0.000 A 
ATOM      3  C   UNL     1       1.948   9.798  17.723  0.00  0.00    +0.000 A 
ATOM      4  C   UNL     1       1.204  10.505  18.652  0.00  0.00    +0.000 A 
ATOM      5  C   UNL     1       0.866   9.942  19.903  0.00  0.00    +0.000 A 
ATOM      6  C   UNL     1       0.074  10.634  20.894  0.00  0.00    +0.000 A 
ATOM      7  C   UNL     1      -0.449  11.945  20.742  0.00  0.00    +0.000 A 
ATOM      8  C   UNL     1      -1.221  12.555  21.736  0.00  0.00    +0.000 A 
ATOM      9  C   UNL     1      -1.508  11.878  22.911  0.00  0.00    +0.000 A 
ATOM     10  C   UNL     1      -1.016  10.595  23.101  0.00  0.00    +0.000 A 
ATOM     11  C   UNL     1      -0.228   9.982  22.117  0.00  0.00    +0.000 A 
ATOM     12  C   UNL     1       0.267   8.706  22.369  0.00  0.00    +0.000 A 
ATOM     13  C   UNL     1       1.051   8.056  21.430  0.00  0.00    +0.000 A 
ATOM     14  C   UNL     1       1.340   8.627  20.180  0.00  0.00    +0.000 A 
ENDROOT
BRANCH   1  15
ATOM     15  C   UNL     1       2.509   6.546  19.442  0.00  0.00    +0.000 C 
BRANCH  15  16
ATOM     16  C   UNL     1       3.353   6.102  18.261  0.00  0.00    +0.000 C 
BRANCH  16  17
ATOM     17  C   UNL     1       3.528   4.589  18.270  0.00  0.00    +0.000 C 
BRANCH  17  18
ATOM     18  C   UNL     1       2.420   3.916  17.469  0.00  0.00    +0.000 C 
BRANCH  18  19
ATOM     19  C   UNL     1       2.461   2.403  17.655  0.00  0.00    +0.000 C 
BRANCH  19  20
ATOM     20  C   UNL     1       2.068   2.023  19.079  0.00  0.00    +0.000 C 
BRANCH  20  21
ATOM     21  C   UNL     1       0.855   2.829  19.533  0.00  0.00    +0.000 C 
BRANCH  21  23
ATOM     22  C   UNL     1       2.417   2.980  21.488  0.00  0.00    +0.000 C 
ATOM     23  C   UNL     1       1.059   3.386  20.938  0.00  0.00    +0.000 C 
ENDBRANCH  21  23
ENDBRANCH  20  21
ENDBRANCH  19  20
ENDBRANCH  18  19
ENDBRANCH  17  18
ENDBRANCH  16  17
ENDBRANCH  15  16
ENDBRANCH   1  15
TORSDOF 8
ENDMDL
MODEL 5
REMARK VINA RESULT:      -7.5      4.680      7.356
REMARK  Name = 
REMARK  9 active torsions:
REMARK  status: ('A' for Active; 'I' for Inactive)
REMARK    1  A    between atoms: C_1  and  C_2
REMARK    2  A    between atoms: C_2  and  C_3
REMARK    3  A    between atoms: C_3  and  C_4
REMARK    4  A    between atoms: C_4  and  C_5
REMARK    5  A    between atoms: C_5  and  C_6
REMARK    6  A    between atoms: C_6  and  C_7
REMARK    7  A    between atoms: C_7  and  C_8
REMARK    8  A    between atoms: C_8  and  C_9
REMARK    9  A    between atoms: C_9  and  N_10
REMARK                            x       y       z     vdW  Elec       q    Type
REMARK                         _______ _______ _______ _____ _____    ______ ____
ROOT
ATOM      1  N   UNL     1       6.554   5.312  17.520  0.00  0.00    +0.000 N 
ATOM      2  C   UNL     1       6.906   4.785  16.322  0.00  0.00    +0.000 A 
ATOM      3  C   UNL     1       6.092   3.888  15.666  0.00  0.00    +0.000 A 
ATOM      4  C   UNL     1       4.903   3.503  16.262  0.00  0.00    +0.000 A 
ATOM      5  C   UNL     1       4.512   4.018  17.518  0.00  0.00    +0.000 A 
ATOM      6  C   UNL     1       3.291   3.629  18.188  0.00  0.00    +0.000 A 
ATOM      7  C   UNL     1       2.346   2.704  17.675  0.00  0.00    +0.000 A 
ATOM      8  C   UNL     1       1.188   2.358  18.380  0.00  0.00    +0.000 A 
ATOM      9  C   UNL     1       0.937   2.916  19.625  0.00  0.00    +0.000 A 
ATOM     10  C   UNL     1       1.835   3.826  20.162  0.00  0.00    +0.000 A 
ATOM     11  C   UNL     1       2.990   4.189  19.456  0.00  0.00    +0.000 A 
ATOM     12  C   UNL     1       3.843   5.130  20.025  0.00  0.00    +0.000 A 
ATOM     13  C   UNL     1       4.997   5.524  19.368  0.00  0.00    +0.000 A 
ATOM     14  C   UNL     1       5.378   4.966  18.136  0.00  0.00    +0.000 A 
ENDROOT
BRANCH   1  15
ATOM     15  C   UNL     1       7.529   6.236  18.168  0.00  0.00    +0.000 C 
BRANCH  15  16
ATOM     16  C   UNL     1       7.509   7.572  17.447  0.00  0.00    +0.000 C 
BRANCH  16  17
ATOM     17  C   UNL     1       8.421   8.570  18.149  0.00  0.00    +0.000 C 
BRANCH  17  18
ATOM     18  C   UNL     1       8.015   9.999  17.813  0.00  0.00    +0.000 C 
BRANCH  18  19
ATOM     19  C   UNL     1       9.098  10.984  18.237  0.00  0.00    +0.000 C 
BRANCH  19  20
ATOM     20  C   UNL     1       9.454  10.794  19.709  0.00  0.00    +0.000 C 
BRANCH  20  21
ATOM     21  C   UNL     1       9.965  12.101  20.309  0.00  0.00    +0.000 C 
BRANCH  21  23
ATOM     22  C   UNL     1      12.213  12.037  19.199  0.00  0.00    +0.000 C 
ATOM     23  C   UNL     1      11.474  12.051  20.527  0.00  0.00    +0.000 C 
ENDBRANCH  21  23
ENDBRANCH  20  21
ENDBRANCH  19  20
ENDBRANCH  18  19
ENDBRANCH  17  18
ENDBRANCH  16  17
ENDBRANCH  15  16
ENDBRANCH   1  15
TORSDOF 8
ENDMDL
MODEL 6
REMARK VINA RESULT:      -7.3      3.558      6.188
REMARK  Name = 
REMARK  9 active torsions:
REMARK  status: ('A' for Active; 'I' for Inactive)
REMARK    1  A    between atoms: C_1  and  C_2
REMARK    2  A    between atoms: C_2  and  C_3
REMARK    3  A    between atoms: C_3  and  C_4
REMARK    4  A    between atoms: C_4  and  C_5
REMARK    5  A    between atoms: C_5  and  C_6
REMARK    6  A    between atoms: C_6  and  C_7
REMARK    7  A    between atoms: C_7  and  C_8
REMARK    8  A    between atoms: C_8  and  C_9
REMARK    9  A    between atoms: C_9  and  N_10
REMARK                            x       y       z     vdW  Elec       q    Type
REMARK                         _______ _______ _______ _____ _____    ______ ____
ROOT
ATOM      1  N   UNL     1       1.965   7.838  19.682  0.00  0.00    +0.000 N 
ATOM      2  C   UNL     1       2.103   8.068  18.353  0.00  0.00    +0.000 A 
ATOM      3  C   UNL     1       1.509   9.152  17.747  0.00  0.00    +0.000 A 
ATOM      4  C   UNL     1       0.734  10.006  18.514  0.00  0.00    +0.000 A 
ATOM      5  C   UNL     1       0.553   9.788  19.898  0.00  0.00    +0.000 A 
ATOM      6  C   UNL     1      -0.263  10.641  20.733  0.00  0.00    +0.000 A 
ATOM      7  C   UNL     1      -0.967  11.786  20.278  0.00  0.00    +0.000 A 
ATOM      8  C   UNL     1      -1.753  12.563  21.136  0.00  0.00    +0.000 A 
ATOM      9  C   UNL     1      -1.872  12.220  22.475  0.00  0.00    +0.000 A 
ATOM     10  C   UNL     1      -1.199  11.109  22.961  0.00  0.00    +0.000 A 
ATOM     11  C   UNL     1      -0.398  10.334  22.111  0.00  0.00    +0.000 A 
ATOM     12  C   UNL     1       0.281   9.247  22.654  0.00  0.00    +0.000 A 
ATOM     13  C   UNL     1       1.086   8.449  21.859  0.00  0.00    +0.000 A 
ATOM     14  C   UNL     1       1.218   8.669  20.477  0.00  0.00    +0.000 A 
ENDROOT
BRANCH   1  15
ATOM     15  C   UNL     1       2.610   6.610  20.229  0.00  0.00    +0.000 C 
BRANCH  15  16
ATOM     16  C   UNL     1       1.585   5.492  20.294  0.00  0.00    +0.000 C 
BRANCH  16  17
ATOM     17  C   UNL     1       2.090   4.357  21.175  0.00  0.00    +0.000 C 
BRANCH  17  18
ATOM     18  C   UNL     1       1.248   3.103  20.973  0.00  0.00    +0.000 C 
BRANCH  18  19
ATOM     19  C   UNL     1       1.029   2.832  19.490  0.00  0.00    +0.000 C 
BRANCH  19  20
ATOM     20  C   UNL     1       2.242   2.134  18.883  0.00  0.00    +0.000 C 
BRANCH  20  21
ATOM     21  C   UNL     1       2.483   2.622  17.457  0.00  0.00    +0.000 C 
BRANCH  21  23
ATOM     22  C   UNL     1       4.524   3.862  18.221  0.00  0.00    +0.000 C 
ATOM     23  C   UNL     1       3.217   3.958  17.451  0.00  0.00    +0.000 C 
ENDBRANCH  21  23
ENDBRANCH  20  21
ENDBRANCH  19  20
ENDBRANCH  18  19
ENDBRANCH  17  18
ENDBRANCH  16  17
ENDBRANCH  15  16
ENDBRANCH   1  15
TORSDOF 8
ENDMDL
MODEL 7
REMARK VINA RESULT:      -7.3      4.692      7.140
REMARK  Name = 
REMARK  9 active torsions:
REMARK  status: ('A' for Active; 'I' for Inactive)
REMARK    1  A    between atoms: C_1  and  C_2
REMARK    2  A    between atoms: C_2  and  C_3
REMARK    3  A    between atoms: C_3  and  C_4
REMARK    4  A    between atoms: C_4  and  C_5
REMARK    5  A    between atoms: C_5  and  C_6
REMARK    6  A    between atoms: C_6  and  C_7
REMARK    7  A    between atoms: C_7  and  C_8
REMARK    8  A    between atoms: C_8  and  C_9
REMARK    9  A    between atoms: C_9  and  N_10
REMARK                            x       y       z     vdW  Elec       q    Type
REMARK                         _______ _______ _______ _____ _____    ______ ____
ROOT
ATOM      1  N   UNL     1       6.541   5.296  17.468  0.00  0.00    +0.000 N 
ATOM      2  C   UNL     1       6.836   4.823  16.233  0.00  0.00    +0.000 A 
ATOM      3  C   UNL     1       5.966   3.997  15.556  0.00  0.00    +0.000 A 
ATOM      4  C   UNL     1       4.781   3.626  16.167  0.00  0.00    +0.000 A 
ATOM      5  C   UNL     1       4.449   4.086  17.461  0.00  0.00    +0.000 A 
ATOM      6  C   UNL     1       3.233   3.708  18.147  0.00  0.00    +0.000 A 
ATOM      7  C   UNL     1       2.236   2.850  17.615  0.00  0.00    +0.000 A 
ATOM      8  C   UNL     1       1.086   2.512  18.337  0.00  0.00    +0.000 A 
ATOM      9  C   UNL     1       0.895   3.009  19.617  0.00  0.00    +0.000 A 
ATOM     10  C   UNL     1       1.845   3.853  20.174  0.00  0.00    +0.000 A 
ATOM     11  C   UNL     1       2.992   4.209  19.452  0.00  0.00    +0.000 A 
ATOM     12  C   UNL     1       3.899   5.082  20.044  0.00  0.00    +0.000 A 
ATOM     13  C   UNL     1       5.049   5.467  19.374  0.00  0.00    +0.000 A 
ATOM     14  C   UNL     1       5.370   4.964  18.102  0.00  0.00    +0.000 A 
ENDROOT
BRANCH   1  15
ATOM     15  C   UNL     1       7.571   6.145  18.134  0.00  0.00    +0.000 C 
BRANCH  15  16
ATOM     16  C   UNL     1       7.539   7.538  17.533  0.00  0.00    +0.000 C 
BRANCH  16  17
ATOM     17  C   UNL     1       8.412   8.488  18.343  0.00  0.00    +0.000 C 
BRANCH  17  18
ATOM     18  C   UNL     1       8.337   9.901  17.778  0.00  0.00    +0.000 C 
BRANCH  18  19
ATOM     19  C   UNL     1       9.214  10.853  18.583  0.00  0.00    +0.000 C 
BRANCH  19  20
ATOM     20  C   UNL     1      10.458  11.242  17.789  0.00  0.00    +0.000 C 
BRANCH  20  21
ATOM     21  C   UNL     1      10.742  12.734  17.938  0.00  0.00    +0.000 C 
BRANCH  21  23
ATOM     22  C   UNL     1       9.744  15.031  18.037  0.00  0.00    +0.000 C 
ATOM     23  C   UNL     1       9.451  13.544  17.923  0.00  0.00    +0.000 C 
ENDBRANCH  21  23
ENDBRANCH  20  21
ENDBRANCH  19  20
ENDBRANCH  18  19
ENDBRANCH  17  18
ENDBRANCH  16  17
ENDBRANCH  15  16
ENDBRANCH   1  15
TORSDOF 8
ENDMDL
MODEL 8
REMARK VINA RESULT:      -7.3      0.981      1.223
REMARK  Name = 
REMARK  9 active torsions:
REMARK  status: ('A' for Active; 'I' for Inactive)
REMARK    1  A    between atoms: C_1  and  C_2
REMARK    2  A    between atoms: C_2  and  C_3
REMARK    3  A    between atoms: C_3  and  C_4
REMARK    4  A    between atoms: C_4  and  C_5
REMARK    5  A    between atoms: C_5  and  C_6
REMARK    6  A    between atoms: C_6  and  C_7
REMARK    7  A    between atoms: C_7  and  C_8
REMARK    8  A    between atoms: C_8  and  C_9
REMARK    9  A    between atoms: C_9  and  N_10
REMARK                            x       y       z     vdW  Elec       q    Type
REMARK                         _______ _______ _______ _____ _____    ______ ____
ROOT
ATOM      1  N   UNL     1       4.150   5.702  17.551  0.00  0.00    +0.000 N 
ATOM      2  C   UNL     1       4.361   4.560  18.250  0.00  0.00    +0.000 A 
ATOM      3  C   UNL     1       3.771   4.351  19.477  0.00  0.00    +0.000 A 
ATOM      4  C   UNL     1       2.967   5.344  20.011  0.00  0.00    +0.000 A 
ATOM      5  C   UNL     1       2.739   6.554  19.318  0.00  0.00    +0.000 A 
ATOM      6  C   UNL     1       1.925   7.626  19.846  0.00  0.00    +0.000 A 
ATOM      7  C   UNL     1       1.260   7.596  21.099  0.00  0.00    +0.000 A 
ATOM      8  C   UNL     1       0.497   8.675  21.559  0.00  0.00    +0.000 A 
ATOM      9  C   UNL     1       0.379   9.824  20.792  0.00  0.00    +0.000 A 
ATOM     10  C   UNL     1       1.012   9.894  19.559  0.00  0.00    +0.000 A 
ATOM     11  C   UNL     1       1.765   8.812  19.084  0.00  0.00    +0.000 A 
ATOM     12  C   UNL     1       2.356   8.920  17.828  0.00  0.00    +0.000 A 
ATOM     13  C   UNL     1       3.110   7.880  17.311  0.00  0.00    +0.000 A 
ATOM     14  C   UNL     1       3.349   6.703  18.040  0.00  0.00    +0.000 A 
ENDROOT
BRANCH   1  15
ATOM     15  C   UNL     1       4.875   5.848  16.255  0.00  0.00    +0.000 C 
BRANCH  15  16
ATOM     16  C   UNL     1       5.238   4.473  15.725  0.00  0.00    +0.000 C 
BRANCH  16  17
ATOM     17  C   UNL     1       6.625   4.495  15.095  0.00  0.00    +0.000 C 
BRANCH  17  18
ATOM     18  C   UNL     1       6.544   4.172  13.608  0.00  0.00    +0.000 C 
BRANCH  18  19
ATOM     19  C   UNL     1       5.213   3.512  13.268  0.00  0.00    +0.000 C 
BRANCH  19  20
ATOM     20  C   UNL     1       5.002   3.467  11.758  0.00  0.00    +0.000 C 
BRANCH  20  21
ATOM     21  C   UNL     1       3.539   3.183  11.430  0.00  0.00    +0.000 C 
BRANCH  21  23
ATOM     22  C   UNL     1       2.838   4.400   9.353  0.00  0.00    +0.000 C 
ATOM     23  C   UNL     1       3.324   3.078   9.924  0.00  0.00    +0.000 C 
ENDBRANCH  21  23
ENDBRANCH  20  21
ENDBRANCH  19  20
ENDBRANCH  18  19
ENDBRANCH  17  18
ENDBRANCH  16  17
ENDBRANCH  15  16
ENDBRANCH   1  15
TORSDOF 8
ENDMDL
MODEL 9
REMARK VINA RESULT:      -7.2      4.709      7.087
REMARK  Name = 
REMARK  9 active torsions:
REMARK  status: ('A' for Active; 'I' for Inactive)
REMARK    1  A    between atoms: C_1  and  C_2
REMARK    2  A    between atoms: C_2  and  C_3
REMARK    3  A    between atoms: C_3  and  C_4
REMARK    4  A    between atoms: C_4  and  C_5
REMARK    5  A    between atoms: C_5  and  C_6
REMARK    6  A    between atoms: C_6  and  C_7
REMARK    7  A    between atoms: C_7  and  C_8
REMARK    8  A    between atoms: C_8  and  C_9
REMARK    9  A    between atoms: C_9  and  N_10
REMARK                            x       y       z     vdW  Elec       q    Type
REMARK                         _______ _______ _______ _____ _____    ______ ____
ROOT
ATOM      1  N   UNL     1       5.442   6.093  16.852  0.00  0.00    +0.000 N 
ATOM      2  C   UNL     1       6.097   5.298  15.971  0.00  0.00    +0.000 A 
ATOM      3  C   UNL     1       5.693   4.002  15.738  0.00  0.00    +0.000 A 
ATOM      4  C   UNL     1       4.611   3.500  16.442  0.00  0.00    +0.000 A 
ATOM      5  C   UNL     1       3.916   4.295  17.381  0.00  0.00    +0.000 A 
ATOM      6  C   UNL     1       2.795   3.808  18.153  0.00  0.00    +0.000 A 
ATOM      7  C   UNL     1       2.258   2.498  18.063  0.00  0.00    +0.000 A 
ATOM      8  C   UNL     1       1.178   2.083  18.850  0.00  0.00    +0.000 A 
ATOM      9  C   UNL     1       0.602   2.956  19.760  0.00  0.00    +0.000 A 
ATOM     10  C   UNL     1       1.096   4.247  19.879  0.00  0.00    +0.000 A 
ATOM     11  C   UNL     1       2.168   4.675  19.084  0.00  0.00    +0.000 A 
ATOM     12  C   UNL     1       2.606   5.989  19.219  0.00  0.00    +0.000 A 
ATOM     13  C   UNL     1       3.661   6.463  18.457  0.00  0.00    +0.000 A 
ATOM     14  C   UNL     1       4.357   5.638  17.558  0.00  0.00    +0.000 A 
ENDROOT
BRANCH   1  15
ATOM     15  C   UNL     1       5.989   7.465  17.066  0.00  0.00    +0.000 C 
BRANCH  15  16
ATOM     16  C   UNL     1       7.362   7.362  17.705  0.00  0.00    +0.000 C 
BRANCH  16  17
ATOM     17  C   UNL     1       8.186   8.607  17.397  0.00  0.00    +0.000 C 
BRANCH  17  18
ATOM     18  C   UNL     1       8.633   9.287  18.685  0.00  0.00    +0.000 C 
BRANCH  18  19
ATOM     19  C   UNL     1       9.164  10.687  18.402  0.00  0.00    +0.000 C 
BRANCH  19  20
ATOM     20  C   UNL     1      10.209  11.088  19.439  0.00  0.00    +0.000 C 
BRANCH  20  21
ATOM     21  C   UNL     1      10.735  12.492  19.153  0.00  0.00    +0.000 C 
BRANCH  21  23
ATOM     22  C   UNL     1      10.501  14.525  17.705  0.00  0.00    +0.000 C 
ATOM     23  C   UNL     1      10.102  13.070  17.892  0.00  0.00    +0.000 C 
ENDBRANCH  21  23
ENDBRANCH  20  21
ENDBRANCH  19  20
ENDBRANCH  18  19
ENDBRANCH  17  18
ENDBRANCH  16  17
ENDBRANCH  15  16
ENDBRANCH   1  15
TORSDOF 8
ENDMDL
