MODEL 1
REMARK VINA RESULT:      -8.8      0.000      0.000
REMARK  Name = 
REMARK  6 active torsions:
REMARK  status: ('A' for Active; 'I' for Inactive)
REMARK    1  A    between atoms: C_9  and  C_10
REMARK    2  A    between atoms: C_16  and  O_17
REMARK    3  A    between atoms: O_17  and  C_18
REMARK    4  A    between atoms: C_18  and  C_20
REMARK    5  A    between atoms: C_28  and  O_29
REMARK    6  A    between atoms: C_31  and  O_32
REMARK                            x       y       z     vdW  Elec       q    Type
REMARK                         _______ _______ _______ _____ _____    ______ ____
ROOT
ATOM      1  C   UNL     1       7.501   7.994  17.305  0.00  0.00    +0.000 C 
ATOM      2  C   UNL     1       6.746   6.883  17.273  0.00  0.00    +0.000 C 
ATOM      3  C   UNL     1       7.199   5.429  17.514  0.00  0.00    +0.000 C 
ATOM      4  C   UNL     1       6.796   5.115  18.948  0.00  0.00    +0.000 C 
ATOM      5  C   UNL     1       5.296   5.514  19.065  0.00  0.00    +0.000 C 
ATOM      6  C   UNL     1       4.450   4.454  19.625  0.00  0.00    +0.000 C 
ATOM      7  N   UNL     1       3.147   5.156  19.514  0.00  0.00    +0.000 NA
ATOM      8  C   UNL     1       2.375   4.916  20.694  0.00  0.00    +0.000 C 
ATOM      9  C   UNL     1       2.125   3.457  20.389  0.00  0.00    +0.000 C 
ATOM     10  C   UNL     1       0.613   3.282  20.593  0.00  0.00    +0.000 C 
ATOM     11  C   UNL     1       2.976   2.528  21.271  0.00  0.00    +0.000 C 
ATOM     12  C   UNL     1       3.733   1.463  20.451  0.00  0.00    +0.000 C 
ATOM     13  C   UNL     1       4.536   1.914  19.138  0.00  0.00    +0.000 C 
ATOM     14  C   UNL     1       4.238   3.353  18.637  0.00  0.00    +0.000 C 
ATOM     15  C   UNL     1       4.893   4.208  17.178  0.00  0.00    +0.000 C 
ATOM     16  C   UNL     1       6.386   4.414  16.625  0.00  0.00    +0.000 C 
ATOM     17  C   UNL     1       4.603   5.692  17.662  0.00  0.00    +0.000 C 
ATOM     18  C   UNL     1       3.054   5.898  17.624  0.00  0.00    +0.000 C 
ATOM     19  C   UNL     1       2.243   4.740  18.304  0.00  0.00    +0.000 C 
ATOM     20  C   UNL     1       2.625   3.385  18.872  0.00  0.00    +0.000 C 
ATOM     21  C   UNL     1       5.248   6.996  17.189  0.00  0.00    +0.000 C 
ENDROOT
BRANCH  19  22
ATOM     22  O   UNL     1       2.192   4.118  16.953  0.00  0.00    +0.000 OA
ATOM     23  H   UNL     1       2.846   3.429  16.733  0.00  0.00    +0.000 HD
ENDBRANCH  19  22
BRANCH  21  24
ATOM     24  O   UNL     1       4.834   7.445  15.921  0.00  0.00    +0.000 OA
ATOM     25  H   UNL     1       4.452   8.323  16.061  0.00  0.00    +0.000 HD
ENDBRANCH  21  24
BRANCH  16  26
ATOM     26  O   UNL     1       6.323   5.166  15.331  0.00  0.00    +0.000 OA
BRANCH  26  27
ATOM     27  C   UNL     1       7.101   4.933  14.253  0.00  0.00    +0.000 C 
ATOM     28  O   UNL     1       8.205   5.402  14.102  0.00  0.00    +0.000 OA
BRANCH  27  29
ATOM     29  C   UNL     1       6.410   4.057  13.252  0.00  0.00    +0.000 A 
ATOM     30  C   UNL     1       5.029   3.984  13.024  0.00  0.00    +0.000 A 
ATOM     31  C   UNL     1       4.522   3.124  12.037  0.00  0.00    +0.000 A 
ATOM     32  C   UNL     1       5.411   2.366  11.292  0.00  0.00    +0.000 A 
ATOM     33  N   UNL     1       6.747   2.415  11.468  0.00  0.00    +0.000 NA
ATOM     34  C   UNL     1       7.207   3.256  12.437  0.00  0.00    +0.000 A 
ENDBRANCH  27  29
ENDBRANCH  26  27
ENDBRANCH  16  26
TORSDOF 5
ENDMDL
MODEL 2
REMARK VINA RESULT:      -7.5      1.244      1.603
REMARK  Name = 
REMARK  6 active torsions:
REMARK  status: ('A' for Active; 'I' for Inactive)
REMARK    1  A    between atoms: C_9  and  C_10
REMARK    2  A    between atoms: C_16  and  O_17
REMARK    3  A    between atoms: O_17  and  C_18
REMARK    4  A    between atoms: C_18  and  C_20
REMARK    5  A    between atoms: C_28  and  O_29
REMARK    6  A    between atoms: C_31  and  O_32
REMARK                            x       y       z     vdW  Elec       q    Type
REMARK                         _______ _______ _______ _____ _____    ______ ____
ROOT
ATOM      1  C   UNL     1       7.621   7.884  17.362  0.00  0.00    +0.000 C 
ATOM      2  C   UNL     1       6.913   6.747  17.475  0.00  0.00    +0.000 C 
ATOM      3  C   UNL     1       7.338   5.438  18.171  0.00  0.00    +0.000 C 
ATOM      4  C   UNL     1       6.653   5.465  19.529  0.00  0.00    +0.000 C 
ATOM      5  C   UNL     1       5.153   5.768  19.243  0.00  0.00    +0.000 C 
ATOM      6  C   UNL     1       4.233   4.822  19.885  0.00  0.00    +0.000 C 
ATOM      7  N   UNL     1       2.966   5.374  19.342  0.00  0.00    +0.000 NA
ATOM      8  C   UNL     1       1.971   5.381  20.371  0.00  0.00    +0.000 C 
ATOM      9  C   UNL     1       1.822   3.878  20.414  0.00  0.00    +0.000 C 
ATOM     10  C   UNL     1       0.304   3.647  20.359  0.00  0.00    +0.000 C 
ATOM     11  C   UNL     1       2.491   3.267  21.657  0.00  0.00    +0.000 C 
ATOM     12  C   UNL     1       3.425   2.090  21.308  0.00  0.00    +0.000 C 
ATOM     13  C   UNL     1       4.473   2.255  20.105  0.00  0.00    +0.000 C 
ATOM     14  C   UNL     1       4.254   3.495  19.197  0.00  0.00    +0.000 C 
ATOM     15  C   UNL     1       5.179   4.003  17.723  0.00  0.00    +0.000 C 
ATOM     16  C   UNL     1       6.750   4.174  17.437  0.00  0.00    +0.000 C 
ATOM     17  C   UNL     1       4.762   5.535  17.735  0.00  0.00    +0.000 C 
ATOM     18  C   UNL     1       3.251   5.609  17.344  0.00  0.00    +0.000 C 
ATOM     19  C   UNL     1       2.342   4.601  18.131  0.00  0.00    +0.000 C 
ATOM     20  C   UNL     1       2.627   3.465  19.096  0.00  0.00    +0.000 C 
ATOM     21  C   UNL     1       5.464   6.722  17.074  0.00  0.00    +0.000 C 
ENDROOT
BRANCH  19  22
ATOM     22  O   UNL     1       2.587   3.657  17.007  0.00  0.00    +0.000 OA
ATOM     23  H   UNL     1       3.092   2.843  17.185  0.00  0.00    +0.000 HD
ENDBRANCH  19  22
BRANCH  21  24
ATOM     24  O   UNL     1       5.313   6.807  15.677  0.00  0.00    +0.000 OA
ATOM     25  H   UNL     1       5.966   7.455  15.377  0.00  0.00    +0.000 HD
ENDBRANCH  21  24
BRANCH  16  26
ATOM     26  O   UNL     1       6.941   4.571  16.005  0.00  0.00    +0.000 OA
BRANCH  26  27
ATOM     27  C   UNL     1       6.454   3.903  14.938  0.00  0.00    +0.000 C 
ATOM     28  O   UNL     1       5.726   2.942  15.017  0.00  0.00    +0.000 OA
BRANCH  27  29
ATOM     29  C   UNL     1       6.962   4.475  13.649  0.00  0.00    +0.000 A 
ATOM     30  C   UNL     1       6.552   4.108  12.359  0.00  0.00    +0.000 A 
ATOM     31  C   UNL     1       7.107   4.745  11.236  0.00  0.00    +0.000 A 
ATOM     32  C   UNL     1       8.049   5.742  11.433  0.00  0.00    +0.000 A 
ATOM     33  N   UNL     1       8.462   6.134  12.654  0.00  0.00    +0.000 NA
ATOM     34  C   UNL     1       7.908   5.494  13.723  0.00  0.00    +0.000 A 
ENDBRANCH  27  29
ENDBRANCH  26  27
ENDBRANCH  16  26
TORSDOF 5
ENDMDL
MODEL 3
REMARK VINA RESULT:      -7.3      9.234     11.803
REMARK  Name = 
REMARK  6 active torsions:
REMARK  status: ('A' for Active; 'I' for Inactive)
REMARK    1  A    between atoms: C_9  and  C_10
REMARK    2  A    between atoms: C_16  and  O_17
REMARK    3  A    between atoms: O_17  and  C_18
REMARK    4  A    between atoms: C_18  and  C_20
REMARK    5  A    between atoms: C_28  and  O_29
REMARK    6  A    between atoms: C_31  and  O_32
REMARK                            x       y       z     vdW  Elec       q    Type
REMARK                         _______ _______ _______ _____ _____    ______ ____
ROOT
ATOM      1  C   UNL     1      -1.859  11.742  23.421  0.00  0.00    +0.000 C 
ATOM      2  C   UNL     1      -1.487  12.299  22.256  0.00  0.00    +0.000 C 
ATOM      3  C   UNL     1      -1.920  13.664  21.684  0.00  0.00    +0.000 C 
ATOM      4  C   UNL     1      -0.765  14.609  21.984  0.00  0.00    +0.000 C 
ATOM      5  C   UNL     1       0.516  13.894  21.464  0.00  0.00    +0.000 C 
ATOM      6  C   UNL     1       1.337  14.733  20.583  0.00  0.00    +0.000 C 
ATOM      7  N   UNL     1       2.375  13.724  20.254  0.00  0.00    +0.000 NA
ATOM      8  C   UNL     1       3.664  14.346  20.266  0.00  0.00    +0.000 C 
ATOM      9  C   UNL     1       3.423  15.164  19.018  0.00  0.00    +0.000 C 
ATOM     10  C   UNL     1       4.673  14.921  18.160  0.00  0.00    +0.000 C 
ATOM     11  C   UNL     1       3.175  16.647  19.339  0.00  0.00    +0.000 C 
ATOM     12  C   UNL     1       1.910  17.199  18.650  0.00  0.00    +0.000 C 
ATOM     13  C   UNL     1       0.549  16.354  18.725  0.00  0.00    +0.000 C 
ATOM     14  C   UNL     1       0.698  14.897  19.242  0.00  0.00    +0.000 C 
ATOM     15  C   UNL     1      -0.575  13.618  19.424  0.00  0.00    +0.000 C 
ATOM     16  C   UNL     1      -2.025  13.626  20.113  0.00  0.00    +0.000 C 
ATOM     17  C   UNL     1       0.193  12.711  20.476  0.00  0.00    +0.000 C 
ATOM     18  C   UNL     1       1.382  12.032  19.723  0.00  0.00    +0.000 C 
ATOM     19  C   UNL     1       2.236  13.025  18.859  0.00  0.00    +0.000 C 
ATOM     20  C   UNL     1       2.079  14.486  18.478  0.00  0.00    +0.000 C 
ATOM     21  C   UNL     1      -0.381  11.679  21.448  0.00  0.00    +0.000 C 
ENDROOT
BRANCH  19  22
ATOM     22  O   UNL     1       1.325  12.673  17.736  0.00  0.00    +0.000 OA
ATOM     23  H   UNL     1       1.362  13.208  16.922  0.00  0.00    +0.000 HD
ENDBRANCH  19  22
BRANCH  21  24
ATOM     24  O   UNL     1      -0.787  10.464  20.863  0.00  0.00    +0.000 OA
ATOM     25  H   UNL     1      -0.062   9.841  21.012  0.00  0.00    +0.000 HD
ENDBRANCH  21  24
BRANCH  16  26
ATOM     26  O   UNL     1      -2.665  12.288  19.910  0.00  0.00    +0.000 OA
BRANCH  26  27
ATOM     27  C   UNL     1      -3.737  12.045  19.126  0.00  0.00    +0.000 C 
ATOM     28  O   UNL     1      -4.867  12.367  19.409  0.00  0.00    +0.000 OA
BRANCH  27  29
ATOM     29  C   UNL     1      -3.357  11.293  17.887  0.00  0.00    +0.000 A 
ATOM     30  C   UNL     1      -2.241  10.459  17.729  0.00  0.00    +0.000 A 
ATOM     31  C   UNL     1      -2.019   9.802  16.508  0.00  0.00    +0.000 A 
ATOM     32  C   UNL     1      -2.926   9.986  15.477  0.00  0.00    +0.000 A 
ATOM     33  N   UNL     1      -4.019  10.768  15.589  0.00  0.00    +0.000 NA
ATOM     34  C   UNL     1      -4.204  11.395  16.785  0.00  0.00    +0.000 A 
ENDBRANCH  27  29
ENDBRANCH  26  27
ENDBRANCH  16  26
TORSDOF 5
ENDMDL
MODEL 4
REMARK VINA RESULT:      -6.8      9.755     12.073
REMARK  Name = 
REMARK  6 active torsions:
REMARK  status: ('A' for Active; 'I' for Inactive)
REMARK    1  A    between atoms: C_9  and  C_10
REMARK    2  A    between atoms: C_16  and  O_17
REMARK    3  A    between atoms: O_17  and  C_18
REMARK    4  A    between atoms: C_18  and  C_20
REMARK    5  A    between atoms: C_28  and  O_29
REMARK    6  A    between atoms: C_31  and  O_32
REMARK                            x       y       z     vdW  Elec       q    Type
REMARK                         _______ _______ _______ _____ _____    ______ ____
ROOT
ATOM      1  C   UNL     1       0.186  13.124  18.429  0.00  0.00    +0.000 C 
ATOM      2  C   UNL     1      -0.482  13.000  19.588  0.00  0.00    +0.000 C 
ATOM      3  C   UNL     1       0.058  13.224  21.015  0.00  0.00    +0.000 C 
ATOM      4  C   UNL     1      -0.421  14.613  21.411  0.00  0.00    +0.000 C 
ATOM      5  C   UNL     1      -1.950  14.634  21.123  0.00  0.00    +0.000 C 
ATOM      6  C   UNL     1      -2.754  15.095  22.261  0.00  0.00    +0.000 C 
ATOM      7  N   UNL     1      -4.094  14.913  21.649  0.00  0.00    +0.000 NA
ATOM      8  C   UNL     1      -4.928  16.025  21.988  0.00  0.00    +0.000 C 
ATOM      9  C   UNL     1      -5.048  15.654  23.448  0.00  0.00    +0.000 C 
ATOM     10  C   UNL     1      -6.554  15.741  23.737  0.00  0.00    +0.000 C 
ATOM     11  C   UNL     1      -4.196  16.563  24.348  0.00  0.00    +0.000 C 
ATOM     12  C   UNL     1      -3.308  15.766  25.325  0.00  0.00    +0.000 C 
ATOM     13  C   UNL     1      -2.450  14.531  24.768  0.00  0.00    +0.000 C 
ATOM     14  C   UNL     1      -2.816  14.058  23.335  0.00  0.00    +0.000 C 
ATOM     15  C   UNL     1      -2.124  12.680  22.381  0.00  0.00    +0.000 C 
ATOM     16  C   UNL     1      -0.614  12.244  22.049  0.00  0.00    +0.000 C 
ATOM     17  C   UNL     1      -2.555  13.191  20.940  0.00  0.00    +0.000 C 
ATOM     18  C   UNL     1      -4.108  13.048  20.842  0.00  0.00    +0.000 C 
ATOM     19  C   UNL     1      -4.878  13.627  22.080  0.00  0.00    +0.000 C 
ATOM     20  C   UNL     1      -4.440  14.175  23.425  0.00  0.00    +0.000 C 
ATOM     21  C   UNL     1      -1.974  12.811  19.577  0.00  0.00    +0.000 C 
ENDROOT
BRANCH  19  22
ATOM     22  O   UNL     1      -4.788  12.256  22.651  0.00  0.00    +0.000 OA
ATOM     23  H   UNL     1      -5.597  11.714  22.689  0.00  0.00    +0.000 HD
ENDBRANCH  19  22
BRANCH  21  24
ATOM     24  O   UNL     1      -2.329  11.532  19.109  0.00  0.00    +0.000 OA
ATOM     25  H   UNL     1      -2.280  10.944  19.876  0.00  0.00    +0.000 HD
ENDBRANCH  21  24
BRANCH  16  26
ATOM     26  O   UNL     1      -0.641  10.975  21.254  0.00  0.00    +0.000 OA
BRANCH  26  27
ATOM     27  C   UNL     1      -0.038   9.820  21.604  0.00  0.00    +0.000 C 
ATOM     28  O   UNL     1      -0.072   9.351  22.718  0.00  0.00    +0.000 OA
BRANCH  27  29
ATOM     29  C   UNL     1       0.710   9.215  20.455  0.00  0.00    +0.000 A 
ATOM     30  C   UNL     1       0.762   9.710  19.144  0.00  0.00    +0.000 A 
ATOM     31  C   UNL     1       1.520   9.043  18.168  0.00  0.00    +0.000 A 
ATOM     32  C   UNL     1       2.218   7.903  18.531  0.00  0.00    +0.000 A 
ATOM     33  N   UNL     1       2.207   7.399  19.781  0.00  0.00    +0.000 NA
ATOM     34  C   UNL     1       1.458   8.067  20.704  0.00  0.00    +0.000 A 
ENDBRANCH  27  29
ENDBRANCH  26  27
ENDBRANCH  16  26
TORSDOF 5
ENDMDL
MODEL 5
REMARK VINA RESULT:      -6.7      9.130     11.512
REMARK  Name = 
REMARK  6 active torsions:
REMARK  status: ('A' for Active; 'I' for Inactive)
REMARK    1  A    between atoms: C_9  and  C_10
REMARK    2  A    between atoms: C_16  and  O_17
REMARK    3  A    between atoms: O_17  and  C_18
REMARK    4  A    between atoms: C_18  and  C_20
REMARK    5  A    between atoms: C_28  and  O_29
REMARK    6  A    between atoms: C_31  and  O_32
REMARK                            x       y       z     vdW  Elec       q    Type
REMARK                         _______ _______ _______ _____ _____    ______ ____
ROOT
ATOM      1  C   UNL     1      -0.950  10.781  22.994  0.00  0.00    +0.000 C 
ATOM      2  C   UNL     1      -0.726  11.473  21.863  0.00  0.00    +0.000 C 
ATOM      3  C   UNL     1      -1.640  12.529  21.209  0.00  0.00    +0.000 C 
ATOM      4  C   UNL     1      -1.050  13.873  21.610  0.00  0.00    +0.000 C 
ATOM      5  C   UNL     1       0.463  13.796  21.256  0.00  0.00    +0.000 C 
ATOM      6  C   UNL     1       0.935  14.928  20.450  0.00  0.00    +0.000 C 
ATOM      7  N   UNL     1       2.336  14.476  20.267  0.00  0.00    +0.000 NA
ATOM      8  C   UNL     1       3.219  15.594  20.406  0.00  0.00    +0.000 C 
ATOM      9  C   UNL     1       2.790  16.257  19.117  0.00  0.00    +0.000 C 
ATOM     10  C   UNL     1       4.110  16.600  18.412  0.00  0.00    +0.000 C 
ATOM     11  C   UNL     1       1.891  17.479  19.368  0.00  0.00    +0.000 C 
ATOM     12  C   UNL     1       0.598  17.445  18.527  0.00  0.00    +0.000 C 
ATOM     13  C   UNL     1      -0.262  16.092  18.472  0.00  0.00    +0.000 C 
ATOM     14  C   UNL     1       0.443  14.831  19.042  0.00  0.00    +0.000 C 
ATOM     15  C   UNL     1      -0.162  13.124  19.115  0.00  0.00    +0.000 C 
ATOM     16  C   UNL     1      -1.541  12.487  19.638  0.00  0.00    +0.000 C 
ATOM     17  C   UNL     1       0.799  12.614  20.271  0.00  0.00    +0.000 C 
ATOM     18  C   UNL     1       2.241  12.535  19.675  0.00  0.00    +0.000 C 
ATOM     19  C   UNL     1       2.672  13.819  18.885  0.00  0.00    +0.000 C 
ATOM     20  C   UNL     1       1.943  15.077  18.449  0.00  0.00    +0.000 C 
ATOM     21  C   UNL     1       0.622  11.412  21.201  0.00  0.00    +0.000 C 
ENDROOT
BRANCH  19  22
ATOM     22  O   UNL     1       2.136  13.135  17.677  0.00  0.00    +0.000 OA
ATOM     23  H   UNL     1       1.342  12.578  17.772  0.00  0.00    +0.000 HD
ENDBRANCH  19  22
BRANCH  21  24
ATOM     24  O   UNL     1       0.850  10.155  20.608  0.00  0.00    +0.000 OA
ATOM     25  H   UNL     1       0.089   9.990  20.034  0.00  0.00    +0.000 HD
ENDBRANCH  21  24
BRANCH  16  26
ATOM     26  O   UNL     1      -1.511  11.008  19.400  0.00  0.00    +0.000 OA
BRANCH  26  27
ATOM     27  C   UNL     1      -1.208  10.411  18.229  0.00  0.00    +0.000 C 
ATOM     28  O   UNL     1      -0.166   9.838  18.012  0.00  0.00    +0.000 OA
BRANCH  27  29
ATOM     29  C   UNL     1      -2.305  10.581  17.221  0.00  0.00    +0.000 A 
ATOM     30  C   UNL     1      -2.339  10.036  15.930  0.00  0.00    +0.000 A 
ATOM     31  C   UNL     1      -3.445  10.268  15.096  0.00  0.00    +0.000 A 
ATOM     32  C   UNL     1      -4.496  11.030  15.580  0.00  0.00    +0.000 A 
ATOM     33  N   UNL     1      -4.511  11.563  16.818  0.00  0.00    +0.000 NA
ATOM     34  C   UNL     1      -3.421  11.323  17.601  0.00  0.00    +0.000 A 
ENDBRANCH  27  29
ENDBRANCH  26  27
ENDBRANCH  16  26
TORSDOF 5
ENDMDL
MODEL 6
REMARK VINA RESULT:      -6.7      9.283     12.277
REMARK  Name = 
REMARK  6 active torsions:
REMARK  status: ('A' for Active; 'I' for Inactive)
REMARK    1  A    between atoms: C_9  and  C_10
REMARK    2  A    between atoms: C_16  and  O_17
REMARK    3  A    between atoms: O_17  and  C_18
REMARK    4  A    between atoms: C_18  and  C_20
REMARK    5  A    between atoms: C_28  and  O_29
REMARK    6  A    between atoms: C_31  and  O_32
REMARK                            x       y       z     vdW  Elec       q    Type
REMARK                         _______ _______ _______ _____ _____    ______ ____
ROOT
ATOM      1  C   UNL     1      -1.166  10.889  23.019  0.00  0.00    +0.000 C 
ATOM      2  C   UNL     1      -0.906  11.655  21.945  0.00  0.00    +0.000 C 
ATOM      3  C   UNL     1      -1.494  13.041  21.613  0.00  0.00    +0.000 C 
ATOM      4  C   UNL     1      -0.421  14.040  22.019  0.00  0.00    +0.000 C 
ATOM      5  C   UNL     1       0.894  13.549  21.348  0.00  0.00    +0.000 C 
ATOM      6  C   UNL     1       1.587  14.592  20.585  0.00  0.00    +0.000 C 
ATOM      7  N   UNL     1       2.699  13.757  20.064  0.00  0.00    +0.000 NA
ATOM      8  C   UNL     1       3.922  14.497  20.131  0.00  0.00    +0.000 C 
ATOM      9  C   UNL     1       3.543  15.469  19.038  0.00  0.00    +0.000 C 
ATOM     10  C   UNL     1       4.767  15.491  18.110  0.00  0.00    +0.000 C 
ATOM     11  C   UNL     1       3.172  16.852  19.598  0.00  0.00    +0.000 C 
ATOM     12  C   UNL     1       1.828  17.373  19.050  0.00  0.00    +0.000 C 
ATOM     13  C   UNL     1       0.559  16.393  19.036  0.00  0.00    +0.000 C 
ATOM     14  C   UNL     1       0.870  14.896  19.309  0.00  0.00    +0.000 C 
ATOM     15  C   UNL     1      -0.265  13.483  19.329  0.00  0.00    +0.000 C 
ATOM     16  C   UNL     1      -1.674  13.237  20.060  0.00  0.00    +0.000 C 
ATOM     17  C   UNL     1       0.637  12.506  20.196  0.00  0.00    +0.000 C 
ATOM     18  C   UNL     1       1.846  12.076  19.306  0.00  0.00    +0.000 C 
ATOM     19  C   UNL     1       2.557  13.272  18.581  0.00  0.00    +0.000 C 
ATOM     20  C   UNL     1       2.244  14.750  18.443  0.00  0.00    +0.000 C 
ATOM     21  C   UNL     1       0.212  11.283  21.011  0.00  0.00    +0.000 C 
ENDROOT
BRANCH  19  22
ATOM     22  O   UNL     1       1.629  13.008  17.448  0.00  0.00    +0.000 OA
ATOM     23  H   UNL     1       1.793  13.457  16.599  0.00  0.00    +0.000 HD
ENDBRANCH  19  22
BRANCH  21  24
ATOM     24  O   UNL     1      -0.106  10.139  20.255  0.00  0.00    +0.000 OA
ATOM     25  H   UNL     1      -0.193   9.414  20.891  0.00  0.00    +0.000 HD
ENDBRANCH  21  24
BRANCH  16  26
ATOM     26  O   UNL     1      -2.193  11.888  19.668  0.00  0.00    +0.000 OA
BRANCH  26  27
ATOM     27  C   UNL     1      -2.955  11.628  18.585  0.00  0.00    +0.000 C 
ATOM     28  O   UNL     1      -2.511  11.418  17.481  0.00  0.00    +0.000 OA
BRANCH  27  29
ATOM     29  C   UNL     1      -4.417  11.673  18.913  0.00  0.00    +0.000 A 
ATOM     30  C   UNL     1      -5.032  12.513  19.852  0.00  0.00    +0.000 A 
ATOM     31  C   UNL     1      -6.422  12.456  20.044  0.00  0.00    +0.000 A 
ATOM     32  C   UNL     1      -7.165  11.569  19.281  0.00  0.00    +0.000 A 
ATOM     33  N   UNL     1      -6.617  10.754  18.358  0.00  0.00    +0.000 NA
ATOM     34  C   UNL     1      -5.265  10.830  18.199  0.00  0.00    +0.000 A 
ENDBRANCH  27  29
ENDBRANCH  26  27
ENDBRANCH  16  26
TORSDOF 5
ENDMDL
MODEL 7
REMARK VINA RESULT:      -6.6      7.899     10.889
REMARK  Name = 
REMARK  6 active torsions:
REMARK  status: ('A' for Active; 'I' for Inactive)
REMARK    1  A    between atoms: C_9  and  C_10
REMARK    2  A    between atoms: C_16  and  O_17
REMARK    3  A    between atoms: O_17  and  C_18
REMARK    4  A    between atoms: C_18  and  C_20
REMARK    5  A    between atoms: C_28  and  O_29
REMARK    6  A    between atoms: C_31  and  O_32
REMARK                            x       y       z     vdW  Elec       q    Type
REMARK                         _______ _______ _______ _____ _____    ______ ____
ROOT
ATOM      1  C   UNL     1      -3.208  11.925  19.480  0.00  0.00    +0.000 C 
ATOM      2  C   UNL     1      -1.878  12.109  19.542  0.00  0.00    +0.000 C 
ATOM      3  C   UNL     1      -0.842  11.873  18.425  0.00  0.00    +0.000 C 
ATOM      4  C   UNL     1      -0.549  13.252  17.852  0.00  0.00    +0.000 C 
ATOM      5  C   UNL     1      -0.216  14.158  19.072  0.00  0.00    +0.000 C 
ATOM      6  C   UNL     1       1.041  14.900  18.925  0.00  0.00    +0.000 C 
ATOM      7  N   UNL     1       1.045  15.558  20.255  0.00  0.00    +0.000 NA
ATOM      8  C   UNL     1       1.475  16.916  20.114  0.00  0.00    +0.000 C 
ATOM      9  C   UNL     1       2.907  16.562  19.785  0.00  0.00    +0.000 C 
ATOM     10  C   UNL     1       3.740  17.464  20.709  0.00  0.00    +0.000 C 
ATOM     11  C   UNL     1       3.222  16.754  18.293  0.00  0.00    +0.000 C 
ATOM     12  C   UNL     1       3.901  15.519  17.667  0.00  0.00    +0.000 C 
ATOM     13  C   UNL     1       3.288  14.064  17.949  0.00  0.00    +0.000 C 
ATOM     14  C   UNL     1       2.223  13.998  19.077  0.00  0.00    +0.000 C 
ATOM     15  C   UNL     1       1.341  12.553  19.726  0.00  0.00    +0.000 C 
ATOM     16  C   UNL     1       0.532  11.367  19.006  0.00  0.00    +0.000 C 
ATOM     17  C   UNL     1       0.117  13.331  20.371  0.00  0.00    +0.000 C 
ATOM     18  C   UNL     1       0.660  14.100  21.618  0.00  0.00    +0.000 C 
ATOM     19  C   UNL     1       1.973  14.912  21.339  0.00  0.00    +0.000 C 
ATOM     20  C   UNL     1       2.917  15.007  20.155  0.00  0.00    +0.000 C 
ATOM     21  C   UNL     1      -1.271  12.799  20.732  0.00  0.00    +0.000 C 
ENDROOT
BRANCH  19  22
ATOM     22  O   UNL     1       2.703  13.691  21.776  0.00  0.00    +0.000 OA
ATOM     23  H   UNL     1       3.434  13.789  22.413  0.00  0.00    +0.000 HD
ENDBRANCH  19  22
BRANCH  21  24
ATOM     24  O   UNL     1      -1.323  11.988  21.882  0.00  0.00    +0.000 OA
ATOM     25  H   UNL     1      -0.403  11.837  22.142  0.00  0.00    +0.000 HD
ENDBRANCH  21  24
BRANCH  16  26
ATOM     26  O   UNL     1       0.054  10.405  20.050  0.00  0.00    +0.000 OA
BRANCH  26  27
ATOM     27  C   UNL     1       0.847   9.696  20.881  0.00  0.00    +0.000 C 
ATOM     28  O   UNL     1       1.084  10.012  22.023  0.00  0.00    +0.000 OA
BRANCH  27  29
ATOM     29  C   UNL     1       1.428   8.494  20.199  0.00  0.00    +0.000 A 
ATOM     30  C   UNL     1       1.989   8.457  18.914  0.00  0.00    +0.000 A 
ATOM     31  C   UNL     1       2.513   7.256  18.407  0.00  0.00    +0.000 A 
ATOM     32  C   UNL     1       2.473   6.123  19.204  0.00  0.00    +0.000 A 
ATOM     33  N   UNL     1       1.956   6.116  20.449  0.00  0.00    +0.000 NA
ATOM     34  C   UNL     1       1.452   7.296  20.910  0.00  0.00    +0.000 A 
ENDBRANCH  27  29
ENDBRANCH  26  27
ENDBRANCH  16  26
TORSDOF 5
ENDMDL
MODEL 8
REMARK VINA RESULT:      -6.5      8.667     11.533
REMARK  Name = 
REMARK  6 active torsions:
REMARK  status: ('A' for Active; 'I' for Inactive)
REMARK    1  A    between atoms: C_9  and  C_10
REMARK    2  A    between atoms: C_16  and  O_17
REMARK    3  A    between atoms: O_17  and  C_18
REMARK    4  A    between atoms: C_18  and  C_20
REMARK    5  A    between atoms: C_28  and  O_29
REMARK    6  A    between atoms: C_31  and  O_32
REMARK                            x       y       z     vdW  Elec       q    Type
REMARK                         _______ _______ _______ _____ _____    ______ ____
ROOT
ATOM      1  C   UNL     1      -0.476   9.527  22.237  0.00  0.00    +0.000 C 
ATOM      2  C   UNL     1      -0.398  10.468  21.281  0.00  0.00    +0.000 C 
ATOM      3  C   UNL     1      -1.362  11.647  21.039  0.00  0.00    +0.000 C 
ATOM      4  C   UNL     1      -0.674  12.859  21.652  0.00  0.00    +0.000 C 
ATOM      5  C   UNL     1       0.767  12.871  21.066  0.00  0.00    +0.000 C 
ATOM      6  C   UNL     1       1.153  14.164  20.488  0.00  0.00    +0.000 C 
ATOM      7  N   UNL     1       2.497  13.772  19.994  0.00  0.00    +0.000 NA
ATOM      8  C   UNL     1       3.428  14.826  20.258  0.00  0.00    +0.000 C 
ATOM      9  C   UNL     1       2.837  15.775  19.241  0.00  0.00    +0.000 C 
ATOM     10  C   UNL     1       4.050  16.280  18.446  0.00  0.00    +0.000 C 
ATOM     11  C   UNL     1       2.026  16.900  19.905  0.00  0.00    +0.000 C 
ATOM     12  C   UNL     1       0.623  17.065  19.284  0.00  0.00    +0.000 C 
ATOM     13  C   UNL     1      -0.281  15.762  19.043  0.00  0.00    +0.000 C 
ATOM     14  C   UNL     1       0.458  14.404  19.187  0.00  0.00    +0.000 C 
ATOM     15  C   UNL     1      -0.188  12.726  18.946  0.00  0.00    +0.000 C 
ATOM     16  C   UNL     1      -1.496  11.980  19.506  0.00  0.00    +0.000 C 
ATOM     17  C   UNL     1       0.914  11.958  19.791  0.00  0.00    +0.000 C 
ATOM     18  C   UNL     1       2.250  12.026  18.983  0.00  0.00    +0.000 C 
ATOM     19  C   UNL     1       2.603  13.463  18.462  0.00  0.00    +0.000 C 
ATOM     20  C   UNL     1       1.861  14.787  18.450  0.00  0.00    +0.000 C 
ATOM     21  C   UNL     1       0.836  10.569  20.427  0.00  0.00    +0.000 C 
ENDROOT
BRANCH  19  22
ATOM     22  O   UNL     1       1.873  13.084  17.222  0.00  0.00    +0.000 OA
ATOM     23  H   UNL     1       0.911  12.941  17.274  0.00  0.00    +0.000 HD
ENDBRANCH  19  22
BRANCH  21  24
ATOM     24  O   UNL     1       0.931   9.490  19.527  0.00  0.00    +0.000 OA
ATOM     25  H   UNL     1       0.625   8.711  20.012  0.00  0.00    +0.000 HD
ENDBRANCH  21  24
BRANCH  16  26
ATOM     26  O   UNL     1      -1.551  10.601  18.925  0.00  0.00    +0.000 OA
BRANCH  26  27
ATOM     27  C   UNL     1      -2.176  10.260  17.778  0.00  0.00    +0.000 C 
ATOM     28  O   UNL     1      -1.632   9.707  16.851  0.00  0.00    +0.000 OA
BRANCH  27  29
ATOM     29  C   UNL     1      -3.612  10.687  17.783  0.00  0.00    +0.000 A 
ATOM     30  C   UNL     1      -4.607  10.250  18.669  0.00  0.00    +0.000 A 
ATOM     31  C   UNL     1      -5.915  10.751  18.564  0.00  0.00    +0.000 A 
ATOM     32  C   UNL     1      -6.192  11.688  17.581  0.00  0.00    +0.000 A 
ATOM     33  N   UNL     1      -5.265  12.146  16.717  0.00  0.00    +0.000 NA
ATOM     34  C   UNL     1      -4.006  11.637  16.843  0.00  0.00    +0.000 A 
ENDBRANCH  27  29
ENDBRANCH  26  27
ENDBRANCH  16  26
TORSDOF 5
ENDMDL
MODEL 9
REMARK VINA RESULT:      -6.5     10.405     12.772
REMARK  Name = 
REMARK  6 active torsions:
REMARK  status: ('A' for Active; 'I' for Inactive)
REMARK    1  A    between atoms: C_9  and  C_10
REMARK    2  A    between atoms: C_16  and  O_17
REMARK    3  A    between atoms: O_17  and  C_18
REMARK    4  A    between atoms: C_18  and  C_20
REMARK    5  A    between atoms: C_28  and  O_29
REMARK    6  A    between atoms: C_31  and  O_32
REMARK                            x       y       z     vdW  Elec       q    Type
REMARK                         _______ _______ _______ _____ _____    ______ ____
ROOT
ATOM      1  C   UNL     1       0.461  11.434  19.371  0.00  0.00    +0.000 C 
ATOM      2  C   UNL     1      -0.436  12.180  20.036  0.00  0.00    +0.000 C 
ATOM      3  C   UNL     1      -1.402  11.723  21.148  0.00  0.00    +0.000 C 
ATOM      4  C   UNL     1      -0.749  12.159  22.452  0.00  0.00    +0.000 C 
ATOM      5  C   UNL     1      -0.397  13.663  22.268  0.00  0.00    +0.000 C 
ATOM      6  C   UNL     1      -0.883  14.515  23.360  0.00  0.00    +0.000 C 
ATOM      7  N   UNL     1      -0.437  15.820  22.812  0.00  0.00    +0.000 NA
ATOM      8  C   UNL     1       0.106  16.620  23.867  0.00  0.00    +0.000 C 
ATOM      9  C   UNL     1      -1.223  16.851  24.548  0.00  0.00    +0.000 C 
ATOM     10  C   UNL     1      -1.262  18.367  24.795  0.00  0.00    +0.000 C 
ATOM     11  C   UNL     1      -1.369  16.016  25.831  0.00  0.00    +0.000 C 
ATOM     12  C   UNL     1      -2.696  15.231  25.879  0.00  0.00    +0.000 C 
ATOM     13  C   UNL     1      -3.159  14.400  24.588  0.00  0.00    +0.000 C 
ATOM     14  C   UNL     1      -2.365  14.696  23.286  0.00  0.00    +0.000 C 
ATOM     15  C   UNL     1      -2.609  14.011  21.625  0.00  0.00    +0.000 C 
ATOM     16  C   UNL     1      -2.767  12.506  21.088  0.00  0.00    +0.000 C 
ATOM     17  C   UNL     1      -1.159  14.324  21.059  0.00  0.00    +0.000 C 
ATOM     18  C   UNL     1      -1.055  15.872  20.877  0.00  0.00    +0.000 C 
ATOM     19  C   UNL     1      -1.542  16.691  22.123  0.00  0.00    +0.000 C 
ATOM     20  C   UNL     1      -2.226  16.314  23.424  0.00  0.00    +0.000 C 
ATOM     21  C   UNL     1      -0.433  13.676  19.878  0.00  0.00    +0.000 C 
ENDROOT
BRANCH  19  22
ATOM     22  O   UNL     1      -2.878  16.705  21.468  0.00  0.00    +0.000 OA
ATOM     23  H   UNL     1      -3.478  15.952  21.620  0.00  0.00    +0.000 HD
ENDBRANCH  19  22
BRANCH  21  24
ATOM     24  O   UNL     1      -0.893  14.062  18.605  0.00  0.00    +0.000 OA
ATOM     25  H   UNL     1      -1.507  14.795  18.755  0.00  0.00    +0.000 HD
ENDBRANCH  21  24
BRANCH  16  26
ATOM     26  O   UNL     1      -3.002  12.543  19.609  0.00  0.00    +0.000 OA
BRANCH  26  27
ATOM     27  C   UNL     1      -4.023  11.941  18.964  0.00  0.00    +0.000 C 
ATOM     28  O   UNL     1      -5.171  11.967  19.344  0.00  0.00    +0.000 OA
BRANCH  27  29
ATOM     29  C   UNL     1      -3.553  11.206  17.746  0.00  0.00    +0.000 A 
ATOM     30  C   UNL     1      -2.498  10.283  17.688  0.00  0.00    +0.000 A 
ATOM     31  C   UNL     1      -2.177   9.656  16.473  0.00  0.00    +0.000 A 
ATOM     32  C   UNL     1      -2.928   9.958  15.348  0.00  0.00    +0.000 A 
ATOM     33  N   UNL     1      -3.957  10.828  15.361  0.00  0.00    +0.000 NA
ATOM     34  C   UNL     1      -4.241  11.423  16.555  0.00  0.00    +0.000 A 
ENDBRANCH  27  29
ENDBRANCH  26  27
ENDBRANCH  16  26
TORSDOF 5
ENDMDL
