MODEL 1
REMARK VINA RESULT:      -8.6      0.000      0.000
REMARK  Name = 
REMARK  7 active torsions:
REMARK  status: ('A' for Active; 'I' for Inactive)
REMARK    1  A    between atoms: C_1  and  C_2
REMARK    2  A    between atoms: C_2  and  C_3
REMARK    3  A    between atoms: C_2  and  N_4
REMARK    4  A    between atoms: C_6  and  C_7
REMARK    5  A    between atoms: C_14  and  O_15
REMARK    6  A    between atoms: O_15  and  C_16
REMARK    7  A    between atoms: C_24  and  C_25
REMARK                            x       y       z     vdW  Elec       q    Type
REMARK                         _______ _______ _______ _____ _____    ______ ____
ROOT
ATOM      1  C   UNL     1       2.548   8.183  18.098  0.00  0.00    +0.000 A 
ATOM      2  N   UNL     1       2.174   9.191  17.284  0.00  0.00    +0.000 NA
ATOM      3  N   UNL     1       1.321   9.902  18.021  0.00  0.00    +0.000 N 
ATOM      4  C   UNL     1       1.191   9.444  19.297  0.00  0.00    +0.000 A 
ATOM      5  C   UNL     1       0.567   9.970  20.416  0.00  0.00    +0.000 A 
ATOM      6  C   UNL     1       0.170   9.016  21.326  0.00  0.00    +0.000 A 
ATOM      7  N   UNL     1       0.702   7.784  21.384  0.00  0.00    +0.000 NA
ATOM      8  C   UNL     1       1.635   7.417  20.466  0.00  0.00    +0.000 A 
ATOM      9  C   UNL     1       1.827   8.203  19.322  0.00  0.00    +0.000 A 
ATOM     10  H   UNL     1       0.795  10.642  17.565  0.00  0.00    +0.000 HD
ENDROOT
BRANCH   1  13
ATOM     11  N   UNL     1       4.505   5.206  17.379  0.00  0.00    +0.000 N 
ATOM     12  C   UNL     1       3.449   5.877  17.987  0.00  0.00    +0.000 A 
ATOM     13  C   UNL     1       3.519   7.190  17.621  0.00  0.00    +0.000 A 
ATOM     14  C   UNL     1       4.567   7.308  16.678  0.00  0.00    +0.000 A 
ATOM     15  C   UNL     1       5.188   6.063  16.517  0.00  0.00    +0.000 A 
BRANCH  15  16
ATOM     16  C   UNL     1       6.377   5.732  15.752  0.00  0.00    +0.000 C 
ATOM     17  O   UNL     1       7.512   6.061  16.129  0.00  0.00    +0.000 OA
ATOM     18  N   UNL     1       6.252   5.071  14.547  0.00  0.00    +0.000 N 
ATOM     19  C   UNL     1       7.374   4.537  13.781  0.00  0.00    +0.000 C 
ATOM     20  C   UNL     1       6.328   3.868  12.893  0.00  0.00    +0.000 C 
ATOM     21  C   UNL     1       5.340   4.060  14.053  0.00  0.00    +0.000 C 
ENDBRANCH  15  16
BRANCH  11  23
ATOM     22  C   UNL     1       5.011   3.595  19.175  0.00  0.00    +0.000 C 
ATOM     23  C   UNL     1       4.755   3.794  17.675  0.00  0.00    +0.000 C 
ATOM     24  C   UNL     1       3.615   2.905  17.163  0.00  0.00    +0.000 C 
ENDBRANCH  11  23
ENDBRANCH   1  13
BRANCH   8  25
ATOM     25  O   UNL     1       2.301   6.231  20.632  0.00  0.00    +0.000 OA
BRANCH  25  26
ATOM     26  C   UNL     1       1.488   5.055  20.827  0.00  0.00    +0.000 C 
ATOM     27  C   UNL     1       2.358   4.144  21.698  0.00  0.00    +0.000 C 
ATOM     28  C   UNL     1       2.033   2.671  21.585  0.00  0.00    +0.000 C 
ATOM     29  O   UNL     1       1.922   2.274  20.222  0.00  0.00    +0.000 OA
ATOM     30  C   UNL     1       0.835   2.932  19.582  0.00  0.00    +0.000 C 
ATOM     31  C   UNL     1       1.101   4.421  19.485  0.00  0.00    +0.000 C 
ENDBRANCH  25  26
ENDBRANCH   8  25
TORSDOF 5
ENDMDL
MODEL 2
REMARK VINA RESULT:      -7.9      2.237      6.407
REMARK  Name = 
REMARK  7 active torsions:
REMARK  status: ('A' for Active; 'I' for Inactive)
REMARK    1  A    between atoms: C_1  and  C_2
REMARK    2  A    between atoms: C_2  and  C_3
REMARK    3  A    between atoms: C_2  and  N_4
REMARK    4  A    between atoms: C_6  and  C_7
REMARK    5  A    between atoms: C_14  and  O_15
REMARK    6  A    between atoms: O_15  and  C_16
REMARK    7  A    between atoms: C_24  and  C_25
REMARK                            x       y       z     vdW  Elec       q    Type
REMARK                         _______ _______ _______ _____ _____    ______ ____
ROOT
ATOM      1  C   UNL     1       3.292   7.451  17.696  0.00  0.00    +0.000 A 
ATOM      2  N   UNL     1       3.905   7.857  16.566  0.00  0.00    +0.000 NA
ATOM      3  N   UNL     1       4.731   6.855  16.267  0.00  0.00    +0.000 N 
ATOM      4  C   UNL     1       4.618   5.789  17.107  0.00  0.00    +0.000 A 
ATOM      5  C   UNL     1       5.141   4.507  17.060  0.00  0.00    +0.000 A 
ATOM      6  C   UNL     1       5.277   3.921  18.299  0.00  0.00    +0.000 A 
ATOM      7  N   UNL     1       4.587   4.313  19.382  0.00  0.00    +0.000 NA
ATOM      8  C   UNL     1       3.753   5.384  19.289  0.00  0.00    +0.000 A 
ATOM      9  C   UNL     1       3.829   6.224  18.171  0.00  0.00    +0.000 A 
ATOM     10  H   UNL     1       5.408   6.997  15.524  0.00  0.00    +0.000 HD
ENDROOT
BRANCH   1  13
ATOM     11  N   UNL     1       1.006   9.187  19.925  0.00  0.00    +0.000 N 
ATOM     12  C   UNL     1       2.012   8.265  19.656  0.00  0.00    +0.000 A 
ATOM     13  C   UNL     1       2.277   8.311  18.318  0.00  0.00    +0.000 A 
ATOM     14  C   UNL     1       1.504   9.362  17.772  0.00  0.00    +0.000 A 
ATOM     15  C   UNL     1       0.706   9.922  18.778  0.00  0.00    +0.000 A 
BRANCH  15  16
ATOM     16  C   UNL     1      -0.328  10.934  18.662  0.00  0.00    +0.000 C 
ATOM     17  O   UNL     1      -0.170  12.086  19.094  0.00  0.00    +0.000 OA
ATOM     18  N   UNL     1      -1.544  10.608  18.097  0.00  0.00    +0.000 N 
ATOM     19  C   UNL     1      -2.588  11.576  17.773  0.00  0.00    +0.000 C 
ATOM     20  C   UNL     1      -3.299  10.428  17.059  0.00  0.00    +0.000 C 
ATOM     21  C   UNL     1      -1.940   9.714  17.028  0.00  0.00    +0.000 C 
ENDBRANCH  15  16
BRANCH  11  23
ATOM     22  C   UNL     1      -0.646   8.213  21.473  0.00  0.00    +0.000 C 
ATOM     23  C   UNL     1       0.431   9.287  21.268  0.00  0.00    +0.000 C 
ATOM     24  C   UNL     1       1.519   9.223  22.349  0.00  0.00    +0.000 C 
ENDBRANCH  11  23
ENDBRANCH   1  13
BRANCH   8  25
ATOM     25  O   UNL     1       2.921   5.672  20.339  0.00  0.00    +0.000 OA
BRANCH  25  26
ATOM     26  C   UNL     1       1.776   4.810  20.511  0.00  0.00    +0.000 C 
ATOM     27  C   UNL     1       2.217   3.821  21.594  0.00  0.00    +0.000 C 
ATOM     28  C   UNL     1       1.485   2.497  21.571  0.00  0.00    +0.000 C 
ATOM     29  O   UNL     1       1.435   1.963  20.252  0.00  0.00    +0.000 OA
ATOM     30  C   UNL     1       0.684   2.804  19.385  0.00  0.00    +0.000 C 
ATOM     31  C   UNL     1       1.391   4.130  19.191  0.00  0.00    +0.000 C 
ENDBRANCH  25  26
ENDBRANCH   8  25
TORSDOF 5
ENDMDL
MODEL 3
REMARK VINA RESULT:      -7.6      2.223      4.785
REMARK  Name = 
REMARK  7 active torsions:
REMARK  status: ('A' for Active; 'I' for Inactive)
REMARK    1  A    between atoms: C_1  and  C_2
REMARK    2  A    between atoms: C_2  and  C_3
REMARK    3  A    between atoms: C_2  and  N_4
REMARK    4  A    between atoms: C_6  and  C_7
REMARK    5  A    between atoms: C_14  and  O_15
REMARK    6  A    between atoms: O_15  and  C_16
REMARK    7  A    between atoms: C_24  and  C_25
REMARK                            x       y       z     vdW  Elec       q    Type
REMARK                         _______ _______ _______ _____ _____    ______ ____
ROOT
ATOM      1  C   UNL     1       3.877   2.905  18.180  0.00  0.00    +0.000 A 
ATOM      2  N   UNL     1       3.889   1.560  18.082  0.00  0.00    +0.000 NA
ATOM      3  N   UNL     1       2.836   1.174  18.802  0.00  0.00    +0.000 N 
ATOM      4  C   UNL     1       2.103   2.212  19.292  0.00  0.00    +0.000 A 
ATOM      5  C   UNL     1       0.870   2.264  19.923  0.00  0.00    +0.000 A 
ATOM      6  C   UNL     1       0.718   3.359  20.745  0.00  0.00    +0.000 A 
ATOM      7  N   UNL     1       1.447   4.480  20.626  0.00  0.00    +0.000 NA
ATOM      8  C   UNL     1       2.437   4.536  19.694  0.00  0.00    +0.000 A 
ATOM      9  C   UNL     1       2.867   3.356  19.072  0.00  0.00    +0.000 A 
ATOM     10  H   UNL     1       2.722   0.182  18.993  0.00  0.00    +0.000 HD
ENDROOT
BRANCH   1  13
ATOM     11  N   UNL     1       6.570   5.142  17.203  0.00  0.00    +0.000 N 
ATOM     12  C   UNL     1       5.726   4.555  18.140  0.00  0.00    +0.000 A 
ATOM     13  C   UNL     1       4.901   3.690  17.481  0.00  0.00    +0.000 A 
ATOM     14  C   UNL     1       5.322   3.657  16.130  0.00  0.00    +0.000 A 
ATOM     15  C   UNL     1       6.374   4.563  15.949  0.00  0.00    +0.000 A 
BRANCH  15  16
ATOM     16  C   UNL     1       7.035   4.956  14.718  0.00  0.00    +0.000 C 
ATOM     17  O   UNL     1       7.955   5.788  14.704  0.00  0.00    +0.000 OA
ATOM     18  N   UNL     1       6.608   4.431  13.515  0.00  0.00    +0.000 N 
ATOM     19  C   UNL     1       7.301   4.616  12.244  0.00  0.00    +0.000 C 
ATOM     20  C   UNL     1       6.332   3.583  11.673  0.00  0.00    +0.000 C 
ATOM     21  C   UNL     1       6.079   3.141  13.121  0.00  0.00    +0.000 C 
ENDBRANCH  15  16
BRANCH  11  23
ATOM     22  C   UNL     1       6.877   7.583  17.353  0.00  0.00    +0.000 C 
ATOM     23  C   UNL     1       7.498   6.202  17.602  0.00  0.00    +0.000 C 
ATOM     24  C   UNL     1       7.952   6.029  19.058  0.00  0.00    +0.000 C 
ENDBRANCH  11  23
ENDBRANCH   1  13
BRANCH   8  25
ATOM     25  O   UNL     1       3.058   5.733  19.454  0.00  0.00    +0.000 OA
BRANCH  25  26
ATOM     26  C   UNL     1       2.260   6.760  18.828  0.00  0.00    +0.000 C 
ATOM     27  C   UNL     1       3.183   7.342  17.754  0.00  0.00    +0.000 C 
ATOM     28  C   UNL     1       2.855   8.762  17.346  0.00  0.00    +0.000 C 
ATOM     29  O   UNL     1       2.661   9.590  18.488  0.00  0.00    +0.000 OA
ATOM     30  C   UNL     1       1.536   9.165  19.246  0.00  0.00    +0.000 C 
ATOM     31  C   UNL     1       1.793   7.800  19.853  0.00  0.00    +0.000 C 
ENDBRANCH  25  26
ENDBRANCH   8  25
TORSDOF 5
ENDMDL
MODEL 4
REMARK VINA RESULT:      -7.6      1.328      1.874
REMARK  Name = 
REMARK  7 active torsions:
REMARK  status: ('A' for Active; 'I' for Inactive)
REMARK    1  A    between atoms: C_1  and  C_2
REMARK    2  A    between atoms: C_2  and  C_3
REMARK    3  A    between atoms: C_2  and  N_4
REMARK    4  A    between atoms: C_6  and  C_7
REMARK    5  A    between atoms: C_14  and  O_15
REMARK    6  A    between atoms: O_15  and  C_16
REMARK    7  A    between atoms: C_24  and  C_25
REMARK                            x       y       z     vdW  Elec       q    Type
REMARK                         _______ _______ _______ _____ _____    ______ ____
ROOT
ATOM      1  C   UNL     1       2.591   8.250  18.213  0.00  0.00    +0.000 A 
ATOM      2  N   UNL     1       2.238   9.277  17.414  0.00  0.00    +0.000 NA
ATOM      3  N   UNL     1       1.318   9.935  18.118  0.00  0.00    +0.000 N 
ATOM      4  C   UNL     1       1.120   9.424  19.365  0.00  0.00    +0.000 A 
ATOM      5  C   UNL     1       0.407   9.888  20.459  0.00  0.00    +0.000 A 
ATOM      6  C   UNL     1      -0.017   8.888  21.305  0.00  0.00    +0.000 A 
ATOM      7  N   UNL     1       0.548   7.670  21.353  0.00  0.00    +0.000 NA
ATOM      8  C   UNL     1       1.550   7.366  20.485  0.00  0.00    +0.000 A 
ATOM      9  C   UNL     1       1.791   8.202  19.387  0.00  0.00    +0.000 A 
ATOM     10  H   UNL     1       0.798  10.676  17.656  0.00  0.00    +0.000 HD
ENDROOT
BRANCH   1  13
ATOM     11  N   UNL     1       5.657   6.451  17.458  0.00  0.00    +0.000 N 
ATOM     12  C   UNL     1       4.948   7.512  18.011  0.00  0.00    +0.000 A 
ATOM     13  C   UNL     1       3.621   7.306  17.766  0.00  0.00    +0.000 A 
ATOM     14  C   UNL     1       3.501   6.036  17.153  0.00  0.00    +0.000 A 
ATOM     15  C   UNL     1       4.776   5.491  16.961  0.00  0.00    +0.000 A 
BRANCH  15  16
ATOM     16  C   UNL     1       5.150   4.273  16.264  0.00  0.00    +0.000 C 
ATOM     17  O   UNL     1       4.884   3.149  16.717  0.00  0.00    +0.000 OA
ATOM     18  N   UNL     1       5.862   4.352  15.084  0.00  0.00    +0.000 N 
ATOM     19  C   UNL     1       6.140   3.213  14.213  0.00  0.00    +0.000 C 
ATOM     20  C   UNL     1       6.664   4.234  13.205  0.00  0.00    +0.000 C 
ATOM     21  C   UNL     1       5.862   5.289  13.979  0.00  0.00    +0.000 C 
ENDBRANCH  15  16
BRANCH  11  23
ATOM     22  C   UNL     1       7.659   7.889  17.493  0.00  0.00    +0.000 C 
ATOM     23  C   UNL     1       7.121   6.452  17.467  0.00  0.00    +0.000 C 
ATOM     24  C   UNL     1       7.673   5.611  18.626  0.00  0.00    +0.000 C 
ENDBRANCH  11  23
ENDBRANCH   1  13
BRANCH   8  25
ATOM     25  O   UNL     1       2.242   6.195  20.652  0.00  0.00    +0.000 OA
BRANCH  25  26
ATOM     26  C   UNL     1       1.463   4.981  20.659  0.00  0.00    +0.000 C 
ATOM     27  C   UNL     1       2.227   4.057  21.612  0.00  0.00    +0.000 C 
ATOM     28  C   UNL     1       1.990   2.580  21.378  0.00  0.00    +0.000 C 
ATOM     29  O   UNL     1       2.111   2.255  19.997  0.00  0.00    +0.000 OA
ATOM     30  C   UNL     1       1.108   2.906  19.226  0.00  0.00    +0.000 C 
ATOM     31  C   UNL     1       1.318   4.406  19.244  0.00  0.00    +0.000 C 
ENDBRANCH  25  26
ENDBRANCH   8  25
TORSDOF 5
ENDMDL
MODEL 5
REMARK VINA RESULT:      -7.6      2.083      6.580
REMARK  Name = 
REMARK  7 active torsions:
REMARK  status: ('A' for Active; 'I' for Inactive)
REMARK    1  A    between atoms: C_1  and  C_2
REMARK    2  A    between atoms: C_2  and  C_3
REMARK    3  A    between atoms: C_2  and  N_4
REMARK    4  A    between atoms: C_6  and  C_7
REMARK    5  A    between atoms: C_14  and  O_15
REMARK    6  A    between atoms: O_15  and  C_16
REMARK    7  A    between atoms: C_24  and  C_25
REMARK                            x       y       z     vdW  Elec       q    Type
REMARK                         _______ _______ _______ _____ _____    ______ ____
ROOT
ATOM      1  C   UNL     1       3.349   7.374  17.703  0.00  0.00    +0.000 A 
ATOM      2  N   UNL     1       3.960   7.774  16.570  0.00  0.00    +0.000 NA
ATOM      3  N   UNL     1       4.794   6.776  16.281  0.00  0.00    +0.000 N 
ATOM      4  C   UNL     1       4.690   5.718  17.132  0.00  0.00    +0.000 A 
ATOM      5  C   UNL     1       5.225   4.440  17.098  0.00  0.00    +0.000 A 
ATOM      6  C   UNL     1       5.365   3.868  18.342  0.00  0.00    +0.000 A 
ATOM      7  N   UNL     1       4.670   4.264  19.421  0.00  0.00    +0.000 NA
ATOM      8  C   UNL     1       3.827   5.327  19.317  0.00  0.00    +0.000 A 
ATOM      9  C   UNL     1       3.897   6.157  18.191  0.00  0.00    +0.000 A 
ATOM     10  H   UNL     1       5.471   6.917  15.537  0.00  0.00    +0.000 HD
ENDROOT
BRANCH   1  13
ATOM     11  N   UNL     1       1.060   9.126  19.916  0.00  0.00    +0.000 N 
ATOM     12  C   UNL     1       2.079   8.216  19.658  0.00  0.00    +0.000 A 
ATOM     13  C   UNL     1       2.326   8.231  18.315  0.00  0.00    +0.000 A 
ATOM     14  C   UNL     1       1.525   9.252  17.753  0.00  0.00    +0.000 A 
ATOM     15  C   UNL     1       0.730   9.823  18.754  0.00  0.00    +0.000 A 
BRANCH  15  16
ATOM     16  C   UNL     1      -0.324  10.813  18.625  0.00  0.00    +0.000 C 
ATOM     17  O   UNL     1      -1.511  10.490  18.464  0.00  0.00    +0.000 OA
ATOM     18  N   UNL     1      -0.006  12.156  18.636  0.00  0.00    +0.000 N 
ATOM     19  C   UNL     1      -0.989  13.234  18.688  0.00  0.00    +0.000 C 
ATOM     20  C   UNL     1       0.195  14.175  18.900  0.00  0.00    +0.000 C 
ATOM     21  C   UNL     1       0.996  12.939  19.331  0.00  0.00    +0.000 C 
ENDBRANCH  15  16
BRANCH  11  23
ATOM     22  C   UNL     1      -0.585   8.191  21.497  0.00  0.00    +0.000 C 
ATOM     23  C   UNL     1       0.501   9.251  21.264  0.00  0.00    +0.000 C 
ATOM     24  C   UNL     1       1.600   9.192  22.333  0.00  0.00    +0.000 C 
ENDBRANCH  11  23
ENDBRANCH   1  13
BRANCH   8  25
ATOM     25  O   UNL     1       2.991   5.618  20.363  0.00  0.00    +0.000 OA
BRANCH  25  26
ATOM     26  C   UNL     1       1.823   4.783  20.508  0.00  0.00    +0.000 C 
ATOM     27  C   UNL     1       2.216   3.783  21.599  0.00  0.00    +0.000 C 
ATOM     28  C   UNL     1       1.453   2.476  21.557  0.00  0.00    +0.000 C 
ATOM     29  O   UNL     1       1.420   1.945  20.236  0.00  0.00    +0.000 OA
ATOM     30  C   UNL     1       0.709   2.805  19.354  0.00  0.00    +0.000 C 
ATOM     31  C   UNL     1       1.452   4.114  19.178  0.00  0.00    +0.000 C 
ENDBRANCH  25  26
ENDBRANCH   8  25
TORSDOF 5
ENDMDL
MODEL 6
REMARK VINA RESULT:      -7.6      1.988      6.513
REMARK  Name = 
REMARK  7 active torsions:
REMARK  status: ('A' for Active; 'I' for Inactive)
REMARK    1  A    between atoms: C_1  and  C_2
REMARK    2  A    between atoms: C_2  and  C_3
REMARK    3  A    between atoms: C_2  and  N_4
REMARK    4  A    between atoms: C_6  and  C_7
REMARK    5  A    between atoms: C_14  and  O_15
REMARK    6  A    between atoms: O_15  and  C_16
REMARK    7  A    between atoms: C_24  and  C_25
REMARK                            x       y       z     vdW  Elec       q    Type
REMARK                         _______ _______ _______ _____ _____    ______ ____
ROOT
ATOM      1  C   UNL     1       4.659   7.056  17.222  0.00  0.00    +0.000 A 
ATOM      2  N   UNL     1       5.776   7.795  17.064  0.00  0.00    +0.000 NA
ATOM      3  N   UNL     1       6.631   6.967  16.465  0.00  0.00    +0.000 N 
ATOM      4  C   UNL     1       6.089   5.755  16.159  0.00  0.00    +0.000 A 
ATOM      5  C   UNL     1       6.553   4.693  15.400  0.00  0.00    +0.000 A 
ATOM      6  C   UNL     1       6.017   3.479  15.765  0.00  0.00    +0.000 A 
ATOM      7  N   UNL     1       4.864   3.352  16.440  0.00  0.00    +0.000 NA
ATOM      8  C   UNL     1       4.207   4.470  16.852  0.00  0.00    +0.000 A 
ATOM      9  C   UNL     1       4.862   5.708  16.818  0.00  0.00    +0.000 A 
ATOM     10  H   UNL     1       7.598   7.261  16.370  0.00  0.00    +0.000 HD
ENDROOT
BRANCH   1  13
ATOM     11  N   UNL     1       1.886   8.018  19.365  0.00  0.00    +0.000 N 
ATOM     12  C   UNL     1       3.017   7.266  19.067  0.00  0.00    +0.000 A 
ATOM     13  C   UNL     1       3.473   7.660  17.841  0.00  0.00    +0.000 A 
ATOM     14  C   UNL     1       2.677   8.754  17.429  0.00  0.00    +0.000 A 
ATOM     15  C   UNL     1       1.681   8.989  18.385  0.00  0.00    +0.000 A 
BRANCH  15  16
ATOM     16  C   UNL     1       0.569   9.921  18.330  0.00  0.00    +0.000 C 
ATOM     17  O   UNL     1      -0.542   9.593  17.887  0.00  0.00    +0.000 OA
ATOM     18  N   UNL     1       0.752  11.227  18.739  0.00  0.00    +0.000 N 
ATOM     19  C   UNL     1      -0.326  12.200  18.891  0.00  0.00    +0.000 C 
ATOM     20  C   UNL     1       0.715  13.110  19.540  0.00  0.00    +0.000 C 
ATOM     21  C   UNL     1       1.555  11.846  19.774  0.00  0.00    +0.000 C 
ENDBRANCH  15  16
BRANCH  11  23
ATOM     22  C   UNL     1       1.325   6.293  21.034  0.00  0.00    +0.000 C 
ATOM     23  C   UNL     1       1.109   7.742  20.575  0.00  0.00    +0.000 C 
ATOM     24  C   UNL     1       1.427   8.751  21.686  0.00  0.00    +0.000 C 
ENDBRANCH  11  23
ENDBRANCH   1  13
BRANCH   8  25
ATOM     25  O   UNL     1       2.949   4.346  17.382  0.00  0.00    +0.000 OA
BRANCH  25  26
ATOM     26  C   UNL     1       2.735   3.240  18.283  0.00  0.00    +0.000 C 
ATOM     27  C   UNL     1       1.211   3.131  18.378  0.00  0.00    +0.000 C 
ATOM     28  C   UNL     1       0.706   2.476  19.646  0.00  0.00    +0.000 C 
ATOM     29  O   UNL     1       1.344   3.025  20.795  0.00  0.00    +0.000 OA
ATOM     30  C   UNL     1       2.741   2.758  20.783  0.00  0.00    +0.000 C 
ATOM     31  C   UNL     1       3.410   3.490  19.638  0.00  0.00    +0.000 C 
ENDBRANCH  25  26
ENDBRANCH   8  25
TORSDOF 5
ENDMDL
MODEL 7
REMARK VINA RESULT:      -7.5      2.215      6.407
REMARK  Name = 
REMARK  7 active torsions:
REMARK  status: ('A' for Active; 'I' for Inactive)
REMARK    1  A    between atoms: C_1  and  C_2
REMARK    2  A    between atoms: C_2  and  C_3
REMARK    3  A    between atoms: C_2  and  N_4
REMARK    4  A    between atoms: C_6  and  C_7
REMARK    5  A    between atoms: C_14  and  O_15
REMARK    6  A    between atoms: O_15  and  C_16
REMARK    7  A    between atoms: C_24  and  C_25
REMARK                            x       y       z     vdW  Elec       q    Type
REMARK                         _______ _______ _______ _____ _____    ______ ____
ROOT
ATOM      1  C   UNL     1       3.421   6.992  17.869  0.00  0.00    +0.000 A 
ATOM      2  N   UNL     1       4.650   7.394  17.487  0.00  0.00    +0.000 NA
ATOM      3  N   UNL     1       5.235   6.280  17.049  0.00  0.00    +0.000 N 
ATOM      4  C   UNL     1       4.411   5.195  17.057  0.00  0.00    +0.000 A 
ATOM      5  C   UNL     1       4.549   3.918  16.537  0.00  0.00    +0.000 A 
ATOM      6  C   UNL     1       3.800   2.970  17.198  0.00  0.00    +0.000 A 
ATOM      7  N   UNL     1       2.724   3.266  17.945  0.00  0.00    +0.000 NA
ATOM      8  C   UNL     1       2.376   4.569  18.124  0.00  0.00    +0.000 A 
ATOM      9  C   UNL     1       3.279   5.581  17.774  0.00  0.00    +0.000 A 
ATOM     10  H   UNL     1       6.228   6.310  16.839  0.00  0.00    +0.000 HD
ENDROOT
BRANCH   1  13
ATOM     11  N   UNL     1       1.169   9.014  19.879  0.00  0.00    +0.000 N 
ATOM     12  C   UNL     1       2.070   7.971  19.702  0.00  0.00    +0.000 A 
ATOM     13  C   UNL     1       2.468   7.976  18.396  0.00  0.00    +0.000 A 
ATOM     14  C   UNL     1       1.890   9.114  17.786  0.00  0.00    +0.000 A 
ATOM     15  C   UNL     1       1.076   9.775  18.714  0.00  0.00    +0.000 A 
BRANCH  15  16
ATOM     16  C   UNL     1       0.195  10.910  18.506  0.00  0.00    +0.000 C 
ATOM     17  O   UNL     1       0.561  12.074  18.724  0.00  0.00    +0.000 OA
ATOM     18  N   UNL     1      -1.107  10.698  18.096  0.00  0.00    +0.000 N 
ATOM     19  C   UNL     1      -2.025  11.759  17.691  0.00  0.00    +0.000 C 
ATOM     20  C   UNL     1      -2.963  10.643  17.237  0.00  0.00    +0.000 C 
ATOM     21  C   UNL     1      -1.733   9.724  17.225  0.00  0.00    +0.000 C 
ENDBRANCH  15  16
BRANCH  11  23
ATOM     22  C   UNL     1      -0.582   8.107  21.358  0.00  0.00    +0.000 C 
ATOM     23  C   UNL     1       0.484   9.193  21.161  0.00  0.00    +0.000 C 
ATOM     24  C   UNL     1       1.481   9.238  22.327  0.00  0.00    +0.000 C 
ENDBRANCH  11  23
ENDBRANCH   1  13
BRANCH   8  25
ATOM     25  O   UNL     1       1.184   4.861  18.734  0.00  0.00    +0.000 OA
BRANCH  25  26
ATOM     26  C   UNL     1       1.030   4.415  20.097  0.00  0.00    +0.000 C 
ATOM     27  C   UNL     1       2.321   4.872  20.783  0.00  0.00    +0.000 C 
ATOM     28  C   UNL     1       2.696   4.072  22.012  0.00  0.00    +0.000 C 
ATOM     29  O   UNL     1       2.610   2.673  21.759  0.00  0.00    +0.000 OA
ATOM     30  C   UNL     1       1.272   2.285  21.471  0.00  0.00    +0.000 C 
ATOM     31  C   UNL     1       0.813   2.898  20.164  0.00  0.00    +0.000 C 
ENDBRANCH  25  26
ENDBRANCH   8  25
TORSDOF 5
ENDMDL
MODEL 8
REMARK VINA RESULT:      -7.4      2.214      6.588
REMARK  Name = 
REMARK  7 active torsions:
REMARK  status: ('A' for Active; 'I' for Inactive)
REMARK    1  A    between atoms: C_1  and  C_2
REMARK    2  A    between atoms: C_2  and  C_3
REMARK    3  A    between atoms: C_2  and  N_4
REMARK    4  A    between atoms: C_6  and  C_7
REMARK    5  A    between atoms: C_14  and  O_15
REMARK    6  A    between atoms: O_15  and  C_16
REMARK    7  A    between atoms: C_24  and  C_25
REMARK                            x       y       z     vdW  Elec       q    Type
REMARK                         _______ _______ _______ _____ _____    ______ ____
ROOT
ATOM      1  C   UNL     1       3.427   6.927  17.892  0.00  0.00    +0.000 A 
ATOM      2  N   UNL     1       4.661   7.356  17.560  0.00  0.00    +0.000 NA
ATOM      3  N   UNL     1       5.282   6.257  17.134  0.00  0.00    +0.000 N 
ATOM      4  C   UNL     1       4.480   5.157  17.102  0.00  0.00    +0.000 A 
ATOM      5  C   UNL     1       4.661   3.888  16.576  0.00  0.00    +0.000 A 
ATOM      6  C   UNL     1       3.906   2.920  17.200  0.00  0.00    +0.000 A 
ATOM      7  N   UNL     1       2.798   3.189  17.909  0.00  0.00    +0.000 NA
ATOM      8  C   UNL     1       2.419   4.484  18.087  0.00  0.00    +0.000 A 
ATOM      9  C   UNL     1       3.315   5.515  17.780  0.00  0.00    +0.000 A 
ATOM     10  H   UNL     1       6.282   6.308  16.961  0.00  0.00    +0.000 HD
ENDROOT
BRANCH   1  13
ATOM     11  N   UNL     1       1.157   8.971  19.862  0.00  0.00    +0.000 N 
ATOM     12  C   UNL     1       2.122   7.981  19.718  0.00  0.00    +0.000 A 
ATOM     13  C   UNL     1       2.437   7.889  18.393  0.00  0.00    +0.000 A 
ATOM     14  C   UNL     1       1.737   8.921  17.723  0.00  0.00    +0.000 A 
ATOM     15  C   UNL     1       0.935   9.609  18.642  0.00  0.00    +0.000 A 
BRANCH  15  16
ATOM     16  C   UNL     1      -0.041  10.655  18.393  0.00  0.00    +0.000 C 
ATOM     17  O   UNL     1      -1.176  10.405  17.961  0.00  0.00    +0.000 OA
ATOM     18  N   UNL     1       0.306  11.976  18.597  0.00  0.00    +0.000 N 
ATOM     19  C   UNL     1      -0.634  13.091  18.547  0.00  0.00    +0.000 C 
ATOM     20  C   UNL     1       0.505  13.953  19.087  0.00  0.00    +0.000 C 
ATOM     21  C   UNL     1       1.163  12.647  19.554  0.00  0.00    +0.000 C 
ENDBRANCH  15  16
BRANCH  11  23
ATOM     22  C   UNL     1      -0.606   8.235  21.420  0.00  0.00    +0.000 C 
ATOM     23  C   UNL     1       0.541   9.223  21.166  0.00  0.00    +0.000 C 
ATOM     24  C   UNL     1       1.584   9.194  22.292  0.00  0.00    +0.000 C 
ENDBRANCH  11  23
ENDBRANCH   1  13
BRANCH   8  25
ATOM     25  O   UNL     1       1.200   4.748  18.655  0.00  0.00    +0.000 OA
BRANCH  25  26
ATOM     26  C   UNL     1       1.018   4.319  20.021  0.00  0.00    +0.000 C 
ATOM     27  C   UNL     1       2.251   4.864  20.747  0.00  0.00    +0.000 C 
ATOM     28  C   UNL     1       2.622   4.111  22.006  0.00  0.00    +0.000 C 
ATOM     29  O   UNL     1       2.629   2.705  21.779  0.00  0.00    +0.000 OA
ATOM     30  C   UNL     1       1.329   2.233  21.447  0.00  0.00    +0.000 C 
ATOM     31  C   UNL     1       0.887   2.793  20.111  0.00  0.00    +0.000 C 
ENDBRANCH  25  26
ENDBRANCH   8  25
TORSDOF 5
ENDMDL
MODEL 9
REMARK VINA RESULT:      -7.4      2.111      6.398
REMARK  Name = 
REMARK  7 active torsions:
REMARK  status: ('A' for Active; 'I' for Inactive)
REMARK    1  A    between atoms: C_1  and  C_2
REMARK    2  A    between atoms: C_2  and  C_3
REMARK    3  A    between atoms: C_2  and  N_4
REMARK    4  A    between atoms: C_6  and  C_7
REMARK    5  A    between atoms: C_14  and  O_15
REMARK    6  A    between atoms: O_15  and  C_16
REMARK    7  A    between atoms: C_24  and  C_25
REMARK                            x       y       z     vdW  Elec       q    Type
REMARK                         _______ _______ _______ _____ _____    ______ ____
ROOT
ATOM      1  C   UNL     1       3.924   7.085  17.449  0.00  0.00    +0.000 A 
ATOM      2  N   UNL     1       4.972   7.768  16.946  0.00  0.00    +0.000 NA
ATOM      3  N   UNL     1       5.666   6.849  16.275  0.00  0.00    +0.000 N 
ATOM      4  C   UNL     1       5.070   5.624  16.257  0.00  0.00    +0.000 A 
ATOM      5  C   UNL     1       5.347   4.465  15.551  0.00  0.00    +0.000 A 
ATOM      6  C   UNL     1       4.913   3.320  16.179  0.00  0.00    +0.000 A 
ATOM      7  N   UNL     1       3.948   3.309  17.113  0.00  0.00    +0.000 NA
ATOM      8  C   UNL     1       3.403   4.487  17.521  0.00  0.00    +0.000 A 
ATOM      9  C   UNL     1       4.030   5.693  17.182  0.00  0.00    +0.000 A 
ATOM     10  H   UNL     1       6.584   7.103  15.924  0.00  0.00    +0.000 HD
ENDROOT
BRANCH   1  13
ATOM     11  N   UNL     1       1.615   8.275  19.991  0.00  0.00    +0.000 N 
ATOM     12  C   UNL     1       2.603   7.417  19.520  0.00  0.00    +0.000 A 
ATOM     13  C   UNL     1       2.913   7.792  18.244  0.00  0.00    +0.000 A 
ATOM     14  C   UNL     1       2.186   8.974  17.966  0.00  0.00    +0.000 A 
ATOM     15  C   UNL     1       1.372   9.286  19.062  0.00  0.00    +0.000 A 
BRANCH  15  16
ATOM     16  C   UNL     1       0.370  10.330  19.183  0.00  0.00    +0.000 C 
ATOM     17  O   UNL     1       0.550  11.335  19.886  0.00  0.00    +0.000 OA
ATOM     18  N   UNL     1      -0.843  10.191  18.537  0.00  0.00    +0.000 N 
ATOM     19  C   UNL     1      -1.851  11.243  18.444  0.00  0.00    +0.000 C 
ATOM     20  C   UNL     1      -2.578  10.329  17.461  0.00  0.00    +0.000 C 
ATOM     21  C   UNL     1      -1.240   9.600  17.275  0.00  0.00    +0.000 C 
ENDBRANCH  15  16
BRANCH  11  23
ATOM     22  C   UNL     1       1.481   9.101  22.309  0.00  0.00    +0.000 C 
ATOM     23  C   UNL     1       1.000   8.050  21.300  0.00  0.00    +0.000 C 
ATOM     24  C   UNL     1      -0.531   8.008  21.200  0.00  0.00    +0.000 C 
ENDBRANCH  11  23
ENDBRANCH   1  13
BRANCH   8  25
ATOM     25  O   UNL     1       2.303   4.463  18.338  0.00  0.00    +0.000 OA
BRANCH  25  26
ATOM     26  C   UNL     1       2.179   3.329  19.221  0.00  0.00    +0.000 C 
ATOM     27  C   UNL     1       1.014   3.703  20.143  0.00  0.00    +0.000 C 
ATOM     28  C   UNL     1       1.027   3.006  21.486  0.00  0.00    +0.000 C 
ATOM     29  O   UNL     1       2.317   3.077  22.086  0.00  0.00    +0.000 OA
ATOM     30  C   UNL     1       3.283   2.379  21.310  0.00  0.00    +0.000 C 
ATOM     31  C   UNL     1       3.489   3.069  19.977  0.00  0.00    +0.000 C 
ENDBRANCH  25  26
ENDBRANCH   8  25
TORSDOF 5
ENDMDL
