MODEL 1
REMARK VINA RESULT:      -6.9      0.000      0.000
REMARK  Name = 
REMARK  2 active torsions:
REMARK  status: ('A' for Active; 'I' for Inactive)
REMARK    1  A    between atoms: C_2  and  C_3
REMARK    2  A    between atoms: C_11  and  C_13
REMARK                            x       y       z     vdW  Elec       q    Type
REMARK                         _______ _______ _______ _____ _____    ______ ____
ROOT
ATOM      1  O   UNL     1       7.463   5.379  15.367  0.00  0.00    +0.000 OA
ATOM      2  C   UNL     1       6.986   5.608  16.485  0.00  0.00    +0.000 C 
ATOM      3  N   UNL     1       5.895   4.868  16.963  0.00  0.00    +0.000 N 
ATOM      4  C   UNL     1       5.184   5.114  18.221  0.00  0.00    +0.000 C 
ATOM      5  C   UNL     1       3.683   5.261  17.990  0.00  0.00    +0.000 C 
ATOM      6  C   UNL     1       3.115   4.075  17.211  0.00  0.00    +0.000 C 
ATOM      7  F   UNL     1       1.850   4.413  16.801  0.00  0.00    +0.000 F 
ATOM      8  C   UNL     1       3.914   3.904  15.920  0.00  0.00    +0.000 C 
ATOM      9  C   UNL     1       5.404   3.750  16.163  0.00  0.00    +0.000 C 
ENDROOT
BRANCH   6  10
ATOM     10  C   UNL     1       3.107   2.817  18.137  0.00  0.00    +0.000 C 
ATOM     11  O   UNL     1       3.844   1.861  17.903  0.00  0.00    +0.000 OA
ATOM     12  N   UNL     1       2.379   2.858  19.322  0.00  0.00    +0.000 N 
ATOM     13  C   UNL     1       2.584   1.821  20.338  0.00  0.00    +0.000 C 
ATOM     14  C   UNL     1       2.880   2.482  21.692  0.00  0.00    +0.000 C 
ATOM     15  O   UNL     1       1.846   3.411  22.064  0.00  0.00    +0.000 OA
ATOM     16  C   UNL     1       1.683   4.433  21.068  0.00  0.00    +0.000 C 
ATOM     17  C   UNL     1       1.339   3.815  19.706  0.00  0.00    +0.000 C 
ENDBRANCH   6  10
BRANCH   2  18
ATOM     18  C   UNL     1       7.527   6.670  17.308  0.00  0.00    +0.000 A 
ATOM     19  C   UNL     1       8.104   6.628  18.564  0.00  0.00    +0.000 A 
ATOM     20  C   UNL     1       8.408   7.963  18.923  0.00  0.00    +0.000 A 
ATOM     21  C   UNL     1       7.995   8.744  17.871  0.00  0.00    +0.000 A 
ATOM     22  O   UNL     1       7.435   7.977  16.906  0.00  0.00    +0.000 OA
ENDBRANCH   2  18
TORSDOF 2
ENDMDL
MODEL 2
REMARK VINA RESULT:      -6.6      2.981      5.020
REMARK  Name = 
REMARK  2 active torsions:
REMARK  status: ('A' for Active; 'I' for Inactive)
REMARK    1  A    between atoms: C_2  and  C_3
REMARK    2  A    between atoms: C_11  and  C_13
REMARK                            x       y       z     vdW  Elec       q    Type
REMARK                         _______ _______ _______ _____ _____    ______ ____
ROOT
ATOM      1  O   UNL     1       7.860   5.519  12.916  0.00  0.00    +0.000 OA
ATOM      2  C   UNL     1       6.970   4.738  13.273  0.00  0.00    +0.000 C 
ATOM      3  N   UNL     1       6.349   4.885  14.521  0.00  0.00    +0.000 N 
ATOM      4  C   UNL     1       5.358   3.967  15.093  0.00  0.00    +0.000 C 
ATOM      5  C   UNL     1       5.770   3.508  16.489  0.00  0.00    +0.000 C 
ATOM      6  C   UNL     1       6.077   4.693  17.403  0.00  0.00    +0.000 C 
ATOM      7  F   UNL     1       6.704   4.204  18.522  0.00  0.00    +0.000 F 
ATOM      8  C   UNL     1       7.117   5.583  16.726  0.00  0.00    +0.000 C 
ATOM      9  C   UNL     1       6.693   6.041  15.343  0.00  0.00    +0.000 C 
ENDROOT
BRANCH   6  10
ATOM     10  C   UNL     1       4.741   5.418  17.760  0.00  0.00    +0.000 C 
ATOM     11  O   UNL     1       4.550   6.585  17.423  0.00  0.00    +0.000 OA
ATOM     12  N   UNL     1       3.701   4.679  18.316  0.00  0.00    +0.000 N 
ATOM     13  C   UNL     1       2.355   5.257  18.389  0.00  0.00    +0.000 C 
ATOM     14  C   UNL     1       1.346   4.285  17.759  0.00  0.00    +0.000 C 
ATOM     15  O   UNL     1       1.414   2.984  18.370  0.00  0.00    +0.000 OA
ATOM     16  C   UNL     1       2.733   2.427  18.263  0.00  0.00    +0.000 C 
ATOM     17  C   UNL     1       3.768   3.347  18.922  0.00  0.00    +0.000 C 
ENDBRANCH   6  10
BRANCH   2  18
ATOM     18  C   UNL     1       6.578   3.636  12.420  0.00  0.00    +0.000 A 
ATOM     19  C   UNL     1       5.322   3.149  12.102  0.00  0.00    +0.000 A 
ATOM     20  C   UNL     1       5.517   2.021  11.268  0.00  0.00    +0.000 A 
ATOM     21  C   UNL     1       6.876   1.880  11.129  0.00  0.00    +0.000 A 
ATOM     22  O   UNL     1       7.525   2.830  11.844  0.00  0.00    +0.000 OA
ENDBRANCH   2  18
TORSDOF 2
ENDMDL
MODEL 3
REMARK VINA RESULT:      -6.6      3.982      6.592
REMARK  Name = 
REMARK  2 active torsions:
REMARK  status: ('A' for Active; 'I' for Inactive)
REMARK    1  A    between atoms: C_2  and  C_3
REMARK    2  A    between atoms: C_11  and  C_13
REMARK                            x       y       z     vdW  Elec       q    Type
REMARK                         _______ _______ _______ _____ _____    ______ ____
ROOT
ATOM      1  O   UNL     1       0.730  10.138  18.610  0.00  0.00    +0.000 OA
ATOM      2  C   UNL     1       1.036   9.360  19.522  0.00  0.00    +0.000 C 
ATOM      3  N   UNL     1       1.963   8.332  19.303  0.00  0.00    +0.000 N 
ATOM      4  C   UNL     1       2.328   7.293  20.271  0.00  0.00    +0.000 C 
ATOM      5  C   UNL     1       2.169   5.898  19.673  0.00  0.00    +0.000 C 
ATOM      6  C   UNL     1       2.921   5.764  18.349  0.00  0.00    +0.000 C 
ATOM      7  F   UNL     1       2.501   4.606  17.746  0.00  0.00    +0.000 F 
ATOM      8  C   UNL     1       2.471   6.882  17.410  0.00  0.00    +0.000 C 
ATOM      9  C   UNL     1       2.642   8.264  18.012  0.00  0.00    +0.000 C 
ENDROOT
BRANCH   6  10
ATOM     10  C   UNL     1       4.456   5.743  18.638  0.00  0.00    +0.000 C 
ATOM     11  O   UNL     1       4.878   5.519  19.771  0.00  0.00    +0.000 OA
ATOM     12  N   UNL     1       5.343   5.813  17.569  0.00  0.00    +0.000 N 
ATOM     13  C   UNL     1       6.762   5.505  17.779  0.00  0.00    +0.000 C 
ATOM     14  C   UNL     1       7.212   4.449  16.758  0.00  0.00    +0.000 C 
ATOM     15  O   UNL     1       6.940   4.869  15.408  0.00  0.00    +0.000 OA
ATOM     16  C   UNL     1       5.542   5.139  15.220  0.00  0.00    +0.000 C 
ATOM     17  C   UNL     1       5.061   6.224  16.192  0.00  0.00    +0.000 C 
ENDBRANCH   6  10
BRANCH   2  18
ATOM     18  C   UNL     1       0.416   9.479  20.825  0.00  0.00    +0.000 A 
ATOM     19  C   UNL     1      -0.234   8.534  21.600  0.00  0.00    +0.000 A 
ATOM     20  C   UNL     1      -0.695   9.201  22.761  0.00  0.00    +0.000 A 
ATOM     21  C   UNL     1      -0.308  10.512  22.627  0.00  0.00    +0.000 A 
ATOM     22  O   UNL     1       0.335  10.696  21.449  0.00  0.00    +0.000 OA
ENDBRANCH   2  18
TORSDOF 2
ENDMDL
MODEL 4
REMARK VINA RESULT:      -6.5      2.483      4.197
REMARK  Name = 
REMARK  2 active torsions:
REMARK  status: ('A' for Active; 'I' for Inactive)
REMARK    1  A    between atoms: C_2  and  C_3
REMARK    2  A    between atoms: C_11  and  C_13
REMARK                            x       y       z     vdW  Elec       q    Type
REMARK                         _______ _______ _______ _____ _____    ______ ____
ROOT
ATOM      1  O   UNL     1       7.826   5.518  14.692  0.00  0.00    +0.000 OA
ATOM      2  C   UNL     1       6.744   4.924  14.770  0.00  0.00    +0.000 C 
ATOM      3  N   UNL     1       6.011   4.927  15.966  0.00  0.00    +0.000 N 
ATOM      4  C   UNL     1       4.773   4.180  16.208  0.00  0.00    +0.000 C 
ATOM      5  C   UNL     1       4.881   3.320  17.464  0.00  0.00    +0.000 C 
ATOM      6  C   UNL     1       5.322   4.144  18.673  0.00  0.00    +0.000 C 
ATOM      7  F   UNL     1       5.670   3.268  19.670  0.00  0.00    +0.000 F 
ATOM      8  C   UNL     1       6.616   4.878  18.326  0.00  0.00    +0.000 C 
ATOM      9  C   UNL     1       6.494   5.736  17.081  0.00  0.00    +0.000 C 
ENDROOT
BRANCH   6  10
ATOM     10  C   UNL     1       4.147   5.077  19.106  0.00  0.00    +0.000 C 
ATOM     11  O   UNL     1       3.984   6.172  18.569  0.00  0.00    +0.000 OA
ATOM     12  N   UNL     1       3.189   4.589  19.989  0.00  0.00    +0.000 N 
ATOM     13  C   UNL     1       1.936   5.325  20.183  0.00  0.00    +0.000 C 
ATOM     14  C   UNL     1       0.747   4.376  19.971  0.00  0.00    +0.000 C 
ATOM     15  O   UNL     1       0.836   3.219  20.822  0.00  0.00    +0.000 OA
ATOM     16  C   UNL     1       2.058   2.499  20.595  0.00  0.00    +0.000 C 
ATOM     17  C   UNL     1       3.274   3.401  20.842  0.00  0.00    +0.000 C 
ENDBRANCH   6  10
BRANCH   2  18
ATOM     18  C   UNL     1       6.231   4.185  13.636  0.00  0.00    +0.000 A 
ATOM     19  C   UNL     1       6.896   3.540  12.608  0.00  0.00    +0.000 A 
ATOM     20  C   UNL     1       5.906   3.026  11.736  0.00  0.00    +0.000 A 
ATOM     21  C   UNL     1       4.697   3.390  12.275  0.00  0.00    +0.000 A 
ATOM     22  O   UNL     1       4.882   4.115  13.404  0.00  0.00    +0.000 OA
ENDBRANCH   2  18
TORSDOF 2
ENDMDL
MODEL 5
REMARK VINA RESULT:      -6.4      5.960      7.895
REMARK  Name = 
REMARK  2 active torsions:
REMARK  status: ('A' for Active; 'I' for Inactive)
REMARK    1  A    between atoms: C_2  and  C_3
REMARK    2  A    between atoms: C_11  and  C_13
REMARK                            x       y       z     vdW  Elec       q    Type
REMARK                         _______ _______ _______ _____ _____    ______ ____
ROOT
ATOM      1  O   UNL     1       1.870   5.901  20.876  0.00  0.00    +0.000 OA
ATOM      2  C   UNL     1       2.238   6.365  19.789  0.00  0.00    +0.000 C 
ATOM      3  N   UNL     1       2.054   7.723  19.493  0.00  0.00    +0.000 N 
ATOM      4  C   UNL     1       2.355   8.363  18.208  0.00  0.00    +0.000 C 
ATOM      5  C   UNL     1       1.148   9.126  17.673  0.00  0.00    +0.000 C 
ATOM      6  C   UNL     1       0.598  10.107  18.708  0.00  0.00    +0.000 C 
ATOM      7  F   UNL     1      -0.630  10.532  18.268  0.00  0.00    +0.000 F 
ATOM      8  C   UNL     1       0.311   9.349  20.003  0.00  0.00    +0.000 C 
ATOM      9  C   UNL     1       1.521   8.601  20.531  0.00  0.00    +0.000 C 
ENDROOT
BRANCH   6  10
ATOM     10  C   UNL     1       1.600  11.294  18.864  0.00  0.00    +0.000 C 
ATOM     11  O   UNL     1       2.513  11.456  18.055  0.00  0.00    +0.000 OA
ATOM     12  N   UNL     1       1.351  12.263  19.831  0.00  0.00    +0.000 N 
ATOM     13  C   UNL     1       2.100  13.524  19.807  0.00  0.00    +0.000 C 
ATOM     14  C   UNL     1       1.116  14.703  19.838  0.00  0.00    +0.000 C 
ATOM     15  O   UNL     1       0.226  14.620  20.965  0.00  0.00    +0.000 OA
ATOM     16  C   UNL     1      -0.515  13.390  20.952  0.00  0.00    +0.000 C 
ATOM     17  C   UNL     1       0.432  12.183  20.968  0.00  0.00    +0.000 C 
ENDBRANCH   6  10
BRANCH   2  18
ATOM     18  C   UNL     1       2.836   5.504  18.791  0.00  0.00    +0.000 A 
ATOM     19  C   UNL     1       2.252   4.633  17.889  0.00  0.00    +0.000 A 
ATOM     20  C   UNL     1       3.305   4.002  17.184  0.00  0.00    +0.000 A 
ATOM     21  C   UNL     1       4.470   4.517  17.698  0.00  0.00    +0.000 A 
ATOM     22  O   UNL     1       4.199   5.401  18.688  0.00  0.00    +0.000 OA
ENDBRANCH   2  18
TORSDOF 2
ENDMDL
MODEL 6
REMARK VINA RESULT:      -6.2      2.319      3.842
REMARK  Name = 
REMARK  2 active torsions:
REMARK  status: ('A' for Active; 'I' for Inactive)
REMARK    1  A    between atoms: C_2  and  C_3
REMARK    2  A    between atoms: C_11  and  C_13
REMARK                            x       y       z     vdW  Elec       q    Type
REMARK                         _______ _______ _______ _____ _____    ______ ____
ROOT
ATOM      1  O   UNL     1       7.744   6.409  15.982  0.00  0.00    +0.000 OA
ATOM      2  C   UNL     1       6.833   5.594  15.789  0.00  0.00    +0.000 C 
ATOM      3  N   UNL     1       5.928   5.278  16.813  0.00  0.00    +0.000 N 
ATOM      4  C   UNL     1       4.876   4.260  16.735  0.00  0.00    +0.000 C 
ATOM      5  C   UNL     1       4.968   3.277  17.899  0.00  0.00    +0.000 C 
ATOM      6  C   UNL     1       4.994   4.001  19.245  0.00  0.00    +0.000 C 
ATOM      7  F   UNL     1       5.362   3.089  20.201  0.00  0.00    +0.000 F 
ATOM      8  C   UNL     1       6.121   5.032  19.230  0.00  0.00    +0.000 C 
ATOM      9  C   UNL     1       6.014   6.009  18.074  0.00  0.00    +0.000 C 
ENDROOT
BRANCH   6  10
ATOM     10  C   UNL     1       3.578   4.596  19.527  0.00  0.00    +0.000 C 
ATOM     11  O   UNL     1       3.385   5.810  19.475  0.00  0.00    +0.000 OA
ATOM     12  N   UNL     1       2.500   3.729  19.675  0.00  0.00    +0.000 N 
ATOM     13  C   UNL     1       1.132   4.257  19.649  0.00  0.00    +0.000 C 
ATOM     14  C   UNL     1       0.303   3.478  18.617  0.00  0.00    +0.000 C 
ATOM     15  O   UNL     1       0.334   2.063  18.873  0.00  0.00    +0.000 OA
ATOM     16  C   UNL     1       1.681   1.564  18.867  0.00  0.00    +0.000 C 
ATOM     17  C   UNL     1       2.534   2.285  19.918  0.00  0.00    +0.000 C 
ENDBRANCH   6  10
BRANCH   2  18
ATOM     18  C   UNL     1       6.706   4.927  14.510  0.00  0.00    +0.000 A 
ATOM     19  C   UNL     1       5.929   3.846  14.134  0.00  0.00    +0.000 A 
ATOM     20  C   UNL     1       6.232   3.573  12.778  0.00  0.00    +0.000 A 
ATOM     21  C   UNL     1       7.178   4.496  12.406  0.00  0.00    +0.000 A 
ATOM     22  O   UNL     1       7.494   5.297  13.451  0.00  0.00    +0.000 OA
ENDBRANCH   2  18
TORSDOF 2
ENDMDL
MODEL 7
REMARK VINA RESULT:      -6.2      1.180      1.392
REMARK  Name = 
REMARK  2 active torsions:
REMARK  status: ('A' for Active; 'I' for Inactive)
REMARK    1  A    between atoms: C_2  and  C_3
REMARK    2  A    between atoms: C_11  and  C_13
REMARK                            x       y       z     vdW  Elec       q    Type
REMARK                         _______ _______ _______ _____ _____    ______ ____
ROOT
ATOM      1  O   UNL     1       7.901   6.279  15.779  0.00  0.00    +0.000 OA
ATOM      2  C   UNL     1       7.402   6.555  16.877  0.00  0.00    +0.000 C 
ATOM      3  N   UNL     1       6.435   5.719  17.453  0.00  0.00    +0.000 N 
ATOM      4  C   UNL     1       5.704   5.992  18.694  0.00  0.00    +0.000 C 
ATOM      5  C   UNL     1       4.196   5.893  18.482  0.00  0.00    +0.000 C 
ATOM      6  C   UNL     1       3.804   4.561  17.844  0.00  0.00    +0.000 C 
ATOM      7  F   UNL     1       2.500   4.665  17.429  0.00  0.00    +0.000 F 
ATOM      8  C   UNL     1       4.611   4.370  16.562  0.00  0.00    +0.000 C 
ATOM      9  C   UNL     1       6.109   4.462  16.786  0.00  0.00    +0.000 C 
ENDROOT
BRANCH   6  10
ATOM     10  C   UNL     1       3.987   3.422  18.897  0.00  0.00    +0.000 C 
ATOM     11  O   UNL     1       5.111   3.053  19.236  0.00  0.00    +0.000 OA
ATOM     12  N   UNL     1       2.868   2.942  19.571  0.00  0.00    +0.000 N 
ATOM     13  C   UNL     1       3.041   2.093  20.755  0.00  0.00    +0.000 C 
ATOM     14  C   UNL     1       2.229   2.674  21.923  0.00  0.00    +0.000 C 
ATOM     15  O   UNL     1       0.843   2.843  21.571  0.00  0.00    +0.000 OA
ATOM     16  C   UNL     1       0.698   3.698  20.427  0.00  0.00    +0.000 C 
ATOM     17  C   UNL     1       1.459   3.129  19.222  0.00  0.00    +0.000 C 
ENDBRANCH   6  10
BRANCH   2  18
ATOM     18  C   UNL     1       7.785   7.766  17.572  0.00  0.00    +0.000 A 
ATOM     19  C   UNL     1       7.509   9.091  17.287  0.00  0.00    +0.000 A 
ATOM     20  C   UNL     1       8.175   9.871  18.263  0.00  0.00    +0.000 A 
ATOM     21  C   UNL     1       8.824   8.980  19.083  0.00  0.00    +0.000 A 
ATOM     22  O   UNL     1       8.621   7.711  18.657  0.00  0.00    +0.000 OA
ENDBRANCH   2  18
TORSDOF 2
ENDMDL
MODEL 8
REMARK VINA RESULT:      -6.2      2.653      4.556
REMARK  Name = 
REMARK  2 active torsions:
REMARK  status: ('A' for Active; 'I' for Inactive)
REMARK    1  A    between atoms: C_2  and  C_3
REMARK    2  A    between atoms: C_11  and  C_13
REMARK                            x       y       z     vdW  Elec       q    Type
REMARK                         _______ _______ _______ _____ _____    ______ ____
ROOT
ATOM      1  O   UNL     1       7.757   5.516  13.798  0.00  0.00    +0.000 OA
ATOM      2  C   UNL     1       6.734   4.860  14.031  0.00  0.00    +0.000 C 
ATOM      3  N   UNL     1       6.104   4.937  15.281  0.00  0.00    +0.000 N 
ATOM      4  C   UNL     1       4.952   4.136  15.705  0.00  0.00    +0.000 C 
ATOM      5  C   UNL     1       5.230   3.422  17.025  0.00  0.00    +0.000 C 
ATOM      6  C   UNL     1       5.703   4.396  18.103  0.00  0.00    +0.000 C 
ATOM      7  F   UNL     1       6.198   3.655  19.146  0.00  0.00    +0.000 F 
ATOM      8  C   UNL     1       6.903   5.178  17.571  0.00  0.00    +0.000 C 
ATOM      9  C   UNL     1       6.612   5.890  16.263  0.00  0.00    +0.000 C 
ENDROOT
BRANCH   6  10
ATOM     10  C   UNL     1       4.498   5.286  18.545  0.00  0.00    +0.000 C 
ATOM     11  O   UNL     1       4.308   6.387  18.031  0.00  0.00    +0.000 OA
ATOM     12  N   UNL     1       3.547   4.751  19.408  0.00  0.00    +0.000 N 
ATOM     13  C   UNL     1       2.271   5.447  19.607  0.00  0.00    +0.000 C 
ATOM     14  C   UNL     1       1.112   4.469  19.363  0.00  0.00    +0.000 C 
ATOM     15  O   UNL     1       1.226   3.296  20.190  0.00  0.00    +0.000 OA
ATOM     16  C   UNL     1       2.471   2.617  19.958  0.00  0.00    +0.000 C 
ATOM     17  C   UNL     1       3.659   3.548  20.236  0.00  0.00    +0.000 C 
ENDBRANCH   6  10
BRANCH   2  18
ATOM     18  C   UNL     1       6.189   3.972  13.025  0.00  0.00    +0.000 A 
ATOM     19  C   UNL     1       4.920   3.903  12.480  0.00  0.00    +0.000 A 
ATOM     20  C   UNL     1       4.917   2.813  11.576  0.00  0.00    +0.000 A 
ATOM     21  C   UNL     1       6.180   2.276  11.624  0.00  0.00    +0.000 A 
ATOM     22  O   UNL     1       6.946   2.948  12.517  0.00  0.00    +0.000 OA
ENDBRANCH   2  18
TORSDOF 2
ENDMDL
MODEL 9
REMARK VINA RESULT:      -6.1      3.200      4.409
REMARK  Name = 
REMARK  2 active torsions:
REMARK  status: ('A' for Active; 'I' for Inactive)
REMARK    1  A    between atoms: C_2  and  C_3
REMARK    2  A    between atoms: C_11  and  C_13
REMARK                            x       y       z     vdW  Elec       q    Type
REMARK                         _______ _______ _______ _____ _____    ______ ____
ROOT
ATOM      1  O   UNL     1       3.679   9.165  17.396  0.00  0.00    +0.000 OA
ATOM      2  C   UNL     1       2.852   8.448  17.974  0.00  0.00    +0.000 C 
ATOM      3  N   UNL     1       3.106   7.083  18.175  0.00  0.00    +0.000 N 
ATOM      4  C   UNL     1       2.166   6.118  18.753  0.00  0.00    +0.000 C 
ATOM      5  C   UNL     1       1.981   4.909  17.840  0.00  0.00    +0.000 C 
ATOM      6  C   UNL     1       3.321   4.279  17.463  0.00  0.00    +0.000 C 
ATOM      7  F   UNL     1       3.093   3.400  16.434  0.00  0.00    +0.000 F 
ATOM      8  C   UNL     1       4.225   5.357  16.868  0.00  0.00    +0.000 C 
ATOM      9  C   UNL     1       4.409   6.549  17.788  0.00  0.00    +0.000 C 
ENDROOT
BRANCH   6  10
ATOM     10  C   UNL     1       3.913   3.560  18.717  0.00  0.00    +0.000 C 
ATOM     11  O   UNL     1       5.083   3.744  19.052  0.00  0.00    +0.000 OA
ATOM     12  N   UNL     1       3.059   2.841  19.547  0.00  0.00    +0.000 N 
ATOM     13  C   UNL     1       3.524   2.407  20.869  0.00  0.00    +0.000 C 
ATOM     14  C   UNL     1       2.520   2.863  21.939  0.00  0.00    +0.000 C 
ATOM     15  O   UNL     1       1.190   2.397  21.649  0.00  0.00    +0.000 OA
ATOM     16  C   UNL     1       0.747   2.856  20.363  0.00  0.00    +0.000 C 
ATOM     17  C   UNL     1       1.699   2.382  19.257  0.00  0.00    +0.000 C 
ENDBRANCH   6  10
BRANCH   2  18
ATOM     18  C   UNL     1       1.592   9.000  18.425  0.00  0.00    +0.000 A 
ATOM     19  C   UNL     1       0.527   9.512  17.705  0.00  0.00    +0.000 A 
ATOM     20  C   UNL     1      -0.427   9.966  18.648  0.00  0.00    +0.000 A 
ATOM     21  C   UNL     1       0.111   9.712  19.886  0.00  0.00    +0.000 A 
ATOM     22  O   UNL     1       1.340   9.158  19.763  0.00  0.00    +0.000 OA
ENDBRANCH   2  18
TORSDOF 2
ENDMDL
