MODEL 1
REMARK VINA RESULT:      -7.3      0.000      0.000
REMARK  Name = 
REMARK  1 active torsions:
REMARK  status: ('A' for Active; 'I' for Inactive)
REMARK    1  A    between atoms: C_5  and  C_6
REMARK                            x       y       z     vdW  Elec       q    Type
REMARK                         _______ _______ _______ _____ _____    ______ ____
ROOT
ATOM      1  C   UNL     1       1.023   3.329  20.737  0.00  0.00    +0.000 A 
ATOM      2  C   UNL     1       1.418   4.670  20.601  0.00  0.00    +0.000 A 
ATOM      3  C   UNL     1       2.382   5.015  19.641  0.00  0.00    +0.000 A 
ATOM      4  N   UNL     1       2.918   4.025  18.865  0.00  0.00    +0.000 N 
ATOM      5  C   UNL     1       3.876   4.042  17.910  0.00  0.00    +0.000 A 
ATOM      6  N   UNL     1       4.039   2.784  17.412  0.00  0.00    +0.000 NA
ATOM      7  N   UNL     1       3.203   1.979  18.080  0.00  0.00    +0.000 NA
ATOM      8  C   UNL     1       2.540   2.747  18.965  0.00  0.00    +0.000 A 
ATOM      9  C   UNL     1       1.584   2.340  19.902  0.00  0.00    +0.000 A 
ENDROOT
BRANCH   5  10
ATOM     10  C   UNL     1       4.671   5.285  17.538  0.00  0.00    +0.000 C 
ATOM     11  C   UNL     1       5.356   5.443  16.142  0.00  0.00    +0.000 C 
ATOM     12  C   UNL     1       6.606   4.559  15.930  0.00  0.00    +0.000 C 
ATOM     13  C   UNL     1       7.526   4.554  17.163  0.00  0.00    +0.000 C 
ATOM     14  N   UNL     1       6.740   4.286  18.370  0.00  0.00    +0.000 NA
ATOM     15  C   UNL     1       5.799   5.398  18.580  0.00  0.00    +0.000 C 
ATOM     16  H   UNL     1       7.377   4.207  19.192  0.00  0.00    +0.000 HD
ENDBRANCH   5  10
TORSDOF 1
ENDMDL
MODEL 2
REMARK VINA RESULT:      -7.2      1.028      1.118
REMARK  Name = 
REMARK  1 active torsions:
REMARK  status: ('A' for Active; 'I' for Inactive)
REMARK    1  A    between atoms: C_5  and  C_6
REMARK                            x       y       z     vdW  Elec       q    Type
REMARK                         _______ _______ _______ _____ _____    ______ ____
ROOT
ATOM      1  C   UNL     1       1.093   3.797  20.714  0.00  0.00    +0.000 A 
ATOM      2  C   UNL     1       1.950   4.891  20.921  0.00  0.00    +0.000 A 
ATOM      3  C   UNL     1       2.852   5.264  19.913  0.00  0.00    +0.000 A 
ATOM      4  N   UNL     1       2.876   4.540  18.752  0.00  0.00    +0.000 N 
ATOM      5  C   UNL     1       3.650   4.630  17.646  0.00  0.00    +0.000 A 
ATOM      6  N   UNL     1       3.261   3.681  16.747  0.00  0.00    +0.000 NA
ATOM      7  N   UNL     1       2.267   2.983  17.308  0.00  0.00    +0.000 NA
ATOM      8  C   UNL     1       2.055   3.511  18.529  0.00  0.00    +0.000 A 
ATOM      9  C   UNL     1       1.133   3.090  19.493  0.00  0.00    +0.000 A 
ENDROOT
BRANCH   5  10
ATOM     10  C   UNL     1       4.809   5.605  17.506  0.00  0.00    +0.000 C 
ATOM     11  C   UNL     1       5.099   6.361  16.168  0.00  0.00    +0.000 C 
ATOM     12  C   UNL     1       5.682   5.479  15.040  0.00  0.00    +0.000 C 
ATOM     13  C   UNL     1       6.776   4.528  15.557  0.00  0.00    +0.000 C 
ATOM     14  N   UNL     1       6.299   3.823  16.750  0.00  0.00    +0.000 NA
ATOM     15  C   UNL     1       6.083   4.803  17.826  0.00  0.00    +0.000 C 
ATOM     16  H   UNL     1       7.013   3.124  17.052  0.00  0.00    +0.000 HD
ENDBRANCH   5  10
TORSDOF 1
ENDMDL
MODEL 3
REMARK VINA RESULT:      -7.1      1.463      1.720
REMARK  Name = 
REMARK  1 active torsions:
REMARK  status: ('A' for Active; 'I' for Inactive)
REMARK    1  A    between atoms: C_5  and  C_6
REMARK                            x       y       z     vdW  Elec       q    Type
REMARK                         _______ _______ _______ _____ _____    ______ ____
ROOT
ATOM      1  C   UNL     1       1.200   2.944  18.838  0.00  0.00    +0.000 A 
ATOM      2  C   UNL     1       1.321   3.993  17.912  0.00  0.00    +0.000 A 
ATOM      3  C   UNL     1       2.576   4.581  17.692  0.00  0.00    +0.000 A 
ATOM      4  N   UNL     1       3.652   4.115  18.398  0.00  0.00    +0.000 N 
ATOM      5  C   UNL     1       4.948   4.504  18.433  0.00  0.00    +0.000 A 
ATOM      6  N   UNL     1       5.636   3.698  19.291  0.00  0.00    +0.000 NA
ATOM      7  N   UNL     1       4.760   2.829  19.811  0.00  0.00    +0.000 NA
ATOM      8  C   UNL     1       3.560   3.105  19.267  0.00  0.00    +0.000 A 
ATOM      9  C   UNL     1       2.338   2.477  19.530  0.00  0.00    +0.000 A 
ENDROOT
BRANCH   5  10
ATOM     10  C   UNL     1       5.487   5.706  17.672  0.00  0.00    +0.000 C 
ATOM     11  C   UNL     1       5.072   6.005  16.195  0.00  0.00    +0.000 C 
ATOM     12  C   UNL     1       5.679   5.046  15.146  0.00  0.00    +0.000 C 
ATOM     13  C   UNL     1       7.169   4.768  15.410  0.00  0.00    +0.000 C 
ATOM     14  N   UNL     1       7.365   4.399  16.815  0.00  0.00    +0.000 NA
ATOM     15  C   UNL     1       7.019   5.552  17.661  0.00  0.00    +0.000 C 
ATOM     16  H   UNL     1       8.362   4.137  16.972  0.00  0.00    +0.000 HD
ENDBRANCH   5  10
TORSDOF 1
ENDMDL
MODEL 4
REMARK VINA RESULT:      -7.1      1.372      1.459
REMARK  Name = 
REMARK  1 active torsions:
REMARK  status: ('A' for Active; 'I' for Inactive)
REMARK    1  A    between atoms: C_5  and  C_6
REMARK                            x       y       z     vdW  Elec       q    Type
REMARK                         _______ _______ _______ _____ _____    ______ ____
ROOT
ATOM      1  C   UNL     1       1.232   2.939  21.168  0.00  0.00    +0.000 A 
ATOM      2  C   UNL     1       0.833   3.668  20.036  0.00  0.00    +0.000 A 
ATOM      3  C   UNL     1       1.785   4.011  19.063  0.00  0.00    +0.000 A 
ATOM      4  N   UNL     1       3.084   3.627  19.252  0.00  0.00    +0.000 N 
ATOM      5  C   UNL     1       4.207   3.845  18.528  0.00  0.00    +0.000 A 
ATOM      6  N   UNL     1       5.260   3.228  19.134  0.00  0.00    +0.000 NA
ATOM      7  N   UNL     1       4.797   2.653  20.251  0.00  0.00    +0.000 NA
ATOM      8  C   UNL     1       3.478   2.915  20.311  0.00  0.00    +0.000 A 
ATOM      9  C   UNL     1       2.578   2.543  21.316  0.00  0.00    +0.000 A 
ENDROOT
BRANCH   5  10
ATOM     10  C   UNL     1       4.247   4.714  17.279  0.00  0.00    +0.000 C 
ATOM     11  C   UNL     1       5.093   4.321  16.024  0.00  0.00    +0.000 C 
ATOM     12  C   UNL     1       6.621   4.472  16.201  0.00  0.00    +0.000 C 
ATOM     13  C   UNL     1       6.994   5.784  16.911  0.00  0.00    +0.000 C 
ATOM     14  N   UNL     1       6.183   5.943  18.122  0.00  0.00    +0.000 NA
ATOM     15  C   UNL     1       4.772   6.088  17.732  0.00  0.00    +0.000 C 
ATOM     16  H   UNL     1       6.492   6.793  18.641  0.00  0.00    +0.000 HD
ENDBRANCH   5  10
TORSDOF 1
ENDMDL
MODEL 5
REMARK VINA RESULT:      -7.1      1.222      1.303
REMARK  Name = 
REMARK  1 active torsions:
REMARK  status: ('A' for Active; 'I' for Inactive)
REMARK    1  A    between atoms: C_5  and  C_6
REMARK                            x       y       z     vdW  Elec       q    Type
REMARK                         _______ _______ _______ _____ _____    ______ ____
ROOT
ATOM      1  C   UNL     1       1.042   3.397  20.874  0.00  0.00    +0.000 A 
ATOM      2  C   UNL     1       1.125   4.640  20.226  0.00  0.00    +0.000 A 
ATOM      3  C   UNL     1       2.326   5.018  19.605  0.00  0.00    +0.000 A 
ATOM      4  N   UNL     1       3.389   4.161  19.656  0.00  0.00    +0.000 N 
ATOM      5  C   UNL     1       4.659   4.265  19.200  0.00  0.00    +0.000 A 
ATOM      6  N   UNL     1       5.336   3.116  19.483  0.00  0.00    +0.000 NA
ATOM      7  N   UNL     1       4.495   2.310  20.143  0.00  0.00    +0.000 NA
ATOM      8  C   UNL     1       3.323   2.965  20.248  0.00  0.00    +0.000 A 
ATOM      9  C   UNL     1       2.155   2.530  20.885  0.00  0.00    +0.000 A 
ENDROOT
BRANCH   5  10
ATOM     10  C   UNL     1       5.217   5.520  18.545  0.00  0.00    +0.000 C 
ATOM     11  C   UNL     1       4.894   5.895  17.062  0.00  0.00    +0.000 C 
ATOM     12  C   UNL     1       5.593   5.011  16.004  0.00  0.00    +0.000 C 
ATOM     13  C   UNL     1       7.068   4.750  16.353  0.00  0.00    +0.000 C 
ATOM     14  N   UNL     1       7.180   4.305  17.745  0.00  0.00    +0.000 NA
ATOM     15  C   UNL     1       6.750   5.400  18.628  0.00  0.00    +0.000 C 
ATOM     16  H   UNL     1       8.171   4.056  17.954  0.00  0.00    +0.000 HD
ENDBRANCH   5  10
TORSDOF 1
ENDMDL
MODEL 6
REMARK VINA RESULT:      -7.0      1.472      5.025
REMARK  Name = 
REMARK  1 active torsions:
REMARK  status: ('A' for Active; 'I' for Inactive)
REMARK    1  A    between atoms: C_5  and  C_6
REMARK                            x       y       z     vdW  Elec       q    Type
REMARK                         _______ _______ _______ _____ _____    ______ ____
ROOT
ATOM      1  C   UNL     1       6.997   6.302  17.150  0.00  0.00    +0.000 A 
ATOM      2  C   UNL     1       5.792   7.004  16.985  0.00  0.00    +0.000 A 
ATOM      3  C   UNL     1       4.622   6.524  17.593  0.00  0.00    +0.000 A 
ATOM      4  N   UNL     1       4.689   5.373  18.328  0.00  0.00    +0.000 N 
ATOM      5  C   UNL     1       3.742   4.659  18.980  0.00  0.00    +0.000 A 
ATOM      6  N   UNL     1       4.325   3.587  19.588  0.00  0.00    +0.000 NA
ATOM      7  N   UNL     1       5.630   3.620  19.289  0.00  0.00    +0.000 NA
ATOM      8  C   UNL     1       5.830   4.703  18.515  0.00  0.00    +0.000 A 
ATOM      9  C   UNL     1       7.030   5.130  17.935  0.00  0.00    +0.000 A 
ENDROOT
BRANCH   5  10
ATOM     10  C   UNL     1       2.259   4.999  18.945  0.00  0.00    +0.000 C 
ATOM     11  C   UNL     1       1.298   4.632  20.122  0.00  0.00    +0.000 C 
ATOM     12  C   UNL     1       0.968   3.127  20.243  0.00  0.00    +0.000 C 
ATOM     13  C   UNL     1       0.673   2.488  18.875  0.00  0.00    +0.000 C 
ATOM     14  N   UNL     1       1.726   2.846  17.921  0.00  0.00    +0.000 NA
ATOM     15  C   UNL     1       1.690   4.300  17.698  0.00  0.00    +0.000 C 
ATOM     16  H   UNL     1       1.564   2.349  17.018  0.00  0.00    +0.000 HD
ENDBRANCH   5  10
TORSDOF 1
ENDMDL
MODEL 7
REMARK VINA RESULT:      -7.0      1.254      5.209
REMARK  Name = 
REMARK  1 active torsions:
REMARK  status: ('A' for Active; 'I' for Inactive)
REMARK    1  A    between atoms: C_5  and  C_6
REMARK                            x       y       z     vdW  Elec       q    Type
REMARK                         _______ _______ _______ _____ _____    ______ ____
ROOT
ATOM      1  C   UNL     1       7.402   4.779  15.653  0.00  0.00    +0.000 A 
ATOM      2  C   UNL     1       6.204   4.673  14.928  0.00  0.00    +0.000 A 
ATOM      3  C   UNL     1       5.000   4.437  15.610  0.00  0.00    +0.000 A 
ATOM      4  N   UNL     1       5.031   4.309  16.971  0.00  0.00    +0.000 N 
ATOM      5  C   UNL     1       4.063   4.040  17.878  0.00  0.00    +0.000 A 
ATOM      6  N   UNL     1       4.604   4.040  19.129  0.00  0.00    +0.000 NA
ATOM      7  N   UNL     1       5.915   4.279  18.996  0.00  0.00    +0.000 NA
ATOM      8  C   UNL     1       6.157   4.428  17.680  0.00  0.00    +0.000 A 
ATOM      9  C   UNL     1       7.389   4.663  17.059  0.00  0.00    +0.000 A 
ENDROOT
BRANCH   5  10
ATOM     10  C   UNL     1       2.624   3.720  17.501  0.00  0.00    +0.000 C 
ATOM     11  C   UNL     1       1.411   4.284  18.312  0.00  0.00    +0.000 C 
ATOM     12  C   UNL     1       1.209   3.644  19.704  0.00  0.00    +0.000 C 
ATOM     13  C   UNL     1       1.372   2.115  19.665  0.00  0.00    +0.000 C 
ATOM     14  N   UNL     1       2.611   1.763  18.965  0.00  0.00    +0.000 NA
ATOM     15  C   UNL     1       2.497   2.187  17.560  0.00  0.00    +0.000 C 
ATOM     16  H   UNL     1       2.757   0.732  19.009  0.00  0.00    +0.000 HD
ENDBRANCH   5  10
TORSDOF 1
ENDMDL
MODEL 8
REMARK VINA RESULT:      -6.9      1.392      5.174
REMARK  Name = 
REMARK  1 active torsions:
REMARK  status: ('A' for Active; 'I' for Inactive)
REMARK    1  A    between atoms: C_5  and  C_6
REMARK                            x       y       z     vdW  Elec       q    Type
REMARK                         _______ _______ _______ _____ _____    ______ ____
ROOT
ATOM      1  C   UNL     1       7.097   4.523  15.658  0.00  0.00    +0.000 A 
ATOM      2  C   UNL     1       5.822   4.133  15.216  0.00  0.00    +0.000 A 
ATOM      3  C   UNL     1       4.777   4.003  16.144  0.00  0.00    +0.000 A 
ATOM      4  N   UNL     1       5.036   4.253  17.464  0.00  0.00    +0.000 N 
ATOM      5  C   UNL     1       4.262   4.169  18.570  0.00  0.00    +0.000 A 
ATOM      6  N   UNL     1       4.988   4.551  19.659  0.00  0.00    +0.000 NA
ATOM      7  N   UNL     1       6.223   4.843  19.232  0.00  0.00    +0.000 NA
ATOM      8  C   UNL     1       6.237   4.645  17.900  0.00  0.00    +0.000 A 
ATOM      9  C   UNL     1       7.318   4.794  17.025  0.00  0.00    +0.000 A 
ENDROOT
BRANCH   5  10
ATOM     10  C   UNL     1       2.831   3.652  18.558  0.00  0.00    +0.000 C 
ATOM     11  C   UNL     1       1.645   4.483  19.148  0.00  0.00    +0.000 C 
ATOM     12  C   UNL     1       1.620   4.569  20.691  0.00  0.00    +0.000 C 
ATOM     13  C   UNL     1       1.918   3.212  21.351  0.00  0.00    +0.000 C 
ATOM     14  N   UNL     1       3.120   2.622  20.755  0.00  0.00    +0.000 NA
ATOM     15  C   UNL     1       2.850   2.325  19.339  0.00  0.00    +0.000 C 
ATOM     16  H   UNL     1       3.363   1.740  21.257  0.00  0.00    +0.000 HD
ENDBRANCH   5  10
TORSDOF 1
ENDMDL
MODEL 9
REMARK VINA RESULT:      -6.6      1.515      5.100
REMARK  Name = 
REMARK  1 active torsions:
REMARK  status: ('A' for Active; 'I' for Inactive)
REMARK    1  A    between atoms: C_5  and  C_6
REMARK                            x       y       z     vdW  Elec       q    Type
REMARK                         _______ _______ _______ _____ _____    ______ ____
ROOT
ATOM      1  C   UNL     1       6.851   5.260  15.396  0.00  0.00    +0.000 A 
ATOM      2  C   UNL     1       5.720   4.515  15.022  0.00  0.00    +0.000 A 
ATOM      3  C   UNL     1       4.927   3.915  16.012  0.00  0.00    +0.000 A 
ATOM      4  N   UNL     1       5.287   4.068  17.323  0.00  0.00    +0.000 N 
ATOM      5  C   UNL     1       4.758   3.581  18.469  0.00  0.00    +0.000 A 
ATOM      6  N   UNL     1       5.476   4.046  19.530  0.00  0.00    +0.000 NA
ATOM      7  N   UNL     1       6.470   4.797  19.040  0.00  0.00    +0.000 NA
ATOM      8  C   UNL     1       6.346   4.789  17.699  0.00  0.00    +0.000 A 
ATOM      9  C   UNL     1       7.176   5.413  16.761  0.00  0.00    +0.000 A 
ENDROOT
BRANCH   5  10
ATOM     10  C   UNL     1       3.588   2.608  18.509  0.00  0.00    +0.000 C 
ATOM     11  C   UNL     1       2.300   2.826  17.649  0.00  0.00    +0.000 C 
ATOM     12  C   UNL     1       1.386   3.974  18.133  0.00  0.00    +0.000 C 
ATOM     13  C   UNL     1       1.212   3.970  19.661  0.00  0.00    +0.000 C 
ATOM     14  N   UNL     1       2.522   3.868  20.311  0.00  0.00    +0.000 NA
ATOM     15  C   UNL     1       3.118   2.566  19.974  0.00  0.00    +0.000 C 
ATOM     16  H   UNL     1       2.407   3.944  21.345  0.00  0.00    +0.000 HD
ENDBRANCH   5  10
TORSDOF 1
ENDMDL
