MODEL 1
REMARK VINA RESULT:      -6.7      0.000      0.000
REMARK  Name = 
REMARK  8 active torsions:
REMARK  status: ('A' for Active; 'I' for Inactive)
REMARK    1  A    between atoms: C_1  and  N_2
REMARK    2  A    between atoms: N_2  and  C_3
REMARK    3  A    between atoms: C_3  and  C_4
REMARK    4  A    between atoms: C_8  and  C_10
REMARK    5  A    between atoms: C_10  and  N_11
REMARK    6  A    between atoms: C_18  and  N_19
REMARK    7  A    between atoms: N_19  and  C_20
REMARK    8  A    between atoms: N_19  and  C_21
REMARK                            x       y       z     vdW  Elec       q    Type
REMARK                         _______ _______ _______ _____ _____    ______ ____
ROOT
ATOM      1  N   UNL     1       2.344   7.042  19.907  0.00  0.00    +0.000 N 
ATOM      2  C   UNL     1       2.157   8.049  19.006  0.00  0.00    +0.000 C 
ATOM      3  O   UNL     1       2.782   8.078  17.938  0.00  0.00    +0.000 OA
ATOM      4  N   UNL     1       1.269   9.039  19.364  0.00  0.00    +0.000 N 
ATOM      5  C   UNL     1       0.983  10.108  18.416  0.00  0.00    +0.000 C 
ATOM      6  C   UNL     1       1.309  11.468  19.015  0.00  0.00    +0.000 C 
ATOM      7  C   UNL     1       0.609  11.673  20.358  0.00  0.00    +0.000 C 
ATOM      8  C   UNL     1       0.912  10.530  21.359  0.00  0.00    +0.000 C 
ATOM      9  C   UNL     1       0.603   9.168  20.666  0.00  0.00    +0.000 C 
ATOM     10  H   UNL     1       1.519   6.771  20.428  0.00  0.00    +0.000 HD
ENDROOT
BRANCH   8  11
ATOM     11  N   UNL     1       0.158  10.711  22.634  0.00  0.00    +0.000 NA
ATOM     12  C   UNL     1      -0.931  11.688  22.497  0.00  0.00    +0.000 C 
ATOM     13  C   UNL     1      -0.420   9.455  23.133  0.00  0.00    +0.000 C 
ENDBRANCH   8  11
BRANCH   1  14
ATOM     14  C   UNL     1       3.278   5.960  19.636  0.00  0.00    +0.000 C 
BRANCH  14  17
ATOM     15  C   UNL     1       1.240   3.088  18.107  0.00  0.00    +0.000 C 
ATOM     16  N   UNL     1       1.726   4.064  19.073  0.00  0.00    +0.000 N 
ATOM     17  C   UNL     1       2.740   4.916  18.645  0.00  0.00    +0.000 C 
ATOM     18  O   UNL     1       3.153   4.906  17.479  0.00  0.00    +0.000 OA
BRANCH  16  19
ATOM     19  C   UNL     1       1.168   4.048  20.450  0.00  0.00    +0.000 C 
BRANCH  19  20
ATOM     20  C   UNL     1       1.867   3.184  21.514  0.00  0.00    +0.000 C 
ATOM     21  F   UNL     1       2.776   2.337  20.981  0.00  0.00    +0.000 F 
ATOM     22  F   UNL     1       2.509   3.939  22.431  0.00  0.00    +0.000 F 
ATOM     23  F   UNL     1       0.958   2.433  22.183  0.00  0.00    +0.000 F 
ENDBRANCH  19  20
ENDBRANCH  16  19
ENDBRANCH  14  17
ENDBRANCH   1  14
TORSDOF 5
ENDMDL
MODEL 2
REMARK VINA RESULT:      -6.7      1.484      1.651
REMARK  Name = 
REMARK  8 active torsions:
REMARK  status: ('A' for Active; 'I' for Inactive)
REMARK    1  A    between atoms: C_1  and  N_2
REMARK    2  A    between atoms: N_2  and  C_3
REMARK    3  A    between atoms: C_3  and  C_4
REMARK    4  A    between atoms: C_8  and  C_10
REMARK    5  A    between atoms: C_10  and  N_11
REMARK    6  A    between atoms: C_18  and  N_19
REMARK    7  A    between atoms: N_19  and  C_20
REMARK    8  A    between atoms: N_19  and  C_21
REMARK                            x       y       z     vdW  Elec       q    Type
REMARK                         _______ _______ _______ _____ _____    ______ ____
ROOT
ATOM      1  N   UNL     1       3.362   6.165  19.603  0.00  0.00    +0.000 N 
ATOM      2  C   UNL     1       3.088   7.068  18.618  0.00  0.00    +0.000 C 
ATOM      3  O   UNL     1       3.770   7.120  17.586  0.00  0.00    +0.000 OA
ATOM      4  N   UNL     1       2.040   7.932  18.849  0.00  0.00    +0.000 N 
ATOM      5  C   UNL     1       1.661   8.877  17.807  0.00  0.00    +0.000 C 
ATOM      6  C   UNL     1       1.741  10.308  18.316  0.00  0.00    +0.000 C 
ATOM      7  C   UNL     1       0.932  10.495  19.599  0.00  0.00    +0.000 C 
ATOM      8  C   UNL     1       1.335   9.483  20.700  0.00  0.00    +0.000 C 
ATOM      9  C   UNL     1       1.279   8.046  20.099  0.00  0.00    +0.000 C 
ATOM     10  H   UNL     1       2.554   5.806  20.098  0.00  0.00    +0.000 HD
ENDROOT
BRANCH   8  11
ATOM     11  N   UNL     1       0.480   9.633  21.914  0.00  0.00    +0.000 NA
ATOM     12  C   UNL     1      -0.225  10.922  21.936  0.00  0.00    +0.000 C 
ATOM     13  C   UNL     1      -0.522   8.565  22.036  0.00  0.00    +0.000 C 
ENDBRANCH   8  11
BRANCH   1  14
ATOM     14  C   UNL     1       4.463   5.223  19.468  0.00  0.00    +0.000 C 
BRANCH  14  17
ATOM     15  C   UNL     1       3.066   1.837  18.319  0.00  0.00    +0.000 C 
ATOM     16  N   UNL     1       3.368   2.980  19.170  0.00  0.00    +0.000 N 
ATOM     17  C   UNL     1       4.124   4.000  18.601  0.00  0.00    +0.000 C 
ATOM     18  O   UNL     1       4.454   3.983  17.409  0.00  0.00    +0.000 OA
BRANCH  16  19
ATOM     19  C   UNL     1       2.918   2.957  20.586  0.00  0.00    +0.000 C 
BRANCH  19  20
ATOM     20  C   UNL     1       1.424   3.172  20.882  0.00  0.00    +0.000 C 
ATOM     21  F   UNL     1       0.623   2.667  19.917  0.00  0.00    +0.000 F 
ATOM     22  F   UNL     1       1.057   2.601  22.050  0.00  0.00    +0.000 F 
ATOM     23  F   UNL     1       1.149   4.496  20.984  0.00  0.00    +0.000 F 
ENDBRANCH  19  20
ENDBRANCH  16  19
ENDBRANCH  14  17
ENDBRANCH   1  14
TORSDOF 5
ENDMDL
MODEL 3
REMARK VINA RESULT:      -6.7      5.153      7.073
REMARK  Name = 
REMARK  8 active torsions:
REMARK  status: ('A' for Active; 'I' for Inactive)
REMARK    1  A    between atoms: C_1  and  N_2
REMARK    2  A    between atoms: N_2  and  C_3
REMARK    3  A    between atoms: C_3  and  C_4
REMARK    4  A    between atoms: C_8  and  C_10
REMARK    5  A    between atoms: C_10  and  N_11
REMARK    6  A    between atoms: C_18  and  N_19
REMARK    7  A    between atoms: N_19  and  C_20
REMARK    8  A    between atoms: N_19  and  C_21
REMARK                            x       y       z     vdW  Elec       q    Type
REMARK                         _______ _______ _______ _____ _____    ______ ____
ROOT
ATOM      1  N   UNL     1       4.870   4.036  17.434  0.00  0.00    +0.000 N 
ATOM      2  C   UNL     1       4.139   3.336  18.349  0.00  0.00    +0.000 C 
ATOM      3  O   UNL     1       3.953   2.119  18.225  0.00  0.00    +0.000 OA
ATOM      4  N   UNL     1       3.599   4.059  19.389  0.00  0.00    +0.000 N 
ATOM      5  C   UNL     1       2.861   3.356  20.429  0.00  0.00    +0.000 C 
ATOM      6  C   UNL     1       1.440   3.888  20.543  0.00  0.00    +0.000 C 
ATOM      7  C   UNL     1       1.420   5.404  20.734  0.00  0.00    +0.000 C 
ATOM      8  C   UNL     1       2.213   6.145  19.628  0.00  0.00    +0.000 C 
ATOM      9  C   UNL     1       3.637   5.520  19.533  0.00  0.00    +0.000 C 
ATOM     10  H   UNL     1       5.416   4.801  17.812  0.00  0.00    +0.000 HD
ENDROOT
BRANCH   8  11
ATOM     11  N   UNL     1       2.245   7.616  19.878  0.00  0.00    +0.000 NA
ATOM     12  C   UNL     1       1.995   8.389  18.654  0.00  0.00    +0.000 C 
ATOM     13  C   UNL     1       1.268   8.040  20.890  0.00  0.00    +0.000 C 
ENDBRANCH   8  11
BRANCH   1  14
ATOM     14  C   UNL     1       5.465   3.371  16.285  0.00  0.00    +0.000 C 
BRANCH  14  17
ATOM     15  C   UNL     1       7.643   5.193  13.703  0.00  0.00    +0.000 C 
ATOM     16  N   UNL     1       6.538   4.440  14.279  0.00  0.00    +0.000 N 
ATOM     17  C   UNL     1       6.614   4.162  15.641  0.00  0.00    +0.000 C 
ATOM     18  O   UNL     1       7.529   4.601  16.348  0.00  0.00    +0.000 OA
BRANCH  16  19
ATOM     19  C   UNL     1       5.450   3.966  13.385  0.00  0.00    +0.000 C 
BRANCH  19  20
ATOM     20  C   UNL     1       5.836   3.300  12.052  0.00  0.00    +0.000 C 
ATOM     21  F   UNL     1       6.424   4.160  11.191  0.00  0.00    +0.000 F 
ATOM     22  F   UNL     1       6.688   2.268  12.236  0.00  0.00    +0.000 F 
ATOM     23  F   UNL     1       4.734   2.802  11.438  0.00  0.00    +0.000 F 
ENDBRANCH  19  20
ENDBRANCH  16  19
ENDBRANCH  14  17
ENDBRANCH   1  14
TORSDOF 5
ENDMDL
MODEL 4
REMARK VINA RESULT:      -6.6      1.207      1.576
REMARK  Name = 
REMARK  8 active torsions:
REMARK  status: ('A' for Active; 'I' for Inactive)
REMARK    1  A    between atoms: C_1  and  N_2
REMARK    2  A    between atoms: N_2  and  C_3
REMARK    3  A    between atoms: C_3  and  C_4
REMARK    4  A    between atoms: C_8  and  C_10
REMARK    5  A    between atoms: C_10  and  N_11
REMARK    6  A    between atoms: C_18  and  N_19
REMARK    7  A    between atoms: N_19  and  C_20
REMARK    8  A    between atoms: N_19  and  C_21
REMARK                            x       y       z     vdW  Elec       q    Type
REMARK                         _______ _______ _______ _____ _____    ______ ____
ROOT
ATOM      1  N   UNL     1       2.854   6.552  19.440  0.00  0.00    +0.000 N 
ATOM      2  C   UNL     1       2.771   7.596  18.566  0.00  0.00    +0.000 C 
ATOM      3  O   UNL     1       3.593   7.734  17.651  0.00  0.00    +0.000 OA
ATOM      4  N   UNL     1       1.751   8.496  18.779  0.00  0.00    +0.000 N 
ATOM      5  C   UNL     1       1.575   9.598  17.842  0.00  0.00    +0.000 C 
ATOM      6  C   UNL     1       1.661  10.938  18.556  0.00  0.00    +0.000 C 
ATOM      7  C   UNL     1       0.692  11.011  19.735  0.00  0.00    +0.000 C 
ATOM      8  C   UNL     1       0.879   9.834  20.723  0.00  0.00    +0.000 C 
ATOM      9  C   UNL     1       0.829   8.498  19.921  0.00  0.00    +0.000 C 
ATOM     10  H   UNL     1       1.966   6.191  19.767  0.00  0.00    +0.000 HD
ENDROOT
BRANCH   8  11
ATOM     11  N   UNL     1      -0.128   9.883  21.823  0.00  0.00    +0.000 NA
ATOM     12  C   UNL     1       0.416   9.381  23.092  0.00  0.00    +0.000 C 
ATOM     13  C   UNL     1      -0.645  11.239  22.056  0.00  0.00    +0.000 C 
ENDBRANCH   8  11
BRANCH   1  14
ATOM     14  C   UNL     1       3.909   5.557  19.317  0.00  0.00    +0.000 C 
BRANCH  14  17
ATOM     15  C   UNL     1       2.670   2.255  17.800  0.00  0.00    +0.000 C 
ATOM     16  N   UNL     1       2.959   3.292  18.781  0.00  0.00    +0.000 N 
ATOM     17  C   UNL     1       3.589   4.440  18.311  0.00  0.00    +0.000 C 
ATOM     18  O   UNL     1       3.819   4.613  17.108  0.00  0.00    +0.000 OA
BRANCH  16  19
ATOM     19  C   UNL     1       2.630   3.039  20.209  0.00  0.00    +0.000 C 
BRANCH  19  20
ATOM     20  C   UNL     1       1.184   3.272  20.680  0.00  0.00    +0.000 C 
ATOM     21  F   UNL     1       0.897   4.583  20.851  0.00  0.00    +0.000 F 
ATOM     22  F   UNL     1       0.285   2.773  19.804  0.00  0.00    +0.000 F 
ATOM     23  F   UNL     1       0.970   2.653  21.867  0.00  0.00    +0.000 F 
ENDBRANCH  19  20
ENDBRANCH  16  19
ENDBRANCH  14  17
ENDBRANCH   1  14
TORSDOF 5
ENDMDL
MODEL 5
REMARK VINA RESULT:      -6.6      5.436      8.529
REMARK  Name = 
REMARK  8 active torsions:
REMARK  status: ('A' for Active; 'I' for Inactive)
REMARK    1  A    between atoms: C_1  and  N_2
REMARK    2  A    between atoms: N_2  and  C_3
REMARK    3  A    between atoms: C_3  and  C_4
REMARK    4  A    between atoms: C_8  and  C_10
REMARK    5  A    between atoms: C_10  and  N_11
REMARK    6  A    between atoms: C_18  and  N_19
REMARK    7  A    between atoms: N_19  and  C_20
REMARK    8  A    between atoms: N_19  and  C_21
REMARK                            x       y       z     vdW  Elec       q    Type
REMARK                         _______ _______ _______ _____ _____    ______ ____
ROOT
ATOM      1  N   UNL     1       5.510   4.969  16.505  0.00  0.00    +0.000 N 
ATOM      2  C   UNL     1       6.603   5.389  15.806  0.00  0.00    +0.000 C 
ATOM      3  O   UNL     1       7.249   6.383  16.160  0.00  0.00    +0.000 OA
ATOM      4  N   UNL     1       6.924   4.669  14.676  0.00  0.00    +0.000 N 
ATOM      5  C   UNL     1       8.117   5.033  13.923  0.00  0.00    +0.000 C 
ATOM      6  C   UNL     1       7.768   5.373  12.482  0.00  0.00    +0.000 C 
ATOM      7  C   UNL     1       6.973   4.251  11.815  0.00  0.00    +0.000 C 
ATOM      8  C   UNL     1       5.710   3.865  12.624  0.00  0.00    +0.000 C 
ATOM      9  C   UNL     1       6.132   3.577  14.097  0.00  0.00    +0.000 C 
ATOM     10  H   UNL     1       5.370   3.966  16.528  0.00  0.00    +0.000 HD
ENDROOT
BRANCH   8  11
ATOM     11  N   UNL     1       4.993   2.717  11.996  0.00  0.00    +0.000 NA
ATOM     12  C   UNL     1       3.984   3.162  11.025  0.00  0.00    +0.000 C 
ATOM     13  C   UNL     1       5.903   1.788  11.311  0.00  0.00    +0.000 C 
ENDBRANCH   8  11
BRANCH   1  14
ATOM     14  C   UNL     1       5.073   5.674  17.701  0.00  0.00    +0.000 C 
BRANCH  14  17
ATOM     15  C   UNL     1       3.436   3.571  20.464  0.00  0.00    +0.000 C 
ATOM     16  N   UNL     1       3.581   4.442  19.306  0.00  0.00    +0.000 N 
ATOM     17  C   UNL     1       4.880   4.758  18.920  0.00  0.00    +0.000 C 
ATOM     18  O   UNL     1       5.866   4.261  19.476  0.00  0.00    +0.000 OA
BRANCH  16  19
ATOM     19  C   UNL     1       2.357   4.983  18.659  0.00  0.00    +0.000 C 
BRANCH  19  20
ATOM     20  C   UNL     1       1.568   4.070  17.704  0.00  0.00    +0.000 C 
ATOM     21  F   UNL     1       0.856   3.124  18.358  0.00  0.00    +0.000 F 
ATOM     22  F   UNL     1       0.702   4.771  16.941  0.00  0.00    +0.000 F 
ATOM     23  F   UNL     1       2.413   3.428  16.860  0.00  0.00    +0.000 F 
ENDBRANCH  19  20
ENDBRANCH  16  19
ENDBRANCH  14  17
ENDBRANCH   1  14
TORSDOF 5
ENDMDL
MODEL 6
REMARK VINA RESULT:      -6.6      2.901      3.520
REMARK  Name = 
REMARK  8 active torsions:
REMARK  status: ('A' for Active; 'I' for Inactive)
REMARK    1  A    between atoms: C_1  and  N_2
REMARK    2  A    between atoms: N_2  and  C_3
REMARK    3  A    between atoms: C_3  and  C_4
REMARK    4  A    between atoms: C_8  and  C_10
REMARK    5  A    between atoms: C_10  and  N_11
REMARK    6  A    between atoms: C_18  and  N_19
REMARK    7  A    between atoms: N_19  and  C_20
REMARK    8  A    between atoms: N_19  and  C_21
REMARK                            x       y       z     vdW  Elec       q    Type
REMARK                         _______ _______ _______ _____ _____    ______ ____
ROOT
ATOM      1  N   UNL     1       2.240   8.030  19.095  0.00  0.00    +0.000 N 
ATOM      2  C   UNL     1       1.634   9.057  18.433  0.00  0.00    +0.000 C 
ATOM      3  O   UNL     1       1.964   9.360  17.280  0.00  0.00    +0.000 OA
ATOM      4  N   UNL     1       0.667   9.751  19.126  0.00  0.00    +0.000 N 
ATOM      5  C   UNL     1      -0.057  10.819  18.450  0.00  0.00    +0.000 C 
ATOM      6  C   UNL     1       0.106  12.139  19.188  0.00  0.00    +0.000 C 
ATOM      7  C   UNL     1      -0.280  12.011  20.661  0.00  0.00    +0.000 C 
ATOM      8  C   UNL     1       0.488  10.870  21.373  0.00  0.00    +0.000 C 
ATOM      9  C   UNL     1       0.320   9.563  20.541  0.00  0.00    +0.000 C 
ATOM     10  H   UNL     1       1.640   7.506  19.722  0.00  0.00    +0.000 HD
ENDROOT
BRANCH   8  11
ATOM     11  N   UNL     1       0.040  10.714  22.787  0.00  0.00    +0.000 NA
ATOM     12  C   UNL     1      -1.328  11.208  22.990  0.00  0.00    +0.000 C 
ATOM     13  C   UNL     1       0.092   9.319  23.246  0.00  0.00    +0.000 C 
ENDBRANCH   8  11
BRANCH   1  14
ATOM     14  C   UNL     1       3.290   7.247  18.461  0.00  0.00    +0.000 C 
BRANCH  14  17
ATOM     15  C   UNL     1       4.715   3.791  19.331  0.00  0.00    +0.000 C 
ATOM     16  N   UNL     1       4.609   5.129  18.767  0.00  0.00    +0.000 N 
ATOM     17  C   UNL     1       3.438   5.831  19.038  0.00  0.00    +0.000 C 
ATOM     18  O   UNL     1       2.564   5.379  19.788  0.00  0.00    +0.000 OA
BRANCH  16  19
ATOM     19  C   UNL     1       5.706   5.630  17.898  0.00  0.00    +0.000 C 
BRANCH  19  20
ATOM     20  C   UNL     1       7.139   5.636  18.459  0.00  0.00    +0.000 C 
ATOM     21  F   UNL     1       7.866   6.686  18.016  0.00  0.00    +0.000 F 
ATOM     22  F   UNL     1       7.149   5.679  19.809  0.00  0.00    +0.000 F 
ATOM     23  F   UNL     1       7.793   4.507  18.092  0.00  0.00    +0.000 F 
ENDBRANCH  19  20
ENDBRANCH  16  19
ENDBRANCH  14  17
ENDBRANCH   1  14
TORSDOF 5
ENDMDL
MODEL 7
REMARK VINA RESULT:      -6.6      2.789      3.421
REMARK  Name = 
REMARK  8 active torsions:
REMARK  status: ('A' for Active; 'I' for Inactive)
REMARK    1  A    between atoms: C_1  and  N_2
REMARK    2  A    between atoms: N_2  and  C_3
REMARK    3  A    between atoms: C_3  and  C_4
REMARK    4  A    between atoms: C_8  and  C_10
REMARK    5  A    between atoms: C_10  and  N_11
REMARK    6  A    between atoms: C_18  and  N_19
REMARK    7  A    between atoms: N_19  and  C_20
REMARK    8  A    between atoms: N_19  and  C_21
REMARK                            x       y       z     vdW  Elec       q    Type
REMARK                         _______ _______ _______ _____ _____    ______ ____
ROOT
ATOM      1  N   UNL     1       2.198   7.853  19.142  0.00  0.00    +0.000 N 
ATOM      2  C   UNL     1       1.649   8.890  18.446  0.00  0.00    +0.000 C 
ATOM      3  O   UNL     1       2.010   9.151  17.291  0.00  0.00    +0.000 OA
ATOM      4  N   UNL     1       0.704   9.642  19.108  0.00  0.00    +0.000 N 
ATOM      5  C   UNL     1       0.039  10.725  18.395  0.00  0.00    +0.000 C 
ATOM      6  C   UNL     1       0.249  12.054  19.105  0.00  0.00    +0.000 C 
ATOM      7  C   UNL     1      -0.164  11.978  20.574  0.00  0.00    +0.000 C 
ATOM      8  C   UNL     1       0.542  10.821  21.324  0.00  0.00    +0.000 C 
ATOM      9  C   UNL     1       0.328   9.504  20.520  0.00  0.00    +0.000 C 
ATOM     10  H   UNL     1       1.566   7.371  19.770  0.00  0.00    +0.000 HD
ENDROOT
BRANCH   8  11
ATOM     11  N   UNL     1       0.066  10.719  22.735  0.00  0.00    +0.000 NA
ATOM     12  C   UNL     1      -1.200  11.434  22.943  0.00  0.00    +0.000 C 
ATOM     13  C   UNL     1      -0.123   9.327  23.168  0.00  0.00    +0.000 C 
ENDBRANCH   8  11
BRANCH   1  14
ATOM     14  C   UNL     1       3.222   7.010  18.542  0.00  0.00    +0.000 C 
BRANCH  14  17
ATOM     15  C   UNL     1       4.535   3.531  19.495  0.00  0.00    +0.000 C 
ATOM     16  N   UNL     1       4.417   4.816  18.820  0.00  0.00    +0.000 N 
ATOM     17  C   UNL     1       3.377   5.645  19.230  0.00  0.00    +0.000 C 
ATOM     18  O   UNL     1       2.638   5.346  20.176  0.00  0.00    +0.000 OA
BRANCH  16  19
ATOM     19  C   UNL     1       5.355   5.131  17.711  0.00  0.00    +0.000 C 
BRANCH  19  20
ATOM     20  C   UNL     1       5.089   4.512  16.328  0.00  0.00    +0.000 C 
ATOM     21  F   UNL     1       3.900   3.869  16.266  0.00  0.00    +0.000 F 
ATOM     22  F   UNL     1       5.094   5.445  15.351  0.00  0.00    +0.000 F 
ATOM     23  F   UNL     1       6.054   3.609  16.022  0.00  0.00    +0.000 F 
ENDBRANCH  19  20
ENDBRANCH  16  19
ENDBRANCH  14  17
ENDBRANCH   1  14
TORSDOF 5
ENDMDL
MODEL 8
REMARK VINA RESULT:      -6.6      2.031      2.557
REMARK  Name = 
REMARK  8 active torsions:
REMARK  status: ('A' for Active; 'I' for Inactive)
REMARK    1  A    between atoms: C_1  and  N_2
REMARK    2  A    between atoms: N_2  and  C_3
REMARK    3  A    between atoms: C_3  and  C_4
REMARK    4  A    between atoms: C_8  and  C_10
REMARK    5  A    between atoms: C_10  and  N_11
REMARK    6  A    between atoms: C_18  and  N_19
REMARK    7  A    between atoms: N_19  and  C_20
REMARK    8  A    between atoms: N_19  and  C_21
REMARK                            x       y       z     vdW  Elec       q    Type
REMARK                         _______ _______ _______ _____ _____    ______ ____
ROOT
ATOM      1  N   UNL     1       2.084   6.900  20.211  0.00  0.00    +0.000 N 
ATOM      2  C   UNL     1       2.079   7.812  19.197  0.00  0.00    +0.000 C 
ATOM      3  O   UNL     1       2.786   7.660  18.193  0.00  0.00    +0.000 OA
ATOM      4  N   UNL     1       1.275   8.917  19.368  0.00  0.00    +0.000 N 
ATOM      5  C   UNL     1       1.181   9.895  18.292  0.00  0.00    +0.000 C 
ATOM      6  C   UNL     1       1.601  11.276  18.774  0.00  0.00    +0.000 C 
ATOM      7  C   UNL     1       0.822  11.698  20.019  0.00  0.00    +0.000 C 
ATOM      8  C   UNL     1       0.920  10.651  21.156  0.00  0.00    +0.000 C 
ATOM      9  C   UNL     1       0.525   9.256  20.584  0.00  0.00    +0.000 C 
ATOM     10  H   UNL     1       1.195   6.770  20.680  0.00  0.00    +0.000 HD
ENDROOT
BRANCH   8  11
ATOM     11  N   UNL     1       0.090  11.047  22.331  0.00  0.00    +0.000 NA
ATOM     12  C   UNL     1      -1.044  11.898  21.945  0.00  0.00    +0.000 C 
ATOM     13  C   UNL     1      -0.441   9.890  23.065  0.00  0.00    +0.000 C 
ENDBRANCH   8  11
BRANCH   1  14
ATOM     14  C   UNL     1       2.916   5.708  20.140  0.00  0.00    +0.000 C 
BRANCH  14  17
ATOM     15  C   UNL     1       1.269   2.435  18.997  0.00  0.00    +0.000 C 
ATOM     16  N   UNL     1       2.034   3.673  18.957  0.00  0.00    +0.000 N 
ATOM     17  C   UNL     1       2.115   4.396  20.143  0.00  0.00    +0.000 C 
ATOM     18  O   UNL     1       1.635   3.972  21.201  0.00  0.00    +0.000 OA
BRANCH  16  19
ATOM     19  C   UNL     1       2.615   4.115  17.662  0.00  0.00    +0.000 C 
BRANCH  19  20
ATOM     20  C   UNL     1       4.021   3.618  17.282  0.00  0.00    +0.000 C 
ATOM     21  F   UNL     1       4.377   3.975  16.028  0.00  0.00    +0.000 F 
ATOM     22  F   UNL     1       4.965   4.097  18.121  0.00  0.00    +0.000 F 
ATOM     23  F   UNL     1       4.077   2.265  17.351  0.00  0.00    +0.000 F 
ENDBRANCH  19  20
ENDBRANCH  16  19
ENDBRANCH  14  17
ENDBRANCH   1  14
TORSDOF 5
ENDMDL
MODEL 9
REMARK VINA RESULT:      -6.5      2.684      3.134
REMARK  Name = 
REMARK  8 active torsions:
REMARK  status: ('A' for Active; 'I' for Inactive)
REMARK    1  A    between atoms: C_1  and  N_2
REMARK    2  A    between atoms: N_2  and  C_3
REMARK    3  A    between atoms: C_3  and  C_4
REMARK    4  A    between atoms: C_8  and  C_10
REMARK    5  A    between atoms: C_10  and  N_11
REMARK    6  A    between atoms: C_18  and  N_19
REMARK    7  A    between atoms: N_19  and  C_20
REMARK    8  A    between atoms: N_19  and  C_21
REMARK                            x       y       z     vdW  Elec       q    Type
REMARK                         _______ _______ _______ _____ _____    ______ ____
ROOT
ATOM      1  N   UNL     1       2.329   6.953  19.967  0.00  0.00    +0.000 N 
ATOM      2  C   UNL     1       2.157   7.940  19.042  0.00  0.00    +0.000 C 
ATOM      3  O   UNL     1       2.781   7.934  17.973  0.00  0.00    +0.000 OA
ATOM      4  N   UNL     1       1.283   8.951  19.376  0.00  0.00    +0.000 N 
ATOM      5  C   UNL     1       1.012  10.001  18.403  0.00  0.00    +0.000 C 
ATOM      6  C   UNL     1       1.358  11.370  18.969  0.00  0.00    +0.000 C 
ATOM      7  C   UNL     1       0.663  11.618  20.307  0.00  0.00    +0.000 C 
ATOM      8  C   UNL     1       0.949  10.495  21.335  0.00  0.00    +0.000 C 
ATOM      9  C   UNL     1       0.620   9.121  20.675  0.00  0.00    +0.000 C 
ATOM     10  H   UNL     1       1.500   6.706  20.495  0.00  0.00    +0.000 HD
ENDROOT
BRANCH   8  11
ATOM     11  N   UNL     1       0.199  10.718  22.605  0.00  0.00    +0.000 NA
ATOM     12  C   UNL     1      -0.944  11.622  22.420  0.00  0.00    +0.000 C 
ATOM     13  C   UNL     1      -0.302   9.467  23.193  0.00  0.00    +0.000 C 
ENDBRANCH   8  11
BRANCH   1  14
ATOM     14  C   UNL     1       3.247   5.850  19.721  0.00  0.00    +0.000 C 
BRANCH  14  17
ATOM     15  C   UNL     1       2.733   2.635  17.689  0.00  0.00    +0.000 C 
ATOM     16  N   UNL     1       3.392   3.775  18.311  0.00  0.00    +0.000 N 
ATOM     17  C   UNL     1       2.587   4.636  19.049  0.00  0.00    +0.000 C 
ATOM     18  O   UNL     1       1.387   4.406  19.241  0.00  0.00    +0.000 OA
BRANCH  16  19
ATOM     19  C   UNL     1       4.844   3.982  18.070  0.00  0.00    +0.000 C 
BRANCH  19  20
ATOM     20  C   UNL     1       5.279   4.652  16.755  0.00  0.00    +0.000 C 
ATOM     21  F   UNL     1       6.513   5.201  16.834  0.00  0.00    +0.000 F 
ATOM     22  F   UNL     1       5.292   3.776  15.726  0.00  0.00    +0.000 F 
ATOM     23  F   UNL     1       4.416   5.643  16.422  0.00  0.00    +0.000 F 
ENDBRANCH  19  20
ENDBRANCH  16  19
ENDBRANCH  14  17
ENDBRANCH   1  14
TORSDOF 5
ENDMDL
