MODEL 1
REMARK VINA RESULT:      -6.6      0.000      0.000
REMARK  Name = 
REMARK  4 active torsions:
REMARK  status: ('A' for Active; 'I' for Inactive)
REMARK    1  A    between atoms: C_1  and  C_2
REMARK    2  A    between atoms: C_2  and  N_3
REMARK    3  A    between atoms: N_9  and  C_10
REMARK    4  A    between atoms: C_17  and  C_18
REMARK                            x       y       z     vdW  Elec       q    Type
REMARK                         _______ _______ _______ _____ _____    ______ ____
ROOT
ATOM      1  N   UNL     1       1.097   8.689  20.153  0.00  0.00    +0.000 N 
ATOM      2  C   UNL     1       1.181   9.887  19.358  0.00  0.00    +0.000 C 
ATOM      3  C   UNL     1       0.724  11.151  19.626  0.00  0.00    +0.000 C 
ATOM      4  S   UNL     1       1.195  12.581  18.702  0.00  0.00    +0.000 S 
ATOM      5  C   UNL     1       1.005  13.651  20.072  0.00  0.00    +0.000 C 
ATOM      6  S   UNL     1       1.669  15.178  20.106  0.00  0.00    +0.000 S 
ATOM      7  N   UNL     1       0.261  13.015  21.031  0.00  0.00    +0.000 N 
ATOM      8  C   UNL     1      -0.317  13.659  22.197  0.00  0.00    +0.000 C 
ATOM      9  C   UNL     1      -0.106  11.707  20.751  0.00  0.00    +0.000 C 
ATOM     10  O   UNL     1      -1.067  11.155  21.273  0.00  0.00    +0.000 OA
ATOM     11  C   UNL     1       1.907   9.719  18.074  0.00  0.00    +0.000 C 
ATOM     12  C   UNL     1       2.505   8.594  17.677  0.00  0.00    +0.000 C 
ATOM     13  C   UNL     1       2.459   7.416  18.525  0.00  0.00    +0.000 A 
ATOM     14  C   UNL     1       3.107   6.245  18.086  0.00  0.00    +0.000 A 
ATOM     15  C   UNL     1       3.101   5.089  18.866  0.00  0.00    +0.000 A 
ATOM     16  C   UNL     1       3.765   3.828  18.405  0.00  0.00    +0.000 C 
ATOM     17  C   UNL     1       2.452   5.128  20.096  0.00  0.00    +0.000 A 
ATOM     18  C   UNL     1       1.808   6.295  20.529  0.00  0.00    +0.000 A 
ATOM     19  C   UNL     1       1.776   7.473  19.756  0.00  0.00    +0.000 A 
ENDROOT
BRANCH   1  21
ATOM     20  C   UNL     1       1.514   9.162  22.548  0.00  0.00    +0.000 C 
ATOM     21  C   UNL     1       0.531   8.636  21.510  0.00  0.00    +0.000 C 
ENDBRANCH   1  21
TORSDOF 1
ENDMDL
MODEL 2
REMARK VINA RESULT:      -6.6      2.904      4.157
REMARK  Name = 
REMARK  4 active torsions:
REMARK  status: ('A' for Active; 'I' for Inactive)
REMARK    1  A    between atoms: C_1  and  C_2
REMARK    2  A    between atoms: C_2  and  N_3
REMARK    3  A    between atoms: N_9  and  C_10
REMARK    4  A    between atoms: C_17  and  C_18
REMARK                            x       y       z     vdW  Elec       q    Type
REMARK                         _______ _______ _______ _____ _____    ______ ____
ROOT
ATOM      1  N   UNL     1      -0.036  11.067  19.810  0.00  0.00    +0.000 N 
ATOM      2  C   UNL     1      -0.584  11.218  21.134  0.00  0.00    +0.000 C 
ATOM      3  C   UNL     1      -1.438  12.170  21.626  0.00  0.00    +0.000 C 
ATOM      4  S   UNL     1      -2.275  12.029  23.174  0.00  0.00    +0.000 S 
ATOM      5  C   UNL     1      -3.641  12.979  22.636  0.00  0.00    +0.000 C 
ATOM      6  S   UNL     1      -5.101  12.972  23.437  0.00  0.00    +0.000 S 
ATOM      7  N   UNL     1      -3.283  13.668  21.506  0.00  0.00    +0.000 N 
ATOM      8  C   UNL     1      -4.054  14.745  20.911  0.00  0.00    +0.000 C 
ATOM      9  C   UNL     1      -2.006  13.425  21.022  0.00  0.00    +0.000 C 
ATOM     10  O   UNL     1      -1.400  14.215  20.309  0.00  0.00    +0.000 OA
ATOM     11  C   UNL     1      -0.178  10.155  22.088  0.00  0.00    +0.000 C 
ATOM     12  C   UNL     1       0.569   9.094  21.776  0.00  0.00    +0.000 C 
ATOM     13  C   UNL     1       1.059   8.932  20.418  0.00  0.00    +0.000 A 
ATOM     14  C   UNL     1       1.838   7.798  20.115  0.00  0.00    +0.000 A 
ATOM     15  C   UNL     1       2.324   7.589  18.825  0.00  0.00    +0.000 A 
ATOM     16  C   UNL     1       3.174   6.403  18.489  0.00  0.00    +0.000 C 
ATOM     17  C   UNL     1       2.006   8.522  17.842  0.00  0.00    +0.000 A 
ATOM     18  C   UNL     1       1.230   9.648  18.148  0.00  0.00    +0.000 A 
ATOM     19  C   UNL     1       0.742   9.901  19.446  0.00  0.00    +0.000 A 
ENDROOT
BRANCH   1  21
ATOM     20  C   UNL     1      -1.681  11.476  18.004  0.00  0.00    +0.000 C 
ATOM     21  C   UNL     1      -0.387  11.926  18.668  0.00  0.00    +0.000 C 
ENDBRANCH   1  21
TORSDOF 1
ENDMDL
MODEL 3
REMARK VINA RESULT:      -6.4      1.847      2.731
REMARK  Name = 
REMARK  4 active torsions:
REMARK  status: ('A' for Active; 'I' for Inactive)
REMARK    1  A    between atoms: C_1  and  C_2
REMARK    2  A    between atoms: C_2  and  N_3
REMARK    3  A    between atoms: N_9  and  C_10
REMARK    4  A    between atoms: C_17  and  C_18
REMARK                            x       y       z     vdW  Elec       q    Type
REMARK                         _______ _______ _______ _____ _____    ______ ____
ROOT
ATOM      1  N   UNL     1       2.350   6.923  19.586  0.00  0.00    +0.000 N 
ATOM      2  C   UNL     1       1.846   8.212  19.189  0.00  0.00    +0.000 C 
ATOM      3  C   UNL     1       0.973   9.049  19.834  0.00  0.00    +0.000 C 
ATOM      4  S   UNL     1       0.712  10.734  19.375  0.00  0.00    +0.000 S 
ATOM      5  C   UNL     1       0.315  11.221  21.007  0.00  0.00    +0.000 C 
ATOM      6  S   UNL     1       0.326  12.815  21.488  0.00  0.00    +0.000 S 
ATOM      7  N   UNL     1       0.023  10.102  21.744  0.00  0.00    +0.000 N 
ATOM      8  C   UNL     1      -0.589  10.112  23.061  0.00  0.00    +0.000 C 
ATOM      9  C   UNL     1       0.161   8.888  21.089  0.00  0.00    +0.000 C 
ATOM     10  O   UNL     1      -0.423   7.869  21.439  0.00  0.00    +0.000 OA
ATOM     11  C   UNL     1       2.389   8.709  17.900  0.00  0.00    +0.000 C 
ATOM     12  C   UNL     1       3.317   8.086  17.171  0.00  0.00    +0.000 C 
ATOM     13  C   UNL     1       3.856   6.816  17.625  0.00  0.00    +0.000 A 
ATOM     14  C   UNL     1       4.841   6.184  16.841  0.00  0.00    +0.000 A 
ATOM     15  C   UNL     1       5.399   4.968  17.236  0.00  0.00    +0.000 A 
ATOM     16  C   UNL     1       6.430   4.270  16.404  0.00  0.00    +0.000 C 
ATOM     17  C   UNL     1       4.967   4.404  18.433  0.00  0.00    +0.000 A 
ATOM     18  C   UNL     1       3.987   5.036  19.210  0.00  0.00    +0.000 A 
ATOM     19  C   UNL     1       3.387   6.253  18.829  0.00  0.00    +0.000 A 
ENDROOT
BRANCH   1  21
ATOM     20  C   UNL     1       1.278   4.980  20.687  0.00  0.00    +0.000 C 
ATOM     21  C   UNL     1       2.049   6.280  20.876  0.00  0.00    +0.000 C 
ENDBRANCH   1  21
TORSDOF 1
ENDMDL
MODEL 4
REMARK VINA RESULT:      -6.3      2.419      3.533
REMARK  Name = 
REMARK  4 active torsions:
REMARK  status: ('A' for Active; 'I' for Inactive)
REMARK    1  A    between atoms: C_1  and  C_2
REMARK    2  A    between atoms: C_2  and  N_3
REMARK    3  A    between atoms: N_9  and  C_10
REMARK    4  A    between atoms: C_17  and  C_18
REMARK                            x       y       z     vdW  Elec       q    Type
REMARK                         _______ _______ _______ _____ _____    ______ ____
ROOT
ATOM      1  N   UNL     1       0.858  10.594  19.739  0.00  0.00    +0.000 N 
ATOM      2  C   UNL     1       0.234  10.679  21.034  0.00  0.00    +0.000 C 
ATOM      3  C   UNL     1      -0.508  11.690  21.586  0.00  0.00    +0.000 C 
ATOM      4  S   UNL     1      -1.479  11.507  23.050  0.00  0.00    +0.000 S 
ATOM      5  C   UNL     1      -2.642  12.713  22.549  0.00  0.00    +0.000 C 
ATOM      6  S   UNL     1      -4.147  12.844  23.251  0.00  0.00    +0.000 S 
ATOM      7  N   UNL     1      -2.097  13.461  21.538  0.00  0.00    +0.000 N 
ATOM      8  C   UNL     1      -2.650  14.706  21.034  0.00  0.00    +0.000 C 
ATOM      9  C   UNL     1      -0.835  13.078  21.109  0.00  0.00    +0.000 C 
ATOM     10  O   UNL     1      -0.063  13.840  20.538  0.00  0.00    +0.000 OA
ATOM     11  C   UNL     1       0.400   9.464  21.872  0.00  0.00    +0.000 C 
ATOM     12  C   UNL     1       1.005   8.342  21.479  0.00  0.00    +0.000 C 
ATOM     13  C   UNL     1       1.573   8.260  20.145  0.00  0.00    +0.000 A 
ATOM     14  C   UNL     1       2.199   7.060  19.752  0.00  0.00    +0.000 A 
ATOM     15  C   UNL     1       2.752   6.925  18.479  0.00  0.00    +0.000 A 
ATOM     16  C   UNL     1       3.442   5.666  18.053  0.00  0.00    +0.000 C 
ATOM     17  C   UNL     1       2.655   8.001  17.602  0.00  0.00    +0.000 A 
ATOM     18  C   UNL     1       2.031   9.193  17.996  0.00  0.00    +0.000 A 
ATOM     19  C   UNL     1       1.482   9.371  19.282  0.00  0.00    +0.000 A 
ENDROOT
BRANCH   1  21
ATOM     20  C   UNL     1       2.017  12.422  18.534  0.00  0.00    +0.000 C 
ATOM     21  C   UNL     1       0.731  11.622  18.693  0.00  0.00    +0.000 C 
ENDBRANCH   1  21
TORSDOF 1
ENDMDL
MODEL 5
REMARK VINA RESULT:      -6.1      3.470      4.959
REMARK  Name = 
REMARK  4 active torsions:
REMARK  status: ('A' for Active; 'I' for Inactive)
REMARK    1  A    between atoms: C_1  and  C_2
REMARK    2  A    between atoms: C_2  and  N_3
REMARK    3  A    between atoms: N_9  and  C_10
REMARK    4  A    between atoms: C_17  and  C_18
REMARK                            x       y       z     vdW  Elec       q    Type
REMARK                         _______ _______ _______ _____ _____    ______ ____
ROOT
ATOM      1  N   UNL     1      -0.807  11.456  20.672  0.00  0.00    +0.000 N 
ATOM      2  C   UNL     1      -1.468  11.635  21.939  0.00  0.00    +0.000 C 
ATOM      3  C   UNL     1      -2.382  12.580  22.325  0.00  0.00    +0.000 C 
ATOM      4  S   UNL     1      -3.345  12.467  23.802  0.00  0.00    +0.000 S 
ATOM      5  C   UNL     1      -4.681  13.364  23.118  0.00  0.00    +0.000 C 
ATOM      6  S   UNL     1      -6.203  13.346  23.794  0.00  0.00    +0.000 S 
ATOM      7  N   UNL     1      -4.244  14.026  22.000  0.00  0.00    +0.000 N 
ATOM      8  C   UNL     1      -4.986  15.063  21.306  0.00  0.00    +0.000 C 
ATOM      9  C   UNL     1      -2.925  13.800  21.634  0.00  0.00    +0.000 C 
ATOM     10  O   UNL     1      -2.279  14.582  20.947  0.00  0.00    +0.000 OA
ATOM     11  C   UNL     1      -1.120  10.613  22.959  0.00  0.00    +0.000 C 
ATOM     12  C   UNL     1      -0.326   9.563  22.748  0.00  0.00    +0.000 C 
ATOM     13  C   UNL     1       0.281   9.369  21.442  0.00  0.00    +0.000 A 
ATOM     14  C   UNL     1       1.108   8.247  21.244  0.00  0.00    +0.000 A 
ATOM     15  C   UNL     1       1.707   8.009  20.007  0.00  0.00    +0.000 A 
ATOM     16  C   UNL     1       2.609   6.835  19.785  0.00  0.00    +0.000 C 
ATOM     17  C   UNL     1       1.453   8.902  18.970  0.00  0.00    +0.000 A 
ATOM     18  C   UNL     1       0.628  10.017  19.171  0.00  0.00    +0.000 A 
ATOM     19  C   UNL     1       0.025  10.299  20.414  0.00  0.00    +0.000 A 
ENDROOT
BRANCH   1  21
ATOM     20  C   UNL     1      -2.300  11.764  18.720  0.00  0.00    +0.000 C 
ATOM     21  C   UNL     1      -1.078  12.269  19.476  0.00  0.00    +0.000 C 
ENDBRANCH   1  21
TORSDOF 1
ENDMDL
MODEL 6
REMARK VINA RESULT:      -5.9      4.839      6.058
REMARK  Name = 
REMARK  4 active torsions:
REMARK  status: ('A' for Active; 'I' for Inactive)
REMARK    1  A    between atoms: C_1  and  C_2
REMARK    2  A    between atoms: C_2  and  N_3
REMARK    3  A    between atoms: N_9  and  C_10
REMARK    4  A    between atoms: C_17  and  C_18
REMARK                            x       y       z     vdW  Elec       q    Type
REMARK                         _______ _______ _______ _____ _____    ______ ____
ROOT
ATOM      1  N   UNL     1      -2.675  11.714  19.517  0.00  0.00    +0.000 N 
ATOM      2  C   UNL     1      -3.830  11.693  18.658  0.00  0.00    +0.000 C 
ATOM      3  C   UNL     1      -5.021  12.361  18.774  0.00  0.00    +0.000 C 
ATOM      4  S   UNL     1      -6.206  12.486  17.470  0.00  0.00    +0.000 S 
ATOM      5  C   UNL     1      -6.800  14.034  18.023  0.00  0.00    +0.000 C 
ATOM      6  S   UNL     1      -7.704  15.040  17.051  0.00  0.00    +0.000 S 
ATOM      7  N   UNL     1      -6.393  14.227  19.318  0.00  0.00    +0.000 N 
ATOM      8  C   UNL     1      -6.892  15.269  20.199  0.00  0.00    +0.000 C 
ATOM      9  C   UNL     1      -5.586  13.237  19.858  0.00  0.00    +0.000 C 
ATOM     10  O   UNL     1      -5.477  13.046  21.063  0.00  0.00    +0.000 OA
ATOM     11  C   UNL     1      -3.678  10.841  17.451  0.00  0.00    +0.000 C 
ATOM     12  C   UNL     1      -2.565  10.188  17.113  0.00  0.00    +0.000 C 
ATOM     13  C   UNL     1      -1.392  10.275  17.964  0.00  0.00    +0.000 A 
ATOM     14  C   UNL     1      -0.227   9.583  17.578  0.00  0.00    +0.000 A 
ATOM     15  C   UNL     1       0.930   9.641  18.355  0.00  0.00    +0.000 A 
ATOM     16  C   UNL     1       2.169   8.893  17.973  0.00  0.00    +0.000 C 
ATOM     17  C   UNL     1       0.907  10.413  19.513  0.00  0.00    +0.000 A 
ATOM     18  C   UNL     1      -0.253  11.101  19.894  0.00  0.00    +0.000 A 
ATOM     19  C   UNL     1      -1.446  11.046  19.144  0.00  0.00    +0.000 A 
ENDROOT
BRANCH   1  21
ATOM     20  C   UNL     1      -2.020  13.956  20.342  0.00  0.00    +0.000 C 
ATOM     21  C   UNL     1      -2.544  12.573  20.705  0.00  0.00    +0.000 C 
ENDBRANCH   1  21
TORSDOF 1
ENDMDL
MODEL 7
REMARK VINA RESULT:      -5.8      5.742      7.141
REMARK  Name = 
REMARK  4 active torsions:
REMARK  status: ('A' for Active; 'I' for Inactive)
REMARK    1  A    between atoms: C_1  and  C_2
REMARK    2  A    between atoms: C_2  and  N_3
REMARK    3  A    between atoms: N_9  and  C_10
REMARK    4  A    between atoms: C_17  and  C_18
REMARK                            x       y       z     vdW  Elec       q    Type
REMARK                         _______ _______ _______ _____ _____    ______ ____
ROOT
ATOM      1  N   UNL     1      -3.254  12.148  19.988  0.00  0.00    +0.000 N 
ATOM      2  C   UNL     1      -4.452  12.682  20.583  0.00  0.00    +0.000 C 
ATOM      3  C   UNL     1      -4.635  13.279  21.803  0.00  0.00    +0.000 C 
ATOM      4  S   UNL     1      -6.090  14.176  22.248  0.00  0.00    +0.000 S 
ATOM      5  C   UNL     1      -5.225  15.232  23.340  0.00  0.00    +0.000 C 
ATOM      6  S   UNL     1      -5.867  16.671  23.881  0.00  0.00    +0.000 S 
ATOM      7  N   UNL     1      -4.008  14.672  23.628  0.00  0.00    +0.000 N 
ATOM      8  C   UNL     1      -3.115  15.119  24.683  0.00  0.00    +0.000 C 
ATOM      9  C   UNL     1      -3.714  13.485  22.973  0.00  0.00    +0.000 C 
ATOM     10  O   UNL     1      -2.900  12.672  23.397  0.00  0.00    +0.000 OA
ATOM     11  C   UNL     1      -5.655  12.596  19.716  0.00  0.00    +0.000 C 
ATOM     12  C   UNL     1      -5.662  12.137  18.463  0.00  0.00    +0.000 C 
ATOM     13  C   UNL     1      -4.428  11.661  17.864  0.00  0.00    +0.000 A 
ATOM     14  C   UNL     1      -4.462  11.190  16.537  0.00  0.00    +0.000 A 
ATOM     15  C   UNL     1      -3.303  10.731  15.911  0.00  0.00    +0.000 A 
ATOM     16  C   UNL     1      -3.325  10.204  14.509  0.00  0.00    +0.000 C 
ATOM     17  C   UNL     1      -2.111  10.765  16.626  0.00  0.00    +0.000 A 
ATOM     18  C   UNL     1      -2.080  11.235  17.947  0.00  0.00    +0.000 A 
ATOM     19  C   UNL     1      -3.236  11.685  18.616  0.00  0.00    +0.000 A 
ENDROOT
BRANCH   1  21
ATOM     20  C   UNL     1      -1.258  13.573  20.338  0.00  0.00    +0.000 C 
ATOM     21  C   UNL     1      -1.920  12.227  20.604  0.00  0.00    +0.000 C 
ENDBRANCH   1  21
TORSDOF 1
ENDMDL
MODEL 8
REMARK VINA RESULT:      -5.8      5.353      6.678
REMARK  Name = 
REMARK  4 active torsions:
REMARK  status: ('A' for Active; 'I' for Inactive)
REMARK    1  A    between atoms: C_1  and  C_2
REMARK    2  A    between atoms: C_2  and  N_3
REMARK    3  A    between atoms: N_9  and  C_10
REMARK    4  A    between atoms: C_17  and  C_18
REMARK                            x       y       z     vdW  Elec       q    Type
REMARK                         _______ _______ _______ _____ _____    ______ ____
ROOT
ATOM      1  N   UNL     1      -2.575  12.050  19.952  0.00  0.00    +0.000 N 
ATOM      2  C   UNL     1      -3.603  12.678  20.741  0.00  0.00    +0.000 C 
ATOM      3  C   UNL     1      -3.520  13.286  21.966  0.00  0.00    +0.000 C 
ATOM      4  S   UNL     1      -4.797  14.297  22.648  0.00  0.00    +0.000 S 
ATOM      5  C   UNL     1      -3.672  15.277  23.559  0.00  0.00    +0.000 C 
ATOM      6  S   UNL     1      -4.091  16.762  24.187  0.00  0.00    +0.000 S 
ATOM      7  N   UNL     1      -2.472  14.619  23.636  0.00  0.00    +0.000 N 
ATOM      8  C   UNL     1      -1.375  14.990  24.512  0.00  0.00    +0.000 C 
ATOM      9  C   UNL     1      -2.394  13.413  22.955  0.00  0.00    +0.000 C 
ATOM     10  O   UNL     1      -1.586  12.536  23.239  0.00  0.00    +0.000 OA
ATOM     11  C   UNL     1      -4.942  12.692  20.099  0.00  0.00    +0.000 C 
ATOM     12  C   UNL     1      -5.207  12.237  18.873  0.00  0.00    +0.000 C 
ATOM     13  C   UNL     1      -4.139  11.664  18.072  0.00  0.00    +0.000 A 
ATOM     14  C   UNL     1      -4.444  11.200  16.778  0.00  0.00    +0.000 A 
ATOM     15  C   UNL     1      -3.454  10.649  15.964  0.00  0.00    +0.000 A 
ATOM     16  C   UNL     1      -3.764  10.129  14.594  0.00  0.00    +0.000 C 
ATOM     17  C   UNL     1      -2.155  10.585  16.459  0.00  0.00    +0.000 A 
ATOM     18  C   UNL     1      -1.856  11.048  17.747  0.00  0.00    +0.000 A 
ATOM     19  C   UNL     1      -2.836  11.590  18.604  0.00  0.00    +0.000 A 
ENDROOT
BRANCH   1  21
ATOM     20  C   UNL     1      -0.437  13.300  19.913  0.00  0.00    +0.000 C 
ATOM     21  C   UNL     1      -1.151  12.019  20.323  0.00  0.00    +0.000 C 
ENDBRANCH   1  21
TORSDOF 1
ENDMDL
MODEL 9
REMARK VINA RESULT:      -5.7      1.319      1.683
REMARK  Name = 
REMARK  4 active torsions:
REMARK  status: ('A' for Active; 'I' for Inactive)
REMARK    1  A    between atoms: C_1  and  C_2
REMARK    2  A    between atoms: C_2  and  N_3
REMARK    3  A    between atoms: N_9  and  C_10
REMARK    4  A    between atoms: C_17  and  C_18
REMARK                            x       y       z     vdW  Elec       q    Type
REMARK                         _______ _______ _______ _____ _____    ______ ____
ROOT
ATOM      1  N   UNL     1       0.689   9.790  20.616  0.00  0.00    +0.000 N 
ATOM      2  C   UNL     1       0.365  11.033  19.966  0.00  0.00    +0.000 C 
ATOM      3  C   UNL     1      -0.205  12.169  20.479  0.00  0.00    +0.000 C 
ATOM      4  S   UNL     1      -0.233  13.719  19.635  0.00  0.00    +0.000 S 
ATOM      5  C   UNL     1      -0.226  14.642  21.120  0.00  0.00    +0.000 C 
ATOM      6  S   UNL     1       0.166  16.260  21.161  0.00  0.00    +0.000 S 
ATOM      7  N   UNL     1      -0.577  13.816  22.156  0.00  0.00    +0.000 N 
ATOM      8  C   UNL     1      -0.923  14.262  23.494  0.00  0.00    +0.000 C 
ATOM      9  C   UNL     1      -0.787  12.484  21.830  0.00  0.00    +0.000 C 
ATOM     10  O   UNL     1      -1.473  11.729  22.509  0.00  0.00    +0.000 OA
ATOM     11  C   UNL     1       0.743  11.088  18.531  0.00  0.00    +0.000 C 
ATOM     12  C   UNL     1       1.391  10.124  17.874  0.00  0.00    +0.000 C 
ATOM     13  C   UNL     1       1.762   8.904  18.569  0.00  0.00    +0.000 A 
ATOM     14  C   UNL     1       2.453   7.906  17.854  0.00  0.00    +0.000 A 
ATOM     15  C   UNL     1       2.841   6.720  18.476  0.00  0.00    +0.000 A 
ATOM     16  C   UNL     1       3.555   5.638  17.726  0.00  0.00    +0.000 C 
ATOM     17  C   UNL     1       2.542   6.555  19.825  0.00  0.00    +0.000 A 
ATOM     18  C   UNL     1       1.854   7.550  20.533  0.00  0.00    +0.000 A 
ATOM     19  C   UNL     1       1.428   8.751  19.930  0.00  0.00    +0.000 A 
ENDROOT
BRANCH   1  21
ATOM     20  C   UNL     1      -0.654   8.609  22.330  0.00  0.00    +0.000 C 
ATOM     21  C   UNL     1       0.519   9.542  22.057  0.00  0.00    +0.000 C 
ENDBRANCH   1  21
TORSDOF 1
ENDMDL
