MODEL 1
REMARK VINA RESULT:      -7.9      0.000      0.000
REMARK  Name = 
REMARK  5 active torsions:
REMARK  status: ('A' for Active; 'I' for Inactive)
REMARK    1  A    between atoms: C_1  and  C_2
REMARK    2  A    between atoms: C_2  and  C_3
REMARK    3  A    between atoms: C_2  and  C_4
REMARK    4  A    between atoms: C_6  and  C_7
REMARK    5  A    between atoms: C_14  and  C_15
REMARK                            x       y       z     vdW  Elec       q    Type
REMARK                         _______ _______ _______ _____ _____    ______ ____
ROOT
ATOM      1  C   UNL     1       1.757   4.371  19.843  0.00  0.00    +0.000 A 
ATOM      2  C   UNL     1       1.281   5.706  20.063  0.00  0.00    +0.000 A 
ATOM      3  C   UNL     1       2.043   6.855  19.861  0.00  0.00    +0.000 A 
ATOM      4  C   UNL     1       3.295   6.615  19.313  0.00  0.00    +0.000 A 
ATOM      5  C   UNL     1       3.782   5.321  19.033  0.00  0.00    +0.000 A 
ATOM      6  N   UNL     1       3.046   4.205  19.374  0.00  0.00    +0.000 N 
ATOM      7  C   UNL     1       3.595   2.907  19.286  0.00  0.00    +0.000 A 
ATOM      8  C   UNL     1       4.893   2.478  19.690  0.00  0.00    +0.000 A 
ATOM      9  C   UNL     1       4.959   1.142  19.359  0.00  0.00    +0.000 A 
ATOM     10  N   UNL     1       3.729   0.823  18.871  0.00  0.00    +0.000 N 
ATOM     11  N   UNL     1       2.945   1.895  18.704  0.00  0.00    +0.000 NA
ATOM     12  H   UNL     1       3.364  -0.090  18.609  0.00  0.00    +0.000 HD
ENDROOT
BRANCH   3  13
ATOM     13  C   UNL     1       1.590   8.235  20.204  0.00  0.00    +0.000 A 
ATOM     14  C   UNL     1       1.401   9.231  19.225  0.00  0.00    +0.000 A 
ATOM     15  C   UNL     1       0.925  10.509  19.558  0.00  0.00    +0.000 A 
ATOM     16  C   UNL     1       0.614  10.829  20.873  0.00  0.00    +0.000 A 
ATOM     17  C   UNL     1       0.788   9.872  21.864  0.00  0.00    +0.000 A 
ATOM     18  C   UNL     1       1.277   8.601  21.533  0.00  0.00    +0.000 A 
ENDBRANCH   3  13
BRANCH   5  19
ATOM     19  C   UNL     1       5.090   5.189  18.338  0.00  0.00    +0.000 A 
ATOM     20  C   UNL     1       6.295   5.465  19.017  0.00  0.00    +0.000 A 
ATOM     21  C   UNL     1       7.536   5.233  18.423  0.00  0.00    +0.000 A 
ATOM     22  C   UNL     1       7.602   4.684  17.149  0.00  0.00    +0.000 A 
ATOM     23  C   UNL     1       6.433   4.471  16.427  0.00  0.00    +0.000 A 
ATOM     24  C   UNL     1       5.196   4.789  16.991  0.00  0.00    +0.000 A 
ENDBRANCH   5  19
BRANCH   1  26
ATOM     25  C   UNL     1       0.304   2.273  19.185  0.00  0.00    +0.000 C 
ATOM     26  C   UNL     1       0.812   3.228  20.277  0.00  0.00    +0.000 C 
ATOM     27  C   UNL     1       1.253   2.501  21.553  0.00  0.00    +0.000 C 
ENDBRANCH   1  26
TORSDOF 3
ENDMDL
MODEL 2
REMARK VINA RESULT:      -7.6      2.057      4.646
REMARK  Name = 
REMARK  5 active torsions:
REMARK  status: ('A' for Active; 'I' for Inactive)
REMARK    1  A    between atoms: C_1  and  C_2
REMARK    2  A    between atoms: C_2  and  C_3
REMARK    3  A    between atoms: C_2  and  C_4
REMARK    4  A    between atoms: C_6  and  C_7
REMARK    5  A    between atoms: C_14  and  C_15
REMARK                            x       y       z     vdW  Elec       q    Type
REMARK                         _______ _______ _______ _____ _____    ______ ____
ROOT
ATOM      1  C   UNL     1       4.029   7.129  17.481  0.00  0.00    +0.000 A 
ATOM      2  C   UNL     1       3.313   8.364  17.625  0.00  0.00    +0.000 A 
ATOM      3  C   UNL     1       2.121   8.502  18.333  0.00  0.00    +0.000 A 
ATOM      4  C   UNL     1       1.721   7.353  18.999  0.00  0.00    +0.000 A 
ATOM      5  C   UNL     1       2.423   6.132  18.926  0.00  0.00    +0.000 A 
ATOM      6  N   UNL     1       3.524   6.004  18.105  0.00  0.00    +0.000 N 
ATOM      7  C   UNL     1       4.120   4.746  17.864  0.00  0.00    +0.000 A 
ATOM      8  C   UNL     1       3.468   3.507  17.596  0.00  0.00    +0.000 A 
ATOM      9  C   UNL     1       4.478   2.578  17.477  0.00  0.00    +0.000 A 
ATOM     10  N   UNL     1       5.638   3.279  17.589  0.00  0.00    +0.000 N 
ATOM     11  N   UNL     1       5.439   4.554  17.948  0.00  0.00    +0.000 NA
ATOM     12  H   UNL     1       6.595   2.954  17.463  0.00  0.00    +0.000 HD
ENDROOT
BRANCH   3  13
ATOM     13  C   UNL     1       1.315   9.757  18.383  0.00  0.00    +0.000 A 
ATOM     14  C   UNL     1      -0.093   9.751  18.323  0.00  0.00    +0.000 A 
ATOM     15  C   UNL     1      -0.839  10.936  18.423  0.00  0.00    +0.000 A 
ATOM     16  C   UNL     1      -0.206  12.159  18.597  0.00  0.00    +0.000 A 
ATOM     17  C   UNL     1       1.181  12.203  18.661  0.00  0.00    +0.000 A 
ATOM     18  C   UNL     1       1.926  11.022  18.547  0.00  0.00    +0.000 A 
ENDBRANCH   3  13
BRANCH   5  19
ATOM     19  C   UNL     1       1.968   4.998  19.774  0.00  0.00    +0.000 A 
ATOM     20  C   UNL     1       0.986   4.100  19.306  0.00  0.00    +0.000 A 
ATOM     21  C   UNL     1       0.632   2.964  20.034  0.00  0.00    +0.000 A 
ATOM     22  C   UNL     1       1.278   2.678  21.229  0.00  0.00    +0.000 A 
ATOM     23  C   UNL     1       2.196   3.581  21.752  0.00  0.00    +0.000 A 
ATOM     24  C   UNL     1       2.482   4.763  21.065  0.00  0.00    +0.000 A 
ENDBRANCH   5  19
BRANCH   1  26
ATOM     25  C   UNL     1       6.643   7.180  17.155  0.00  0.00    +0.000 C 
ATOM     26  C   UNL     1       5.242   7.149  16.525  0.00  0.00    +0.000 C 
ATOM     27  C   UNL     1       5.133   6.166  15.352  0.00  0.00    +0.000 C 
ENDBRANCH   1  26
TORSDOF 3
ENDMDL
MODEL 3
REMARK VINA RESULT:      -7.6      0.831      1.392
REMARK  Name = 
REMARK  5 active torsions:
REMARK  status: ('A' for Active; 'I' for Inactive)
REMARK    1  A    between atoms: C_1  and  C_2
REMARK    2  A    between atoms: C_2  and  C_3
REMARK    3  A    between atoms: C_2  and  C_4
REMARK    4  A    between atoms: C_6  and  C_7
REMARK    5  A    between atoms: C_14  and  C_15
REMARK                            x       y       z     vdW  Elec       q    Type
REMARK                         _______ _______ _______ _____ _____    ______ ____
ROOT
ATOM      1  C   UNL     1       1.829   4.543  19.348  0.00  0.00    +0.000 A 
ATOM      2  C   UNL     1       1.440   5.924  19.363  0.00  0.00    +0.000 A 
ATOM      3  C   UNL     1       2.232   6.967  18.888  0.00  0.00    +0.000 A 
ATOM      4  C   UNL     1       3.410   6.555  18.283  0.00  0.00    +0.000 A 
ATOM      5  C   UNL     1       3.806   5.203  18.201  0.00  0.00    +0.000 A 
ATOM      6  N   UNL     1       3.056   4.215  18.804  0.00  0.00    +0.000 N 
ATOM      7  C   UNL     1       3.532   2.889  18.905  0.00  0.00    +0.000 A 
ATOM      8  C   UNL     1       4.842   2.456  19.263  0.00  0.00    +0.000 A 
ATOM      9  C   UNL     1       4.813   1.081  19.176  0.00  0.00    +0.000 A 
ATOM     10  N   UNL     1       3.527   0.760  18.867  0.00  0.00    +0.000 N 
ATOM     11  N   UNL     1       2.781   1.834  18.578  0.00  0.00    +0.000 NA
ATOM     12  H   UNL     1       3.095  -0.160  18.809  0.00  0.00    +0.000 HD
ENDROOT
BRANCH   3  13
ATOM     13  C   UNL     1       1.880   8.412  19.013  0.00  0.00    +0.000 A 
ATOM     14  C   UNL     1       2.131   9.341  17.983  0.00  0.00    +0.000 A 
ATOM     15  C   UNL     1       1.748  10.686  18.095  0.00  0.00    +0.000 A 
ATOM     16  C   UNL     1       1.094  11.144  19.231  0.00  0.00    +0.000 A 
ATOM     17  C   UNL     1       0.829  10.257  20.267  0.00  0.00    +0.000 A 
ATOM     18  C   UNL     1       1.225   8.917  20.160  0.00  0.00    +0.000 A 
ENDBRANCH   3  13
BRANCH   5  19
ATOM     19  C   UNL     1       5.031   4.867  17.427  0.00  0.00    +0.000 A 
ATOM     20  C   UNL     1       4.933   4.331  16.126  0.00  0.00    +0.000 A 
ATOM     21  C   UNL     1       6.065   4.120  15.338  0.00  0.00    +0.000 A 
ATOM     22  C   UNL     1       7.318   4.476  15.818  0.00  0.00    +0.000 A 
ATOM     23  C   UNL     1       7.454   4.936  17.122  0.00  0.00    +0.000 A 
ATOM     24  C   UNL     1       6.328   5.060  17.940  0.00  0.00    +0.000 A 
ENDBRANCH   5  19
BRANCH   1  26
ATOM     25  C   UNL     1       0.239   2.445  19.221  0.00  0.00    +0.000 C 
ATOM     26  C   UNL     1       0.880   3.557  20.066  0.00  0.00    +0.000 C 
ATOM     27  C   UNL     1       1.400   3.059  21.420  0.00  0.00    +0.000 C 
ENDBRANCH   1  26
TORSDOF 3
ENDMDL
MODEL 4
REMARK VINA RESULT:      -7.5      0.517      1.070
REMARK  Name = 
REMARK  5 active torsions:
REMARK  status: ('A' for Active; 'I' for Inactive)
REMARK    1  A    between atoms: C_1  and  C_2
REMARK    2  A    between atoms: C_2  and  C_3
REMARK    3  A    between atoms: C_2  and  C_4
REMARK    4  A    between atoms: C_6  and  C_7
REMARK    5  A    between atoms: C_14  and  C_15
REMARK                            x       y       z     vdW  Elec       q    Type
REMARK                         _______ _______ _______ _____ _____    ______ ____
ROOT
ATOM      1  C   UNL     1       1.657   4.525  19.945  0.00  0.00    +0.000 A 
ATOM      2  C   UNL     1       1.153   5.828  20.269  0.00  0.00    +0.000 A 
ATOM      3  C   UNL     1       1.857   7.014  20.070  0.00  0.00    +0.000 A 
ATOM      4  C   UNL     1       3.069   6.850  19.415  0.00  0.00    +0.000 A 
ATOM      5  C   UNL     1       3.578   5.591  19.033  0.00  0.00    +0.000 A 
ATOM      6  N   UNL     1       2.909   4.432  19.371  0.00  0.00    +0.000 N 
ATOM      7  C   UNL     1       3.495   3.162  19.174  0.00  0.00    +0.000 A 
ATOM      8  C   UNL     1       4.835   2.764  19.454  0.00  0.00    +0.000 A 
ATOM      9  C   UNL     1       4.921   1.450  19.050  0.00  0.00    +0.000 A 
ATOM     10  N   UNL     1       3.669   1.107  18.643  0.00  0.00    +0.000 N 
ATOM     11  N   UNL     1       2.837   2.155  18.592  0.00  0.00    +0.000 NA
ATOM     12  H   UNL     1       3.316   0.194  18.363  0.00  0.00    +0.000 HD
ENDROOT
BRANCH   3  13
ATOM     13  C   UNL     1       1.385   8.357  20.517  0.00  0.00    +0.000 A 
ATOM     14  C   UNL     1       1.170   9.419  19.616  0.00  0.00    +0.000 A 
ATOM     15  C   UNL     1       0.676  10.660  20.046  0.00  0.00    +0.000 A 
ATOM     16  C   UNL     1       0.372  10.877  21.383  0.00  0.00    +0.000 A 
ATOM     17  C   UNL     1       0.571   9.853  22.300  0.00  0.00    +0.000 A 
ATOM     18  C   UNL     1       1.078   8.619  21.872  0.00  0.00    +0.000 A 
ENDBRANCH   3  13
BRANCH   5  19
ATOM     19  C   UNL     1       4.831   5.543  18.233  0.00  0.00    +0.000 A 
ATOM     20  C   UNL     1       4.784   5.345  16.837  0.00  0.00    +0.000 A 
ATOM     21  C   UNL     1       5.936   5.417  16.052  0.00  0.00    +0.000 A 
ATOM     22  C   UNL     1       7.156   5.725  16.640  0.00  0.00    +0.000 A 
ATOM     23  C   UNL     1       7.245   5.852  18.021  0.00  0.00    +0.000 A 
ATOM     24  C   UNL     1       6.106   5.690  18.813  0.00  0.00    +0.000 A 
ENDBRANCH   5  19
BRANCH   1  26
ATOM     25  C   UNL     1       0.260   2.387  19.296  0.00  0.00    +0.000 C 
ATOM     26  C   UNL     1       0.789   3.326  20.391  0.00  0.00    +0.000 C 
ATOM     27  C   UNL     1       1.335   2.577  21.613  0.00  0.00    +0.000 C 
ENDBRANCH   1  26
TORSDOF 3
ENDMDL
MODEL 5
REMARK VINA RESULT:      -7.5      1.923      4.529
REMARK  Name = 
REMARK  5 active torsions:
REMARK  status: ('A' for Active; 'I' for Inactive)
REMARK    1  A    between atoms: C_1  and  C_2
REMARK    2  A    between atoms: C_2  and  C_3
REMARK    3  A    between atoms: C_2  and  C_4
REMARK    4  A    between atoms: C_6  and  C_7
REMARK    5  A    between atoms: C_14  and  C_15
REMARK                            x       y       z     vdW  Elec       q    Type
REMARK                         _______ _______ _______ _____ _____    ______ ____
ROOT
ATOM      1  C   UNL     1       3.999   6.765  17.563  0.00  0.00    +0.000 A 
ATOM      2  C   UNL     1       3.413   8.058  17.772  0.00  0.00    +0.000 A 
ATOM      3  C   UNL     1       2.300   8.294  18.576  0.00  0.00    +0.000 A 
ATOM      4  C   UNL     1       1.852   7.178  19.267  0.00  0.00    +0.000 A 
ATOM      5  C   UNL     1       2.432   5.899  19.130  0.00  0.00    +0.000 A 
ATOM      6  N   UNL     1       3.447   5.683  18.221  0.00  0.00    +0.000 N 
ATOM      7  C   UNL     1       3.904   4.379  17.926  0.00  0.00    +0.000 A 
ATOM      8  C   UNL     1       3.122   3.208  17.705  0.00  0.00    +0.000 A 
ATOM      9  C   UNL     1       4.030   2.193  17.498  0.00  0.00    +0.000 A 
ATOM     10  N   UNL     1       5.255   2.785  17.519  0.00  0.00    +0.000 N 
ATOM     11  N   UNL     1       5.203   4.068  17.899  0.00  0.00    +0.000 NA
ATOM     12  H   UNL     1       6.164   2.377  17.313  0.00  0.00    +0.000 HD
ENDROOT
BRANCH   3  13
ATOM     13  C   UNL     1       1.618   9.616  18.699  0.00  0.00    +0.000 A 
ATOM     14  C   UNL     1       2.186  10.807  18.205  0.00  0.00    +0.000 A 
ATOM     15  C   UNL     1       1.508  12.034  18.282  0.00  0.00    +0.000 A 
ATOM     16  C   UNL     1       0.241  12.108  18.844  0.00  0.00    +0.000 A 
ATOM     17  C   UNL     1      -0.351  10.955  19.341  0.00  0.00    +0.000 A 
ATOM     18  C   UNL     1       0.332   9.733  19.276  0.00  0.00    +0.000 A 
ENDBRANCH   3  13
BRANCH   5  19
ATOM     19  C   UNL     1       1.947   4.800  20.007  0.00  0.00    +0.000 A 
ATOM     20  C   UNL     1       0.849   4.004  19.619  0.00  0.00    +0.000 A 
ATOM     21  C   UNL     1       0.452   2.895  20.367  0.00  0.00    +0.000 A 
ATOM     22  C   UNL     1       1.168   2.533  21.501  0.00  0.00    +0.000 A 
ATOM     23  C   UNL     1       2.207   3.341  21.949  0.00  0.00    +0.000 A 
ATOM     24  C   UNL     1       2.543   4.501  21.247  0.00  0.00    +0.000 A 
ENDBRANCH   5  19
BRANCH   1  26
ATOM     25  C   UNL     1       4.776   7.065  15.063  0.00  0.00    +0.000 C 
ATOM     26  C   UNL     1       5.127   6.688  16.511  0.00  0.00    +0.000 C 
ATOM     27  C   UNL     1       6.462   7.281  16.979  0.00  0.00    +0.000 C 
ENDBRANCH   1  26
TORSDOF 3
ENDMDL
MODEL 6
REMARK VINA RESULT:      -7.4      9.782     12.132
REMARK  Name = 
REMARK  5 active torsions:
REMARK  status: ('A' for Active; 'I' for Inactive)
REMARK    1  A    between atoms: C_1  and  C_2
REMARK    2  A    between atoms: C_2  and  C_3
REMARK    3  A    between atoms: C_2  and  C_4
REMARK    4  A    between atoms: C_6  and  C_7
REMARK    5  A    between atoms: C_14  and  C_15
REMARK                            x       y       z     vdW  Elec       q    Type
REMARK                         _______ _______ _______ _____ _____    ______ ____
ROOT
ATOM      1  C   UNL     1       9.710  15.319  22.783  0.00  0.00    +0.000 A 
ATOM      2  C   UNL     1       8.984  14.581  23.777  0.00  0.00    +0.000 A 
ATOM      3  C   UNL     1       8.547  13.269  23.616  0.00  0.00    +0.000 A 
ATOM      4  C   UNL     1       8.970  12.670  22.438  0.00  0.00    +0.000 A 
ATOM      5  C   UNL     1       9.729  13.344  21.457  0.00  0.00    +0.000 A 
ATOM      6  N   UNL     1      10.024  14.684  21.597  0.00  0.00    +0.000 N 
ATOM      7  C   UNL     1      10.607  15.422  20.543  0.00  0.00    +0.000 A 
ATOM      8  C   UNL     1      10.265  15.388  19.160  0.00  0.00    +0.000 A 
ATOM      9  C   UNL     1      11.145  16.250  18.542  0.00  0.00    +0.000 A 
ATOM     10  N   UNL     1      11.885  16.800  19.543  0.00  0.00    +0.000 N 
ATOM     11  N   UNL     1      11.661  16.221  20.729  0.00  0.00    +0.000 NA
ATOM     12  H   UNL     1      12.573  17.548  19.490  0.00  0.00    +0.000 HD
ENDROOT
BRANCH   3  13
ATOM     13  C   UNL     1       7.690  12.542  24.598  0.00  0.00    +0.000 A 
ATOM     14  C   UNL     1       7.872  12.661  25.990  0.00  0.00    +0.000 A 
ATOM     15  C   UNL     1       7.024  12.012  26.902  0.00  0.00    +0.000 A 
ATOM     16  C   UNL     1       5.964  11.235  26.454  0.00  0.00    +0.000 A 
ATOM     17  C   UNL     1       5.754  11.095  25.088  0.00  0.00    +0.000 A 
ATOM     18  C   UNL     1       6.610  11.732  24.179  0.00  0.00    +0.000 A 
ENDBRANCH   3  13
BRANCH   5  19
ATOM     19  C   UNL     1      10.226  12.570  20.289  0.00  0.00    +0.000 A 
ATOM     20  C   UNL     1       9.347  12.191  19.253  0.00  0.00    +0.000 A 
ATOM     21  C   UNL     1       9.813  11.571  18.092  0.00  0.00    +0.000 A 
ATOM     22  C   UNL     1      11.174  11.350  17.924  0.00  0.00    +0.000 A 
ATOM     23  C   UNL     1      12.055  11.645  18.958  0.00  0.00    +0.000 A 
ATOM     24  C   UNL     1      11.574  12.182  20.154  0.00  0.00    +0.000 A 
ENDBRANCH   5  19
BRANCH   1  26
ATOM     25  C   UNL     1       8.781  17.781  22.928  0.00  0.00    +0.000 C 
ATOM     26  C   UNL     1       9.963  16.812  23.089  0.00  0.00    +0.000 C 
ATOM     27  C   UNL     1      10.774  17.062  24.367  0.00  0.00    +0.000 C 
ENDBRANCH   1  26
TORSDOF 3
ENDMDL
MODEL 7
REMARK VINA RESULT:      -7.3      5.499     10.015
REMARK  Name = 
REMARK  5 active torsions:
REMARK  status: ('A' for Active; 'I' for Inactive)
REMARK    1  A    between atoms: C_1  and  C_2
REMARK    2  A    between atoms: C_2  and  C_3
REMARK    3  A    between atoms: C_2  and  C_4
REMARK    4  A    between atoms: C_6  and  C_7
REMARK    5  A    between atoms: C_14  and  C_15
REMARK                            x       y       z     vdW  Elec       q    Type
REMARK                         _______ _______ _______ _____ _____    ______ ____
ROOT
ATOM      1  C   UNL     1      -0.881  12.526  19.641  0.00  0.00    +0.000 A 
ATOM      2  C   UNL     1      -0.358  11.192  19.582  0.00  0.00    +0.000 A 
ATOM      3  C   UNL     1       0.961  10.879  19.260  0.00  0.00    +0.000 A 
ATOM      4  C   UNL     1       1.784  11.985  19.105  0.00  0.00    +0.000 A 
ATOM      5  C   UNL     1       1.321  13.314  19.206  0.00  0.00    +0.000 A 
ATOM      6  N   UNL     1      -0.020  13.578  19.393  0.00  0.00    +0.000 N 
ATOM      7  C   UNL     1      -0.531  14.892  19.299  0.00  0.00    +0.000 A 
ATOM      8  C   UNL     1      -0.218  15.883  18.324  0.00  0.00    +0.000 A 
ATOM      9  C   UNL     1      -0.939  16.999  18.690  0.00  0.00    +0.000 A 
ATOM     10  N   UNL     1      -1.680  16.621  19.766  0.00  0.00    +0.000 N 
ATOM     11  N   UNL     1      -1.353  15.404  20.219  0.00  0.00    +0.000 NA
ATOM     12  H   UNL     1      -2.403  17.143  20.258  0.00  0.00    +0.000 HD
ENDROOT
BRANCH   3  13
ATOM     13  C   UNL     1       1.475   9.490  19.080  0.00  0.00    +0.000 A 
ATOM     14  C   UNL     1       2.054   9.051  17.873  0.00  0.00    +0.000 A 
ATOM     15  C   UNL     1       2.580   7.757  17.736  0.00  0.00    +0.000 A 
ATOM     16  C   UNL     1       2.554   6.866  18.801  0.00  0.00    +0.000 A 
ATOM     17  C   UNL     1       1.990   7.263  20.006  0.00  0.00    +0.000 A 
ATOM     18  C   UNL     1       1.453   8.551  20.137  0.00  0.00    +0.000 A 
ENDBRANCH   3  13
BRANCH   5  19
ATOM     19  C   UNL     1       2.314  14.420  19.138  0.00  0.00    +0.000 A 
ATOM     20  C   UNL     1       2.938  14.749  17.917  0.00  0.00    +0.000 A 
ATOM     21  C   UNL     1       3.780  15.856  17.804  0.00  0.00    +0.000 A 
ATOM     22  C   UNL     1       3.988  16.682  18.902  0.00  0.00    +0.000 A 
ATOM     23  C   UNL     1       3.447  16.341  20.135  0.00  0.00    +0.000 A 
ATOM     24  C   UNL     1       2.678  15.182  20.265  0.00  0.00    +0.000 A 
ENDBRANCH   5  19
BRANCH   1  26
ATOM     25  C   UNL     1      -3.327  11.905  18.882  0.00  0.00    +0.000 C 
ATOM     26  C   UNL     1      -2.406  12.655  19.858  0.00  0.00    +0.000 C 
ATOM     27  C   UNL     1      -2.845  12.521  21.321  0.00  0.00    +0.000 C 
ENDBRANCH   1  26
TORSDOF 3
ENDMDL
MODEL 8
REMARK VINA RESULT:      -7.2      1.046      1.519
REMARK  Name = 
REMARK  5 active torsions:
REMARK  status: ('A' for Active; 'I' for Inactive)
REMARK    1  A    between atoms: C_1  and  C_2
REMARK    2  A    between atoms: C_2  and  C_3
REMARK    3  A    between atoms: C_2  and  C_4
REMARK    4  A    between atoms: C_6  and  C_7
REMARK    5  A    between atoms: C_14  and  C_15
REMARK                            x       y       z     vdW  Elec       q    Type
REMARK                         _______ _______ _______ _____ _____    ______ ____
ROOT
ATOM      1  C   UNL     1       1.880   5.026  19.481  0.00  0.00    +0.000 A 
ATOM      2  C   UNL     1       1.431   6.388  19.492  0.00  0.00    +0.000 A 
ATOM      3  C   UNL     1       2.117   7.445  18.898  0.00  0.00    +0.000 A 
ATOM      4  C   UNL     1       3.240   7.061  18.181  0.00  0.00    +0.000 A 
ATOM      5  C   UNL     1       3.688   5.725  18.102  0.00  0.00    +0.000 A 
ATOM      6  N   UNL     1       3.054   4.730  18.816  0.00  0.00    +0.000 N 
ATOM      7  C   UNL     1       3.600   3.430  18.909  0.00  0.00    +0.000 A 
ATOM      8  C   UNL     1       4.960   3.068  19.134  0.00  0.00    +0.000 A 
ATOM      9  C   UNL     1       4.985   1.691  19.097  0.00  0.00    +0.000 A 
ATOM     10  N   UNL     1       3.690   1.303  18.943  0.00  0.00    +0.000 N 
ATOM     11  N   UNL     1       2.868   2.332  18.702  0.00  0.00    +0.000 NA
ATOM     12  H   UNL     1       3.298   0.364  18.964  0.00  0.00    +0.000 HD
ENDROOT
BRANCH   3  13
ATOM     13  C   UNL     1       1.714   8.878  19.012  0.00  0.00    +0.000 A 
ATOM     14  C   UNL     1       0.968   9.367  20.103  0.00  0.00    +0.000 A 
ATOM     15  C   UNL     1       0.642  10.727  20.222  0.00  0.00    +0.000 A 
ATOM     16  C   UNL     1       1.057  11.641  19.262  0.00  0.00    +0.000 A 
ATOM     17  C   UNL     1       1.794  11.195  18.173  0.00  0.00    +0.000 A 
ATOM     18  C   UNL     1       2.107   9.835  18.049  0.00  0.00    +0.000 A 
ENDBRANCH   3  13
BRANCH   5  19
ATOM     19  C   UNL     1       4.835   5.412  17.209  0.00  0.00    +0.000 A 
ATOM     20  C   UNL     1       6.118   5.931  17.481  0.00  0.00    +0.000 A 
ATOM     21  C   UNL     1       7.231   5.554  16.728  0.00  0.00    +0.000 A 
ATOM     22  C   UNL     1       7.094   4.621  15.709  0.00  0.00    +0.000 A 
ATOM     23  C   UNL     1       5.831   4.149  15.370  0.00  0.00    +0.000 A 
ATOM     24  C   UNL     1       4.707   4.597  16.067  0.00  0.00    +0.000 A 
ENDBRANCH   5  19
BRANCH   1  26
ATOM     25  C   UNL     1       0.281   2.934  19.589  0.00  0.00    +0.000 C 
ATOM     26  C   UNL     1       1.061   4.029  20.332  0.00  0.00    +0.000 C 
ATOM     27  C   UNL     1       1.802   3.504  21.569  0.00  0.00    +0.000 C 
ENDBRANCH   1  26
TORSDOF 3
ENDMDL
MODEL 9
REMARK VINA RESULT:      -7.1      8.297     11.551
REMARK  Name = 
REMARK  5 active torsions:
REMARK  status: ('A' for Active; 'I' for Inactive)
REMARK    1  A    between atoms: C_1  and  C_2
REMARK    2  A    between atoms: C_2  and  C_3
REMARK    3  A    between atoms: C_2  and  C_4
REMARK    4  A    between atoms: C_6  and  C_7
REMARK    5  A    between atoms: C_14  and  C_15
REMARK                            x       y       z     vdW  Elec       q    Type
REMARK                         _______ _______ _______ _____ _____    ______ ____
ROOT
ATOM      1  C   UNL     1      -3.258  11.750  18.691  0.00  0.00    +0.000 A 
ATOM      2  C   UNL     1      -1.857  12.004  18.517  0.00  0.00    +0.000 A 
ATOM      3  C   UNL     1      -1.128  12.925  19.265  0.00  0.00    +0.000 A 
ATOM      4  C   UNL     1      -1.848  13.519  20.292  0.00  0.00    +0.000 A 
ATOM      5  C   UNL     1      -3.214  13.259  20.530  0.00  0.00    +0.000 A 
ATOM      6  N   UNL     1      -3.930  12.440  19.681  0.00  0.00    +0.000 N 
ATOM      7  C   UNL     1      -5.335  12.325  19.784  0.00  0.00    +0.000 A 
ATOM      8  C   UNL     1      -6.285  13.368  19.980  0.00  0.00    +0.000 A 
ATOM      9  C   UNL     1      -7.510  12.742  20.053  0.00  0.00    +0.000 A 
ATOM     10  N   UNL     1      -7.263  11.423  19.824  0.00  0.00    +0.000 N 
ATOM     11  N   UNL     1      -5.954  11.141  19.787  0.00  0.00    +0.000 NA
ATOM     12  H   UNL     1      -7.927  10.660  19.707  0.00  0.00    +0.000 HD
ENDROOT
BRANCH   3  13
ATOM     13  C   UNL     1       0.299  13.277  19.006  0.00  0.00    +0.000 A 
ATOM     14  C   UNL     1       1.249  12.319  18.599  0.00  0.00    +0.000 A 
ATOM     15  C   UNL     1       2.576  12.675  18.309  0.00  0.00    +0.000 A 
ATOM     16  C   UNL     1       2.992  13.996  18.405  0.00  0.00    +0.000 A 
ATOM     17  C   UNL     1       2.082  14.968  18.803  0.00  0.00    +0.000 A 
ATOM     18  C   UNL     1       0.762  14.609  19.107  0.00  0.00    +0.000 A 
ENDBRANCH   3  13
BRANCH   5  19
ATOM     19  C   UNL     1      -3.854  13.861  21.730  0.00  0.00    +0.000 A 
ATOM     20  C   UNL     1      -4.122  15.245  21.782  0.00  0.00    +0.000 A 
ATOM     21  C   UNL     1      -4.828  15.811  22.844  0.00  0.00    +0.000 A 
ATOM     22  C   UNL     1      -5.316  15.000  23.861  0.00  0.00    +0.000 A 
ATOM     23  C   UNL     1      -5.003  13.646  23.875  0.00  0.00    +0.000 A 
ATOM     24  C   UNL     1      -4.219  13.099  22.857  0.00  0.00    +0.000 A 
ENDBRANCH   5  19
BRANCH   1  26
ATOM     25  C   UNL     1      -4.510  11.447  16.392  0.00  0.00    +0.000 C 
ATOM     26  C   UNL     1      -3.916  10.809  17.657  0.00  0.00    +0.000 C 
ATOM     27  C   UNL     1      -3.111   9.536  17.366  0.00  0.00    +0.000 C 
ENDBRANCH   1  26
TORSDOF 3
ENDMDL
