MODEL 1
REMARK VINA RESULT:      -8.1      0.000      0.000
REMARK  Name = 
REMARK  5 active torsions:
REMARK  status: ('A' for Active; 'I' for Inactive)
REMARK    1  A    between atoms: C_5  and  C_6
REMARK    2  A    between atoms: C_16  and  N_17
REMARK    3  A    between atoms: N_18  and  C_19
REMARK    4  A    between atoms: C_22  and  S_23
REMARK    5  A    between atoms: S_23  and  N_24
REMARK                            x       y       z     vdW  Elec       q    Type
REMARK                         _______ _______ _______ _____ _____    ______ ____
ROOT
ATOM      1  N   UNL     1       2.011  10.124  17.648  0.00  0.00    +0.000 N 
ATOM      2  C   UNL     1       2.195   8.917  18.209  0.00  0.00    +0.000 A 
ATOM      3  N   UNL     1       3.081   8.044  17.745  0.00  0.00    +0.000 NA
ATOM      4  N   UNL     1       3.022   6.992  18.606  0.00  0.00    +0.000 N 
ATOM      5  C   UNL     1       3.800   5.818  18.599  0.00  0.00    +0.000 A 
ATOM      6  C   UNL     1       3.599   4.883  19.547  0.00  0.00    +0.000 A 
ATOM      7  C   UNL     1       2.541   5.188  20.543  0.00  0.00    +0.000 A 
ATOM      8  N   UNL     1       1.808   6.257  20.583  0.00  0.00    +0.000 NA
ATOM      9  C   UNL     1       2.049   7.187  19.602  0.00  0.00    +0.000 A 
ATOM     10  C   UNL     1       1.505   8.425  19.339  0.00  0.00    +0.000 A 
ATOM     11  H   UNL     1       2.397  10.280  16.725  0.00  0.00    +0.000 HD
ATOM     12  H   UNL     1       1.176  10.656  17.867  0.00  0.00    +0.000 HD
ENDROOT
BRANCH   5  13
ATOM     13  C   UNL     1       4.849   5.571  17.597  0.00  0.00    +0.000 A 
ATOM     14  C   UNL     1       4.638   4.663  16.552  0.00  0.00    +0.000 A 
ATOM     15  C   UNL     1       5.660   4.381  15.642  0.00  0.00    +0.000 A 
ATOM     16  C   UNL     1       6.900   5.004  15.771  0.00  0.00    +0.000 A 
ATOM     17  C   UNL     1       7.118   5.912  16.804  0.00  0.00    +0.000 A 
ATOM     18  C   UNL     1       6.099   6.196  17.715  0.00  0.00    +0.000 A 
ENDBRANCH   5  13
BRANCH  10  19
ATOM     19  N   UNL     1       0.533   9.055  20.133  0.00  0.00    +0.000 NA
ATOM     20  N   UNL     1       0.676  10.293  20.222  0.00  0.00    +0.000 NA
BRANCH  20  21
ATOM     21  C   UNL     1      -0.273  10.884  21.087  0.00  0.00    +0.000 A 
ATOM     22  C   UNL     1      -1.085  11.903  20.569  0.00  0.00    +0.000 A 
ATOM     23  C   UNL     1      -2.056  12.528  21.358  0.00  0.00    +0.000 A 
ATOM     24  C   UNL     1      -2.233  12.117  22.680  0.00  0.00    +0.000 A 
ATOM     25  C   UNL     1      -1.436  11.106  23.223  0.00  0.00    +0.000 A 
ATOM     26  C   UNL     1      -0.469  10.490  22.421  0.00  0.00    +0.000 A 
BRANCH  24  27
ATOM     27  S   UNL     1      -3.455  12.913  23.682  0.00  0.00    +0.000 S 
ATOM     28  O   UNL     1      -4.222  11.914  24.387  0.00  0.00    +0.000 OA
ATOM     29  O   UNL     1      -2.857  14.047  24.348  0.00  0.00    +0.000 OA
BRANCH  27  30
ATOM     30  N   UNL     1      -4.481  13.551  22.517  0.00  0.00    +0.000 NA
ATOM     31  H   UNL     1      -5.121  14.220  22.945  0.00  0.00    +0.000 HD
ATOM     32  H   UNL     1      -3.937  13.935  21.745  0.00  0.00    +0.000 HD
ENDBRANCH  27  30
ENDBRANCH  24  27
ENDBRANCH  20  21
ENDBRANCH  10  19
TORSDOF 5
ENDMDL
MODEL 2
REMARK VINA RESULT:      -7.9      0.156      1.299
REMARK  Name = 
REMARK  5 active torsions:
REMARK  status: ('A' for Active; 'I' for Inactive)
REMARK    1  A    between atoms: C_5  and  C_6
REMARK    2  A    between atoms: C_16  and  N_17
REMARK    3  A    between atoms: N_18  and  C_19
REMARK    4  A    between atoms: C_22  and  S_23
REMARK    5  A    between atoms: S_23  and  N_24
REMARK                            x       y       z     vdW  Elec       q    Type
REMARK                         _______ _______ _______ _____ _____    ______ ____
ROOT
ATOM      1  N   UNL     1       2.020  10.153  17.590  0.00  0.00    +0.000 N 
ATOM      2  C   UNL     1       2.180   8.959  18.184  0.00  0.00    +0.000 A 
ATOM      3  N   UNL     1       3.075   8.071  17.769  0.00  0.00    +0.000 NA
ATOM      4  N   UNL     1       2.984   7.040  18.654  0.00  0.00    +0.000 N 
ATOM      5  C   UNL     1       3.754   5.862  18.699  0.00  0.00    +0.000 A 
ATOM      6  C   UNL     1       3.519   4.952  19.662  0.00  0.00    +0.000 A 
ATOM      7  C   UNL     1       2.433   5.286  20.617  0.00  0.00    +0.000 A 
ATOM      8  N   UNL     1       1.704   6.359  20.609  0.00  0.00    +0.000 NA
ATOM      9  C   UNL     1       1.981   7.264  19.613  0.00  0.00    +0.000 A 
ATOM     10  C   UNL     1       1.453   8.498  19.304  0.00  0.00    +0.000 A 
ATOM     11  H   UNL     1       2.435  10.285  16.676  0.00  0.00    +0.000 HD
ATOM     12  H   UNL     1       1.182  10.694  17.770  0.00  0.00    +0.000 HD
ENDROOT
BRANCH   5  13
ATOM     13  C   UNL     1       4.832   5.586  17.736  0.00  0.00    +0.000 A 
ATOM     14  C   UNL     1       6.080   6.209  17.863  0.00  0.00    +0.000 A 
ATOM     15  C   UNL     1       7.078   5.997  16.909  0.00  0.00    +0.000 A 
ATOM     16  C   UNL     1       6.836   5.162  15.820  0.00  0.00    +0.000 A 
ATOM     17  C   UNL     1       5.600   4.534  15.687  0.00  0.00    +0.000 A 
ATOM     18  C   UNL     1       4.601   4.744  16.639  0.00  0.00    +0.000 A 
ENDBRANCH   5  13
BRANCH  10  19
ATOM     19  N   UNL     1       0.460   9.152  20.052  0.00  0.00    +0.000 NA
ATOM     20  N   UNL     1       0.559  10.397  20.046  0.00  0.00    +0.000 NA
BRANCH  20  21
ATOM     21  C   UNL     1      -0.410  11.019  20.868  0.00  0.00    +0.000 A 
ATOM     22  C   UNL     1      -0.478  10.624  22.211  0.00  0.00    +0.000 A 
ATOM     23  C   UNL     1      -1.400  11.202  23.090  0.00  0.00    +0.000 A 
ATOM     24  C   UNL     1      -2.256  12.202  22.626  0.00  0.00    +0.000 A 
ATOM     25  C   UNL     1      -2.210  12.613  21.292  0.00  0.00    +0.000 A 
ATOM     26  C   UNL     1      -1.282  12.026  20.424  0.00  0.00    +0.000 A 
BRANCH  24  27
ATOM     27  S   UNL     1      -3.429  12.927  23.735  0.00  0.00    +0.000 S 
ATOM     28  O   UNL     1      -4.130  11.882  24.442  0.00  0.00    +0.000 OA
ATOM     29  O   UNL     1      -2.814  14.045  24.410  0.00  0.00    +0.000 OA
BRANCH  27  30
ATOM     30  N   UNL     1      -4.539  13.590  22.663  0.00  0.00    +0.000 NA
ATOM     31  H   UNL     1      -5.449  13.676  23.115  0.00  0.00    +0.000 HD
ATOM     32  H   UNL     1      -4.179  14.465  22.285  0.00  0.00    +0.000 HD
ENDBRANCH  27  30
ENDBRANCH  24  27
ENDBRANCH  20  21
ENDBRANCH  10  19
TORSDOF 5
ENDMDL
MODEL 3
REMARK VINA RESULT:      -7.9      0.688      1.243
REMARK  Name = 
REMARK  5 active torsions:
REMARK  status: ('A' for Active; 'I' for Inactive)
REMARK    1  A    between atoms: C_5  and  C_6
REMARK    2  A    between atoms: C_16  and  N_17
REMARK    3  A    between atoms: N_18  and  C_19
REMARK    4  A    between atoms: C_22  and  S_23
REMARK    5  A    between atoms: S_23  and  N_24
REMARK                            x       y       z     vdW  Elec       q    Type
REMARK                         _______ _______ _______ _____ _____    ______ ____
ROOT
ATOM      1  N   UNL     1       2.024  10.130  17.611  0.00  0.00    +0.000 N 
ATOM      2  C   UNL     1       2.180   8.936  18.206  0.00  0.00    +0.000 A 
ATOM      3  N   UNL     1       3.066   8.040  17.786  0.00  0.00    +0.000 NA
ATOM      4  N   UNL     1       2.974   7.012  18.672  0.00  0.00    +0.000 N 
ATOM      5  C   UNL     1       3.736   5.828  18.713  0.00  0.00    +0.000 A 
ATOM      6  C   UNL     1       3.501   4.921  19.679  0.00  0.00    +0.000 A 
ATOM      7  C   UNL     1       2.425   5.265  20.642  0.00  0.00    +0.000 A 
ATOM      8  N   UNL     1       1.704   6.343  20.638  0.00  0.00    +0.000 NA
ATOM      9  C   UNL     1       1.980   7.244  19.639  0.00  0.00    +0.000 A 
ATOM     10  C   UNL     1       1.458   8.482  19.332  0.00  0.00    +0.000 A 
ATOM     11  H   UNL     1       2.434  10.258  16.694  0.00  0.00    +0.000 HD
ATOM     12  H   UNL     1       1.192  10.677  17.797  0.00  0.00    +0.000 HD
ENDROOT
BRANCH   5  13
ATOM     13  C   UNL     1       4.805   5.543  17.742  0.00  0.00    +0.000 A 
ATOM     14  C   UNL     1       6.035   6.208  17.820  0.00  0.00    +0.000 A 
ATOM     15  C   UNL     1       7.022   5.985  16.857  0.00  0.00    +0.000 A 
ATOM     16  C   UNL     1       6.787   5.096  15.809  0.00  0.00    +0.000 A 
ATOM     17  C   UNL     1       5.569   4.426  15.727  0.00  0.00    +0.000 A 
ATOM     18  C   UNL     1       4.580   4.647  16.687  0.00  0.00    +0.000 A 
ENDBRANCH   5  13
BRANCH  10  19
ATOM     19  N   UNL     1       0.476   9.143  20.086  0.00  0.00    +0.000 NA
ATOM     20  N   UNL     1       0.620  10.384  20.128  0.00  0.00    +0.000 NA
BRANCH  20  21
ATOM     21  C   UNL     1      -0.341  11.010  20.956  0.00  0.00    +0.000 A 
ATOM     22  C   UNL     1      -1.173  11.978  20.376  0.00  0.00    +0.000 A 
ATOM     23  C   UNL     1      -2.156  12.632  21.125  0.00  0.00    +0.000 A 
ATOM     24  C   UNL     1      -2.324  12.303  22.471  0.00  0.00    +0.000 A 
ATOM     25  C   UNL     1      -1.508  11.344  23.075  0.00  0.00    +0.000 A 
ATOM     26  C   UNL     1      -0.528  10.697  22.313  0.00  0.00    +0.000 A 
BRANCH  24  27
ATOM     27  S   UNL     1      -3.561  13.136  23.423  0.00  0.00    +0.000 S 
ATOM     28  O   UNL     1      -2.925  14.049  24.342  0.00  0.00    +0.000 OA
ATOM     29  O   UNL     1      -4.640  13.536  22.550  0.00  0.00    +0.000 OA
BRANCH  27  30
ATOM     30  N   UNL     1      -4.167  11.881  24.359  0.00  0.00    +0.000 NA
ATOM     31  H   UNL     1      -4.718  11.249  23.778  0.00  0.00    +0.000 HD
ATOM     32  H   UNL     1      -3.408  11.424  24.864  0.00  0.00    +0.000 HD
ENDBRANCH  27  30
ENDBRANCH  24  27
ENDBRANCH  20  21
ENDBRANCH  10  19
TORSDOF 5
ENDMDL
MODEL 4
REMARK VINA RESULT:      -7.7      0.776      1.282
REMARK  Name = 
REMARK  5 active torsions:
REMARK  status: ('A' for Active; 'I' for Inactive)
REMARK    1  A    between atoms: C_5  and  C_6
REMARK    2  A    between atoms: C_16  and  N_17
REMARK    3  A    between atoms: N_18  and  C_19
REMARK    4  A    between atoms: C_22  and  S_23
REMARK    5  A    between atoms: S_23  and  N_24
REMARK                            x       y       z     vdW  Elec       q    Type
REMARK                         _______ _______ _______ _____ _____    ______ ____
ROOT
ATOM      1  N   UNL     1       2.122  10.102  17.577  0.00  0.00    +0.000 N 
ATOM      2  C   UNL     1       2.222   8.927  18.220  0.00  0.00    +0.000 A 
ATOM      3  N   UNL     1       3.103   7.996  17.871  0.00  0.00    +0.000 NA
ATOM      4  N   UNL     1       2.945   7.002  18.788  0.00  0.00    +0.000 N 
ATOM      5  C   UNL     1       3.675   5.803  18.904  0.00  0.00    +0.000 A 
ATOM      6  C   UNL     1       3.375   4.937  19.889  0.00  0.00    +0.000 A 
ATOM      7  C   UNL     1       2.266   5.340  20.790  0.00  0.00    +0.000 A 
ATOM      8  N   UNL     1       1.574   6.434  20.716  0.00  0.00    +0.000 NA
ATOM      9  C   UNL     1       1.916   7.292  19.700  0.00  0.00    +0.000 A 
ATOM     10  C   UNL     1       1.440   8.530  19.327  0.00  0.00    +0.000 A 
ATOM     11  H   UNL     1       2.575  10.187  16.675  0.00  0.00    +0.000 HD
ATOM     12  H   UNL     1       1.296  10.675  17.706  0.00  0.00    +0.000 HD
ENDROOT
BRANCH   5  13
ATOM     13  C   UNL     1       4.778   5.459  17.993  0.00  0.00    +0.000 A 
ATOM     14  C   UNL     1       4.524   4.815  16.775  0.00  0.00    +0.000 A 
ATOM     15  C   UNL     1       5.578   4.429  15.944  0.00  0.00    +0.000 A 
ATOM     16  C   UNL     1       6.895   4.682  16.325  0.00  0.00    +0.000 A 
ATOM     17  C   UNL     1       7.158   5.326  17.531  0.00  0.00    +0.000 A 
ATOM     18  C   UNL     1       6.106   5.713  18.364  0.00  0.00    +0.000 A 
ENDBRANCH   5  13
BRANCH  10  19
ATOM     19  N   UNL     1       0.442   9.241  20.013  0.00  0.00    +0.000 NA
ATOM     20  N   UNL     1       0.620  10.478  20.026  0.00  0.00    +0.000 NA
BRANCH  20  21
ATOM     21  C   UNL     1      -0.361  11.155  20.787  0.00  0.00    +0.000 A 
ATOM     22  C   UNL     1      -0.441  10.866  22.157  0.00  0.00    +0.000 A 
ATOM     23  C   UNL     1      -1.376  11.505  22.979  0.00  0.00    +0.000 A 
ATOM     24  C   UNL     1      -2.232  12.460  22.429  0.00  0.00    +0.000 A 
ATOM     25  C   UNL     1      -2.175  12.765  21.068  0.00  0.00    +0.000 A 
ATOM     26  C   UNL     1      -1.235  12.119  20.257  0.00  0.00    +0.000 A 
BRANCH  24  27
ATOM     27  S   UNL     1      -3.421  13.262  23.467  0.00  0.00    +0.000 S 
ATOM     28  O   UNL     1      -2.735  14.065  24.450  0.00  0.00    +0.000 OA
ATOM     29  O   UNL     1      -4.491  13.780  22.647  0.00  0.00    +0.000 OA
BRANCH  27  30
ATOM     30  N   UNL     1      -4.070  11.958  24.302  0.00  0.00    +0.000 NA
ATOM     31  H   UNL     1      -5.080  12.072  24.393  0.00  0.00    +0.000 HD
ATOM     32  H   UNL     1      -3.790  11.084  23.858  0.00  0.00    +0.000 HD
ENDBRANCH  27  30
ENDBRANCH  24  27
ENDBRANCH  20  21
ENDBRANCH  10  19
TORSDOF 5
ENDMDL
MODEL 5
REMARK VINA RESULT:      -7.7      5.322     10.063
REMARK  Name = 
REMARK  5 active torsions:
REMARK  status: ('A' for Active; 'I' for Inactive)
REMARK    1  A    between atoms: C_5  and  C_6
REMARK    2  A    between atoms: C_16  and  N_17
REMARK    3  A    between atoms: N_18  and  C_19
REMARK    4  A    between atoms: C_22  and  S_23
REMARK    5  A    between atoms: S_23  and  N_24
REMARK                            x       y       z     vdW  Elec       q    Type
REMARK                         _______ _______ _______ _____ _____    ______ ____
ROOT
ATOM      1  N   UNL     1       1.645   8.814  22.348  0.00  0.00    +0.000 N 
ATOM      2  C   UNL     1       0.875   9.450  21.449  0.00  0.00    +0.000 A 
ATOM      3  N   UNL     1      -0.096  10.283  21.805  0.00  0.00    +0.000 NA
ATOM      4  N   UNL     1      -0.588  10.770  20.633  0.00  0.00    +0.000 N 
ATOM      5  C   UNL     1      -1.598  11.734  20.448  0.00  0.00    +0.000 A 
ATOM      6  C   UNL     1      -1.949  12.097  19.201  0.00  0.00    +0.000 A 
ATOM      7  C   UNL     1      -1.213  11.424  18.101  0.00  0.00    +0.000 A 
ATOM      8  N   UNL     1      -0.278  10.535  18.231  0.00  0.00    +0.000 NA
ATOM      9  C   UNL     1       0.053  10.198  19.520  0.00  0.00    +0.000 A 
ATOM     10  C   UNL     1       0.990   9.335  20.046  0.00  0.00    +0.000 A 
ATOM     11  H   UNL     1       1.335   8.802  23.312  0.00  0.00    +0.000 HD
ATOM     12  H   UNL     1       2.200   8.017  22.058  0.00  0.00    +0.000 HD
ENDROOT
BRANCH   5  13
ATOM     13  C   UNL     1      -2.285  12.384  21.576  0.00  0.00    +0.000 A 
ATOM     14  C   UNL     1      -3.683  12.431  21.628  0.00  0.00    +0.000 A 
ATOM     15  C   UNL     1      -4.331  13.108  22.665  0.00  0.00    +0.000 A 
ATOM     16  C   UNL     1      -3.586  13.743  23.656  0.00  0.00    +0.000 A 
ATOM     17  C   UNL     1      -2.195  13.697  23.616  0.00  0.00    +0.000 A 
ATOM     18  C   UNL     1      -1.544  13.022  22.581  0.00  0.00    +0.000 A 
ENDBRANCH   5  13
BRANCH  10  19
ATOM     19  N   UNL     1       1.909   8.596  19.285  0.00  0.00    +0.000 NA
ATOM     20  N   UNL     1       2.165   7.468  19.757  0.00  0.00    +0.000 NA
BRANCH  20  21
ATOM     21  C   UNL     1       3.149   6.781  19.008  0.00  0.00    +0.000 A 
ATOM     22  C   UNL     1       3.543   7.336  17.782  0.00  0.00    +0.000 A 
ATOM     23  C   UNL     1       4.521   6.723  16.990  0.00  0.00    +0.000 A 
ATOM     24  C   UNL     1       5.126   5.547  17.436  0.00  0.00    +0.000 A 
ATOM     25  C   UNL     1       4.750   4.972  18.652  0.00  0.00    +0.000 A 
ATOM     26  C   UNL     1       3.772   5.596  19.434  0.00  0.00    +0.000 A 
BRANCH  24  27
ATOM     27  S   UNL     1       6.355   4.766  16.430  0.00  0.00    +0.000 S 
ATOM     28  O   UNL     1       5.749   3.691  15.682  0.00  0.00    +0.000 OA
ATOM     29  O   UNL     1       7.174   5.780  15.811  0.00  0.00    +0.000 OA
BRANCH  27  30
ATOM     30  N   UNL     1       7.323   4.036  17.591  0.00  0.00    +0.000 NA
ATOM     31  H   UNL     1       7.603   3.107  17.276  0.00  0.00    +0.000 HD
ATOM     32  H   UNL     1       8.105   4.646  17.828  0.00  0.00    +0.000 HD
ENDBRANCH  27  30
ENDBRANCH  24  27
ENDBRANCH  20  21
ENDBRANCH  10  19
TORSDOF 5
ENDMDL
MODEL 6
REMARK VINA RESULT:      -7.6      5.171     10.143
REMARK  Name = 
REMARK  5 active torsions:
REMARK  status: ('A' for Active; 'I' for Inactive)
REMARK    1  A    between atoms: C_5  and  C_6
REMARK    2  A    between atoms: C_16  and  N_17
REMARK    3  A    between atoms: N_18  and  C_19
REMARK    4  A    between atoms: C_22  and  S_23
REMARK    5  A    between atoms: S_23  and  N_24
REMARK                            x       y       z     vdW  Elec       q    Type
REMARK                         _______ _______ _______ _____ _____    ______ ____
ROOT
ATOM      1  N   UNL     1       1.686   9.066  22.713  0.00  0.00    +0.000 N 
ATOM      2  C   UNL     1       0.823   9.739  21.934  0.00  0.00    +0.000 A 
ATOM      3  N   UNL     1      -0.058  10.602  22.426  0.00  0.00    +0.000 NA
ATOM      4  N   UNL     1      -0.689  11.120  21.337  0.00  0.00    +0.000 N 
ATOM      5  C   UNL     1      -1.679  12.121  21.301  0.00  0.00    +0.000 A 
ATOM      6  C   UNL     1      -2.186  12.510  20.116  0.00  0.00    +0.000 A 
ATOM      7  C   UNL     1      -1.634  11.825  18.920  0.00  0.00    +0.000 A 
ATOM      8  N   UNL     1      -0.723  10.902  18.913  0.00  0.00    +0.000 NA
ATOM      9  C   UNL     1      -0.230  10.538  20.142  0.00  0.00    +0.000 A 
ATOM     10  C   UNL     1       0.738   9.637  20.528  0.00  0.00    +0.000 A 
ATOM     11  H   UNL     1       1.511   9.053  23.710  0.00  0.00    +0.000 HD
ATOM     12  H   UNL     1       2.165   8.253  22.343  0.00  0.00    +0.000 HD
ENDROOT
BRANCH   5  13
ATOM     13  C   UNL     1      -2.180  12.781  22.517  0.00  0.00    +0.000 A 
ATOM     14  C   UNL     1      -3.368  12.355  23.123  0.00  0.00    +0.000 A 
ATOM     15  C   UNL     1      -3.876  13.027  24.237  0.00  0.00    +0.000 A 
ATOM     16  C   UNL     1      -3.199  14.131  24.753  0.00  0.00    +0.000 A 
ATOM     17  C   UNL     1      -2.014  14.560  24.161  0.00  0.00    +0.000 A 
ATOM     18  C   UNL     1      -1.505  13.890  23.047  0.00  0.00    +0.000 A 
ENDBRANCH   5  13
BRANCH  10  19
ATOM     19  N   UNL     1       1.516   8.875  19.641  0.00  0.00    +0.000 NA
ATOM     20  N   UNL     1       1.854   7.761  20.094  0.00  0.00    +0.000 NA
BRANCH  20  21
ATOM     21  C   UNL     1       2.697   7.051  19.207  0.00  0.00    +0.000 A 
ATOM     22  C   UNL     1       3.075   5.749  19.565  0.00  0.00    +0.000 A 
ATOM     23  C   UNL     1       3.895   4.979  18.734  0.00  0.00    +0.000 A 
ATOM     24  C   UNL     1       4.331   5.509  17.519  0.00  0.00    +0.000 A 
ATOM     25  C   UNL     1       3.973   6.805  17.140  0.00  0.00    +0.000 A 
ATOM     26  C   UNL     1       3.151   7.564  17.980  0.00  0.00    +0.000 A 
BRANCH  24  27
ATOM     27  S   UNL     1       5.377   4.539  16.471  0.00  0.00    +0.000 S 
ATOM     28  O   UNL     1       4.811   3.221  16.317  0.00  0.00    +0.000 OA
ATOM     29  O   UNL     1       5.797   5.342  15.347  0.00  0.00    +0.000 OA
BRANCH  27  30
ATOM     30  N   UNL     1       6.738   4.351  17.437  0.00  0.00    +0.000 NA
ATOM     31  H   UNL     1       7.235   5.238  17.514  0.00  0.00    +0.000 HD
ATOM     32  H   UNL     1       6.475   3.943  18.334  0.00  0.00    +0.000 HD
ENDBRANCH  27  30
ENDBRANCH  24  27
ENDBRANCH  20  21
ENDBRANCH  10  19
TORSDOF 5
ENDMDL
MODEL 7
REMARK VINA RESULT:      -7.6      5.176     10.159
REMARK  Name = 
REMARK  5 active torsions:
REMARK  status: ('A' for Active; 'I' for Inactive)
REMARK    1  A    between atoms: C_5  and  C_6
REMARK    2  A    between atoms: C_16  and  N_17
REMARK    3  A    between atoms: N_18  and  C_19
REMARK    4  A    between atoms: C_22  and  S_23
REMARK    5  A    between atoms: S_23  and  N_24
REMARK                            x       y       z     vdW  Elec       q    Type
REMARK                         _______ _______ _______ _____ _____    ______ ____
ROOT
ATOM      1  N   UNL     1       1.615   9.175  22.758  0.00  0.00    +0.000 N 
ATOM      2  C   UNL     1       0.759   9.813  21.943  0.00  0.00    +0.000 A 
ATOM      3  N   UNL     1      -0.134  10.688  22.392  0.00  0.00    +0.000 NA
ATOM      4  N   UNL     1      -0.752  11.162  21.276  0.00  0.00    +0.000 N 
ATOM      5  C   UNL     1      -1.747  12.155  21.189  0.00  0.00    +0.000 A 
ATOM      6  C   UNL     1      -2.239  12.499  19.985  0.00  0.00    +0.000 A 
ATOM      7  C   UNL     1      -1.668  11.773  18.822  0.00  0.00    +0.000 A 
ATOM      8  N   UNL     1      -0.751  10.856  18.862  0.00  0.00    +0.000 NA
ATOM      9  C   UNL     1      -0.274  10.540  20.110  0.00  0.00    +0.000 A 
ATOM     10  C   UNL     1       0.695   9.660  20.541  0.00  0.00    +0.000 A 
ATOM     11  H   UNL     1       1.427   9.197  23.752  0.00  0.00    +0.000 HD
ATOM     12  H   UNL     1       2.104   8.352  22.425  0.00  0.00    +0.000 HD
ENDROOT
BRANCH   5  13
ATOM     13  C   UNL     1      -2.268  12.857  22.374  0.00  0.00    +0.000 A 
ATOM     14  C   UNL     1      -1.635  14.008  22.858  0.00  0.00    +0.000 A 
ATOM     15  C   UNL     1      -2.092  14.633  24.021  0.00  0.00    +0.000 A 
ATOM     16  C   UNL     1      -3.185  14.109  24.710  0.00  0.00    +0.000 A 
ATOM     17  C   UNL     1      -3.825  12.968  24.234  0.00  0.00    +0.000 A 
ATOM     18  C   UNL     1      -3.370  12.342  23.072  0.00  0.00    +0.000 A 
ENDBRANCH   5  13
BRANCH  10  19
ATOM     19  N   UNL     1       1.489   8.870  19.694  0.00  0.00    +0.000 NA
ATOM     20  N   UNL     1       1.758   7.743  20.158  0.00  0.00    +0.000 NA
BRANCH  20  21
ATOM     21  C   UNL     1       2.619   7.004  19.314  0.00  0.00    +0.000 A 
ATOM     22  C   UNL     1       2.980   5.711  19.718  0.00  0.00    +0.000 A 
ATOM     23  C   UNL     1       3.817   4.912  18.931  0.00  0.00    +0.000 A 
ATOM     24  C   UNL     1       4.288   5.405  17.714  0.00  0.00    +0.000 A 
ATOM     25  C   UNL     1       3.946   6.691  17.288  0.00  0.00    +0.000 A 
ATOM     26  C   UNL     1       3.108   7.478  18.085  0.00  0.00    +0.000 A 
BRANCH  24  27
ATOM     27  S   UNL     1       5.354   4.400  16.722  0.00  0.00    +0.000 S 
ATOM     28  O   UNL     1       5.046   4.604  15.327  0.00  0.00    +0.000 OA
ATOM     29  O   UNL     1       6.699   4.481  17.241  0.00  0.00    +0.000 OA
BRANCH  27  30
ATOM     30  N   UNL     1       4.807   2.858  17.098  0.00  0.00    +0.000 NA
ATOM     31  H   UNL     1       5.406   2.440  17.810  0.00  0.00    +0.000 HD
ATOM     32  H   UNL     1       3.820   2.890  17.354  0.00  0.00    +0.000 HD
ENDBRANCH  27  30
ENDBRANCH  24  27
ENDBRANCH  20  21
ENDBRANCH  10  19
TORSDOF 5
ENDMDL
MODEL 8
REMARK VINA RESULT:      -7.6      5.172     10.071
REMARK  Name = 
REMARK  5 active torsions:
REMARK  status: ('A' for Active; 'I' for Inactive)
REMARK    1  A    between atoms: C_5  and  C_6
REMARK    2  A    between atoms: C_16  and  N_17
REMARK    3  A    between atoms: N_18  and  C_19
REMARK    4  A    between atoms: C_22  and  S_23
REMARK    5  A    between atoms: S_23  and  N_24
REMARK                            x       y       z     vdW  Elec       q    Type
REMARK                         _______ _______ _______ _____ _____    ______ ____
ROOT
ATOM      1  N   UNL     1       1.678   9.029  22.930  0.00  0.00    +0.000 N 
ATOM      2  C   UNL     1       0.829   9.652  22.096  0.00  0.00    +0.000 A 
ATOM      3  N   UNL     1      -0.056  10.548  22.518  0.00  0.00    +0.000 NA
ATOM      4  N   UNL     1      -0.669  10.996  21.388  0.00  0.00    +0.000 N 
ATOM      5  C   UNL     1      -1.653  11.995  21.271  0.00  0.00    +0.000 A 
ATOM      6  C   UNL     1      -2.141  12.308  20.056  0.00  0.00    +0.000 A 
ATOM      7  C   UNL     1      -1.575  11.544  18.916  0.00  0.00    +0.000 A 
ATOM      8  N   UNL     1      -0.668  10.620  18.983  0.00  0.00    +0.000 NA
ATOM      9  C   UNL     1      -0.195  10.335  20.241  0.00  0.00    +0.000 A 
ATOM     10  C   UNL     1       0.765   9.458  20.698  0.00  0.00    +0.000 A 
ATOM     11  H   UNL     1       1.489   9.081  23.923  0.00  0.00    +0.000 HD
ATOM     12  H   UNL     1       2.159   8.192  22.621  0.00  0.00    +0.000 HD
ENDROOT
BRANCH   5  13
ATOM     13  C   UNL     1      -2.169  12.736  22.434  0.00  0.00    +0.000 A 
ATOM     14  C   UNL     1      -3.269  12.256  23.155  0.00  0.00    +0.000 A 
ATOM     15  C   UNL     1      -3.797  12.995  24.216  0.00  0.00    +0.000 A 
ATOM     16  C   UNL     1      -3.231  14.221  24.563  0.00  0.00    +0.000 A 
ATOM     17  C   UNL     1      -2.133  14.704  23.855  0.00  0.00    +0.000 A 
ATOM     18  C   UNL     1      -1.603  13.967  22.794  0.00  0.00    +0.000 A 
ENDBRANCH   5  13
BRANCH  10  19
ATOM     19  N   UNL     1       1.552   8.637  19.875  0.00  0.00    +0.000 NA
ATOM     20  N   UNL     1       1.780   7.507  20.357  0.00  0.00    +0.000 NA
BRANCH  20  21
ATOM     21  C   UNL     1       2.635   6.734  19.538  0.00  0.00    +0.000 A 
ATOM     22  C   UNL     1       3.027   7.276  18.307  0.00  0.00    +0.000 A 
ATOM     23  C   UNL     1       3.883   6.579  17.447  0.00  0.00    +0.000 A 
ATOM     24  C   UNL     1       4.368   5.328  17.830  0.00  0.00    +0.000 A 
ATOM     25  C   UNL     1       3.992   4.763  19.051  0.00  0.00    +0.000 A 
ATOM     26  C   UNL     1       3.136   5.472  19.901  0.00  0.00    +0.000 A 
BRANCH  24  27
ATOM     27  S   UNL     1       5.443   4.440  16.740  0.00  0.00    +0.000 S 
ATOM     28  O   UNL     1       5.199   4.859  15.380  0.00  0.00    +0.000 OA
ATOM     29  O   UNL     1       6.767   4.394  17.313  0.00  0.00    +0.000 OA
BRANCH  27  30
ATOM     30  N   UNL     1       4.832   2.881  16.862  0.00  0.00    +0.000 NA
ATOM     31  H   UNL     1       4.845   2.578  17.836  0.00  0.00    +0.000 HD
ATOM     32  H   UNL     1       3.913   2.831  16.424  0.00  0.00    +0.000 HD
ENDBRANCH  27  30
ENDBRANCH  24  27
ENDBRANCH  20  21
ENDBRANCH  10  19
TORSDOF 5
ENDMDL
MODEL 9
REMARK VINA RESULT:      -7.5      4.896      9.963
REMARK  Name = 
REMARK  5 active torsions:
REMARK  status: ('A' for Active; 'I' for Inactive)
REMARK    1  A    between atoms: C_5  and  C_6
REMARK    2  A    between atoms: C_16  and  N_17
REMARK    3  A    between atoms: N_18  and  C_19
REMARK    4  A    between atoms: C_22  and  S_23
REMARK    5  A    between atoms: S_23  and  N_24
REMARK                            x       y       z     vdW  Elec       q    Type
REMARK                         _______ _______ _______ _____ _____    ______ ____
ROOT
ATOM      1  N   UNL     1      -0.733  10.295  17.440  0.00  0.00    +0.000 N 
ATOM      2  C   UNL     1      -0.837  10.626  18.737  0.00  0.00    +0.000 A 
ATOM      3  N   UNL     1      -1.659  11.577  19.166  0.00  0.00    +0.000 NA
ATOM      4  N   UNL     1      -1.533  11.565  20.521  0.00  0.00    +0.000 N 
ATOM      5  C   UNL     1      -2.227  12.345  21.466  0.00  0.00    +0.000 A 
ATOM      6  C   UNL     1      -1.968  12.187  22.777  0.00  0.00    +0.000 A 
ATOM      7  C   UNL     1      -0.940  11.170  23.115  0.00  0.00    +0.000 A 
ATOM      8  N   UNL     1      -0.282  10.433  22.276  0.00  0.00    +0.000 NA
ATOM      9  C   UNL     1      -0.581  10.623  20.948  0.00  0.00    +0.000 A 
ATOM     10  C   UNL     1      -0.122  10.024  19.796  0.00  0.00    +0.000 A 
ATOM     11  H   UNL     1      -1.124  10.932  16.756  0.00  0.00    +0.000 HD
ATOM     12  H   UNL     1       0.062   9.751  17.124  0.00  0.00    +0.000 HD
ENDROOT
BRANCH   5  13
ATOM     13  C   UNL     1      -3.251  13.329  21.078  0.00  0.00    +0.000 A 
ATOM     14  C   UNL     1      -2.978  14.701  21.129  0.00  0.00    +0.000 A 
ATOM     15  C   UNL     1      -3.973  15.633  20.825  0.00  0.00    +0.000 A 
ATOM     16  C   UNL     1      -5.249  15.200  20.470  0.00  0.00    +0.000 A 
ATOM     17  C   UNL     1      -5.529  13.837  20.411  0.00  0.00    +0.000 A 
ATOM     18  C   UNL     1      -4.537  12.904  20.714  0.00  0.00    +0.000 A 
ENDBRANCH   5  13
BRANCH  10  19
ATOM     19  N   UNL     1       0.800   8.966  19.759  0.00  0.00    +0.000 NA
ATOM     20  N   UNL     1       1.532   8.966  18.747  0.00  0.00    +0.000 NA
BRANCH  20  21
ATOM     21  C   UNL     1       2.396   7.848  18.705  0.00  0.00    +0.000 A 
ATOM     22  C   UNL     1       2.302   6.910  19.743  0.00  0.00    +0.000 A 
ATOM     23  C   UNL     1       3.113   5.770  19.765  0.00  0.00    +0.000 A 
ATOM     24  C   UNL     1       4.020   5.554  18.727  0.00  0.00    +0.000 A 
ATOM     25  C   UNL     1       4.135   6.473  17.682  0.00  0.00    +0.000 A 
ATOM     26  C   UNL     1       3.317   7.608  17.672  0.00  0.00    +0.000 A 
BRANCH  24  27
ATOM     27  S   UNL     1       5.053   4.117  18.759  0.00  0.00    +0.000 S 
ATOM     28  O   UNL     1       6.419   4.514  18.997  0.00  0.00    +0.000 OA
ATOM     29  O   UNL     1       4.399   3.081  19.524  0.00  0.00    +0.000 OA
BRANCH  27  30
ATOM     30  N   UNL     1       4.985   3.619  17.157  0.00  0.00    +0.000 NA
ATOM     31  H   UNL     1       5.926   3.431  16.811  0.00  0.00    +0.000 HD
ATOM     32  H   UNL     1       4.344   2.831  17.063  0.00  0.00    +0.000 HD
ENDBRANCH  27  30
ENDBRANCH  24  27
ENDBRANCH  20  21
ENDBRANCH  10  19
TORSDOF 5
ENDMDL
