MODEL 1
REMARK VINA RESULT:      -6.7      0.000      0.000
REMARK  Name = 
REMARK  6 active torsions:
REMARK  status: ('A' for Active; 'I' for Inactive)
REMARK    1  A    between atoms: C_1  and  O_2
REMARK    2  A    between atoms: O_2  and  C_3
REMARK    3  A    between atoms: C_7  and  C_8
REMARK    4  A    between atoms: C_8  and  N_9
REMARK    5  A    between atoms: N_9  and  C_10
REMARK    6  A    between atoms: N_9  and  C_11
REMARK                            x       y       z     vdW  Elec       q    Type
REMARK                         _______ _______ _______ _____ _____    ______ ____
ROOT
ATOM      1  C   UNL     1       3.277   5.934  19.023  0.00  0.00    +0.000 C 
ENDROOT
BRANCH   1   6
ATOM      2  C   UNL     1       1.201   8.802  20.002  0.00  0.00    +0.000 A 
ATOM      3  C   UNL     1       1.091   9.573  18.860  0.00  0.00    +0.000 A 
ATOM      4  C   UNL     1       1.872   9.229  17.762  0.00  0.00    +0.000 A 
ATOM      5  C   UNL     1       2.690   8.100  17.830  0.00  0.00    +0.000 A 
ATOM      6  C   UNL     1       2.677   7.332  18.995  0.00  0.00    +0.000 A 
ATOM      7  N   UNL     1       1.967   7.697  20.085  0.00  0.00    +0.000 NA
BRANCH   2   9
ATOM      8  C   UNL     1       1.175   9.111  22.307  0.00  0.00    +0.000 C 
ATOM      9  O   UNL     1       0.433   9.166  21.089  0.00  0.00    +0.000 OA
ENDBRANCH   2   9
ENDBRANCH   1   6
BRANCH   1  10
ATOM     10  N   UNL     1       3.240   5.178  17.745  0.00  0.00    +0.000 NA
ATOM     11  C   UNL     1       2.060   4.313  17.724  0.00  0.00    +0.000 C 
BRANCH  10  12
ATOM     12  C   UNL     1       4.536   4.536  17.432  0.00  0.00    +0.000 C 
ATOM     13  C   UNL     1       4.850   4.336  15.934  0.00  0.00    +0.000 C 
ATOM     14  C   UNL     1       6.302   3.899  15.840  0.00  0.00    +0.000 C 
ATOM     15  S   UNL     1       7.142   4.940  17.008  0.00  0.00    +0.000 S 
ATOM     16  O   UNL     1       7.422   6.211  16.360  0.00  0.00    +0.000 OA
ATOM     17  O   UNL     1       8.184   4.170  17.654  0.00  0.00    +0.000 OA
ATOM     18  C   UNL     1       5.773   5.160  18.121  0.00  0.00    +0.000 C 
ENDBRANCH  10  12
ENDBRANCH   1  10
TORSDOF 4
ENDMDL
MODEL 2
REMARK VINA RESULT:      -6.7      3.252      5.708
REMARK  Name = 
REMARK  6 active torsions:
REMARK  status: ('A' for Active; 'I' for Inactive)
REMARK    1  A    between atoms: C_1  and  O_2
REMARK    2  A    between atoms: O_2  and  C_3
REMARK    3  A    between atoms: C_7  and  C_8
REMARK    4  A    between atoms: C_8  and  N_9
REMARK    5  A    between atoms: N_9  and  C_10
REMARK    6  A    between atoms: N_9  and  C_11
REMARK                            x       y       z     vdW  Elec       q    Type
REMARK                         _______ _______ _______ _____ _____    ______ ____
ROOT
ATOM      1  C   UNL     1       3.619   5.180  17.497  0.00  0.00    +0.000 C 
ENDROOT
BRANCH   1   6
ATOM      2  C   UNL     1       6.835   6.949  17.667  0.00  0.00    +0.000 A 
ATOM      3  C   UNL     1       7.563   6.278  18.630  0.00  0.00    +0.000 A 
ATOM      4  C   UNL     1       6.913   5.304  19.382  0.00  0.00    +0.000 A 
ATOM      5  C   UNL     1       5.578   5.005  19.106  0.00  0.00    +0.000 A 
ATOM      6  C   UNL     1       4.942   5.675  18.061  0.00  0.00    +0.000 A 
ATOM      7  N   UNL     1       5.552   6.664  17.369  0.00  0.00    +0.000 NA
BRANCH   2   9
ATOM      8  C   UNL     1       8.172   8.848  17.786  0.00  0.00    +0.000 C 
ATOM      9  O   UNL     1       7.488   7.923  16.941  0.00  0.00    +0.000 OA
ENDBRANCH   2   9
ENDBRANCH   1   6
BRANCH   1  10
ATOM     10  N   UNL     1       2.397   5.593  18.232  0.00  0.00    +0.000 NA
ATOM     11  C   UNL     1       2.642   6.865  18.911  0.00  0.00    +0.000 C 
BRANCH  10  12
ATOM     12  C   UNL     1       1.840   4.499  19.058  0.00  0.00    +0.000 C 
ATOM     13  C   UNL     1       2.035   3.068  18.511  0.00  0.00    +0.000 C 
ATOM     14  C   UNL     1       1.616   2.111  19.614  0.00  0.00    +0.000 C 
ATOM     15  S   UNL     1       2.302   2.825  21.088  0.00  0.00    +0.000 S 
ATOM     16  O   UNL     1       3.694   2.416  21.183  0.00  0.00    +0.000 OA
ATOM     17  O   UNL     1       1.373   2.621  22.180  0.00  0.00    +0.000 OA
ATOM     18  C   UNL     1       2.242   4.519  20.552  0.00  0.00    +0.000 C 
ENDBRANCH  10  12
ENDBRANCH   1  10
TORSDOF 4
ENDMDL
MODEL 3
REMARK VINA RESULT:      -6.6      3.330      6.028
REMARK  Name = 
REMARK  6 active torsions:
REMARK  status: ('A' for Active; 'I' for Inactive)
REMARK    1  A    between atoms: C_1  and  O_2
REMARK    2  A    between atoms: O_2  and  C_3
REMARK    3  A    between atoms: C_7  and  C_8
REMARK    4  A    between atoms: C_8  and  N_9
REMARK    5  A    between atoms: N_9  and  C_10
REMARK    6  A    between atoms: N_9  and  C_11
REMARK                            x       y       z     vdW  Elec       q    Type
REMARK                         _______ _______ _______ _____ _____    ______ ____
ROOT
ATOM      1  C   UNL     1       4.340   5.580  19.297  0.00  0.00    +0.000 C 
ENDROOT
BRANCH   1   6
ATOM      2  C   UNL     1       6.995   6.238  16.844  0.00  0.00    +0.000 A 
ATOM      3  C   UNL     1       6.845   5.259  15.881  0.00  0.00    +0.000 A 
ATOM      4  C   UNL     1       5.941   4.231  16.128  0.00  0.00    +0.000 A 
ATOM      5  C   UNL     1       5.187   4.252  17.303  0.00  0.00    +0.000 A 
ATOM      6  C   UNL     1       5.343   5.323  18.182  0.00  0.00    +0.000 A 
ATOM      7  N   UNL     1       6.264   6.290  17.975  0.00  0.00    +0.000 NA
BRANCH   2   9
ATOM      8  C   UNL     1       7.949   8.201  17.649  0.00  0.00    +0.000 C 
ATOM      9  O   UNL     1       7.907   7.242  16.592  0.00  0.00    +0.000 OA
ENDBRANCH   2   9
ENDBRANCH   1   6
BRANCH   1  10
ATOM     10  N   UNL     1       2.911   5.626  18.896  0.00  0.00    +0.000 NA
ATOM     11  C   UNL     1       2.414   6.996  19.014  0.00  0.00    +0.000 C 
BRANCH  10  12
ATOM     12  C   UNL     1       2.107   4.572  19.554  0.00  0.00    +0.000 C 
ATOM     13  C   UNL     1       2.175   3.168  18.915  0.00  0.00    +0.000 C 
ATOM     14  C   UNL     1       1.489   2.211  19.875  0.00  0.00    +0.000 C 
ATOM     15  S   UNL     1       2.068   2.717  21.476  0.00  0.00    +0.000 S 
ATOM     16  O   UNL     1       3.367   2.105  21.702  0.00  0.00    +0.000 OA
ATOM     17  O   UNL     1       0.985   2.579  22.428  0.00  0.00    +0.000 OA
ATOM     18  C   UNL     1       2.310   4.434  21.082  0.00  0.00    +0.000 C 
ENDBRANCH  10  12
ENDBRANCH   1  10
TORSDOF 4
ENDMDL
MODEL 4
REMARK VINA RESULT:      -6.5      0.953      1.017
REMARK  Name = 
REMARK  6 active torsions:
REMARK  status: ('A' for Active; 'I' for Inactive)
REMARK    1  A    between atoms: C_1  and  O_2
REMARK    2  A    between atoms: O_2  and  C_3
REMARK    3  A    between atoms: C_7  and  C_8
REMARK    4  A    between atoms: C_8  and  N_9
REMARK    5  A    between atoms: N_9  and  C_10
REMARK    6  A    between atoms: N_9  and  C_11
REMARK                            x       y       z     vdW  Elec       q    Type
REMARK                         _______ _______ _______ _____ _____    ______ ____
ROOT
ATOM      1  C   UNL     1       3.231   4.750  18.963  0.00  0.00    +0.000 C 
ENDROOT
BRANCH   1   6
ATOM      2  C   UNL     1       1.706   7.878  20.143  0.00  0.00    +0.000 A 
ATOM      3  C   UNL     1       1.728   8.723  19.050  0.00  0.00    +0.000 A 
ATOM      4  C   UNL     1       2.426   8.312  17.919  0.00  0.00    +0.000 A 
ATOM      5  C   UNL     1       3.031   7.053  17.908  0.00  0.00    +0.000 A 
ATOM      6  C   UNL     1       2.890   6.232  19.027  0.00  0.00    +0.000 A 
ATOM      7  N   UNL     1       2.264   6.651  20.149  0.00  0.00    +0.000 NA
BRANCH   2   9
ATOM      8  C   UNL     1       0.258   9.482  21.002  0.00  0.00    +0.000 C 
ATOM      9  O   UNL     1       1.023   8.306  21.263  0.00  0.00    +0.000 OA
ENDBRANCH   2   9
ENDBRANCH   1   6
BRANCH   1  10
ATOM     10  N   UNL     1       3.363   4.165  17.605  0.00  0.00    +0.000 NA
ATOM     11  C   UNL     1       2.476   3.009  17.483  0.00  0.00    +0.000 C 
BRANCH  10  12
ATOM     12  C   UNL     1       4.776   3.957  17.217  0.00  0.00    +0.000 C 
ATOM     13  C   UNL     1       5.202   4.558  15.860  0.00  0.00    +0.000 C 
ATOM     14  C   UNL     1       6.716   4.444  15.781  0.00  0.00    +0.000 C 
ATOM     15  S   UNL     1       7.268   4.902  17.406  0.00  0.00    +0.000 S 
ATOM     16  O   UNL     1       7.322   6.353  17.473  0.00  0.00    +0.000 OA
ATOM     17  O   UNL     1       8.407   4.080  17.759  0.00  0.00    +0.000 OA
ATOM     18  C   UNL     1       5.826   4.346  18.286  0.00  0.00    +0.000 C 
ENDBRANCH  10  12
ENDBRANCH   1  10
TORSDOF 4
ENDMDL
MODEL 5
REMARK VINA RESULT:      -6.5      1.648      2.922
REMARK  Name = 
REMARK  6 active torsions:
REMARK  status: ('A' for Active; 'I' for Inactive)
REMARK    1  A    between atoms: C_1  and  O_2
REMARK    2  A    between atoms: O_2  and  C_3
REMARK    3  A    between atoms: C_7  and  C_8
REMARK    4  A    between atoms: C_8  and  N_9
REMARK    5  A    between atoms: N_9  and  C_10
REMARK    6  A    between atoms: N_9  and  C_11
REMARK                            x       y       z     vdW  Elec       q    Type
REMARK                         _______ _______ _______ _____ _____    ______ ____
ROOT
ATOM      1  C   UNL     1       2.479   3.607  18.109  0.00  0.00    +0.000 C 
ENDROOT
BRANCH   1   6
ATOM      2  C   UNL     1       2.327   7.261  18.457  0.00  0.00    +0.000 A 
ATOM      3  C   UNL     1       2.102   7.485  19.802  0.00  0.00    +0.000 A 
ATOM      4  C   UNL     1       1.818   6.388  20.609  0.00  0.00    +0.000 A 
ATOM      5  C   UNL     1       1.820   5.109  20.051  0.00  0.00    +0.000 A 
ATOM      6  C   UNL     1       2.138   4.967  18.700  0.00  0.00    +0.000 A 
ATOM      7  N   UNL     1       2.355   6.035  17.900  0.00  0.00    +0.000 NA
BRANCH   2   9
ATOM      8  C   UNL     1       1.751   9.466  17.995  0.00  0.00    +0.000 C 
ATOM      9  O   UNL     1       2.591   8.360  17.667  0.00  0.00    +0.000 OA
ENDBRANCH   2   9
ENDBRANCH   1   6
BRANCH   1  10
ATOM     10  N   UNL     1       3.909   3.210  18.159  0.00  0.00    +0.000 NA
ATOM     11  C   UNL     1       4.155   2.419  19.364  0.00  0.00    +0.000 C 
BRANCH  10  12
ATOM     12  C   UNL     1       4.819   4.352  17.920  0.00  0.00    +0.000 C 
ATOM     13  C   UNL     1       5.681   4.795  19.122  0.00  0.00    +0.000 C 
ATOM     14  C   UNL     1       6.696   5.796  18.594  0.00  0.00    +0.000 C 
ATOM     15  S   UNL     1       7.237   5.091  17.056  0.00  0.00    +0.000 S 
ATOM     16  O   UNL     1       8.269   4.110  17.347  0.00  0.00    +0.000 OA
ATOM     17  O   UNL     1       7.449   6.161  16.103  0.00  0.00    +0.000 OA
ATOM     18  C   UNL     1       5.728   4.232  16.673  0.00  0.00    +0.000 C 
ENDBRANCH  10  12
ENDBRANCH   1  10
TORSDOF 4
ENDMDL
MODEL 6
REMARK VINA RESULT:      -6.5      3.402      4.521
REMARK  Name = 
REMARK  6 active torsions:
REMARK  status: ('A' for Active; 'I' for Inactive)
REMARK    1  A    between atoms: C_1  and  O_2
REMARK    2  A    between atoms: O_2  and  C_3
REMARK    3  A    between atoms: C_7  and  C_8
REMARK    4  A    between atoms: C_8  and  N_9
REMARK    5  A    between atoms: N_9  and  C_10
REMARK    6  A    between atoms: N_9  and  C_11
REMARK                            x       y       z     vdW  Elec       q    Type
REMARK                         _______ _______ _______ _____ _____    ______ ____
ROOT
ATOM      1  C   UNL     1       4.683   5.778  19.386  0.00  0.00    +0.000 C 
ENDROOT
BRANCH   1   6
ATOM      2  C   UNL     1       2.346   2.947  19.533  0.00  0.00    +0.000 A 
ATOM      3  C   UNL     1       1.174   3.474  20.042  0.00  0.00    +0.000 A 
ATOM      4  C   UNL     1       1.198   4.781  20.519  0.00  0.00    +0.000 A 
ATOM      5  C   UNL     1       2.376   5.523  20.421  0.00  0.00    +0.000 A 
ATOM      6  C   UNL     1       3.490   4.939  19.819  0.00  0.00    +0.000 A 
ATOM      7  N   UNL     1       3.489   3.650  19.410  0.00  0.00    +0.000 NA
BRANCH   2   9
ATOM      8  C   UNL     1       3.515   1.285  18.402  0.00  0.00    +0.000 C 
ATOM      9  O   UNL     1       2.311   1.645  19.079  0.00  0.00    +0.000 OA
ENDBRANCH   2   9
ENDBRANCH   1   6
BRANCH   1  10
ATOM     10  N   UNL     1       5.779   5.053  18.694  0.00  0.00    +0.000 NA
ATOM     11  C   UNL     1       7.067   5.624  19.088  0.00  0.00    +0.000 C 
BRANCH  10  12
ATOM     12  C   UNL     1       5.534   4.915  17.242  0.00  0.00    +0.000 C 
ATOM     13  C   UNL     1       5.252   6.225  16.473  0.00  0.00    +0.000 C 
ATOM     14  C   UNL     1       5.276   5.883  14.993  0.00  0.00    +0.000 C 
ATOM     15  S   UNL     1       6.665   4.790  14.825  0.00  0.00    +0.000 S 
ATOM     16  O   UNL     1       7.868   5.600  14.717  0.00  0.00    +0.000 OA
ATOM     17  O   UNL     1       6.342   3.774  13.845  0.00  0.00    +0.000 OA
ATOM     18  C   UNL     1       6.591   4.098  16.461  0.00  0.00    +0.000 C 
ENDBRANCH  10  12
ENDBRANCH   1  10
TORSDOF 4
ENDMDL
MODEL 7
REMARK VINA RESULT:      -6.4      1.158      1.422
REMARK  Name = 
REMARK  6 active torsions:
REMARK  status: ('A' for Active; 'I' for Inactive)
REMARK    1  A    between atoms: C_1  and  O_2
REMARK    2  A    between atoms: O_2  and  C_3
REMARK    3  A    between atoms: C_7  and  C_8
REMARK    4  A    between atoms: C_8  and  N_9
REMARK    5  A    between atoms: N_9  and  C_10
REMARK    6  A    between atoms: N_9  and  C_11
REMARK                            x       y       z     vdW  Elec       q    Type
REMARK                         _______ _______ _______ _____ _____    ______ ____
ROOT
ATOM      1  C   UNL     1       3.149   6.130  19.034  0.00  0.00    +0.000 C 
ENDROOT
BRANCH   1   6
ATOM      2  C   UNL     1       1.071   8.907  20.247  0.00  0.00    +0.000 A 
ATOM      3  C   UNL     1       0.761   9.643  19.119  0.00  0.00    +0.000 A 
ATOM      4  C   UNL     1       1.400   9.314  17.928  0.00  0.00    +0.000 A 
ATOM      5  C   UNL     1       2.282   8.232  17.900  0.00  0.00    +0.000 A 
ATOM      6  C   UNL     1       2.473   7.493  19.067  0.00  0.00    +0.000 A 
ATOM      7  N   UNL     1       1.902   7.846  20.240  0.00  0.00    +0.000 NA
BRANCH   2   9
ATOM      8  C   UNL     1       0.229  10.663  21.518  0.00  0.00    +0.000 C 
ATOM      9  O   UNL     1       0.442   9.255  21.424  0.00  0.00    +0.000 OA
ENDBRANCH   2   9
ENDBRANCH   1   6
BRANCH   1  10
ATOM     10  N   UNL     1       3.356   5.533  17.691  0.00  0.00    +0.000 NA
ATOM     11  C   UNL     1       2.577   4.300  17.578  0.00  0.00    +0.000 C 
BRANCH  10  12
ATOM     12  C   UNL     1       4.789   5.445  17.329  0.00  0.00    +0.000 C 
ATOM     13  C   UNL     1       5.566   6.779  17.306  0.00  0.00    +0.000 C 
ATOM     14  C   UNL     1       7.038   6.431  17.158  0.00  0.00    +0.000 C 
ATOM     15  S   UNL     1       7.266   5.047  18.246  0.00  0.00    +0.000 S 
ATOM     16  O   UNL     1       7.463   5.558  19.593  0.00  0.00    +0.000 OA
ATOM     17  O   UNL     1       8.203   4.125  17.637  0.00  0.00    +0.000 OA
ATOM     18  C   UNL     1       5.614   4.401  18.119  0.00  0.00    +0.000 C 
ENDBRANCH  10  12
ENDBRANCH   1  10
TORSDOF 4
ENDMDL
MODEL 8
REMARK VINA RESULT:      -6.4      1.468      2.165
REMARK  Name = 
REMARK  6 active torsions:
REMARK  status: ('A' for Active; 'I' for Inactive)
REMARK    1  A    between atoms: C_1  and  O_2
REMARK    2  A    between atoms: O_2  and  C_3
REMARK    3  A    between atoms: C_7  and  C_8
REMARK    4  A    between atoms: C_8  and  N_9
REMARK    5  A    between atoms: N_9  and  C_10
REMARK    6  A    between atoms: N_9  and  C_11
REMARK                            x       y       z     vdW  Elec       q    Type
REMARK                         _______ _______ _______ _____ _____    ______ ____
ROOT
ATOM      1  C   UNL     1       3.148   4.426  19.120  0.00  0.00    +0.000 C 
ENDROOT
BRANCH   1   6
ATOM      2  C   UNL     1       2.210   7.930  18.539  0.00  0.00    +0.000 A 
ATOM      3  C   UNL     1       1.700   8.370  19.746  0.00  0.00    +0.000 A 
ATOM      4  C   UNL     1       1.495   7.430  20.751  0.00  0.00    +0.000 A 
ATOM      5  C   UNL     1       1.855   6.100  20.528  0.00  0.00    +0.000 A 
ATOM      6  C   UNL     1       2.440   5.759  19.308  0.00  0.00    +0.000 A 
ATOM      7  N   UNL     1       2.584   6.656  18.308  0.00  0.00    +0.000 NA
BRANCH   2   9
ATOM      8  C   UNL     1       1.896  10.152  17.930  0.00  0.00    +0.000 C 
ATOM      9  O   UNL     1       2.392   8.870  17.546  0.00  0.00    +0.000 OA
ENDBRANCH   2   9
ENDBRANCH   1   6
BRANCH   1  10
ATOM     10  N   UNL     1       3.281   3.945  17.721  0.00  0.00    +0.000 NA
ATOM     11  C   UNL     1       2.402   2.795  17.514  0.00  0.00    +0.000 C 
BRANCH  10  12
ATOM     12  C   UNL     1       4.695   3.778  17.315  0.00  0.00    +0.000 C 
ATOM     13  C   UNL     1       5.058   4.280  15.901  0.00  0.00    +0.000 C 
ATOM     14  C   UNL     1       6.574   4.239  15.793  0.00  0.00    +0.000 C 
ATOM     15  S   UNL     1       7.135   4.863  17.357  0.00  0.00    +0.000 S 
ATOM     16  O   UNL     1       7.113   6.316  17.298  0.00  0.00    +0.000 OA
ATOM     17  O   UNL     1       8.324   4.135  17.749  0.00  0.00    +0.000 OA
ATOM     18  C   UNL     1       5.745   4.312  18.319  0.00  0.00    +0.000 C 
ENDBRANCH  10  12
ENDBRANCH   1  10
TORSDOF 4
ENDMDL
MODEL 9
REMARK VINA RESULT:      -6.4      2.743      4.326
REMARK  Name = 
REMARK  6 active torsions:
REMARK  status: ('A' for Active; 'I' for Inactive)
REMARK    1  A    between atoms: C_1  and  O_2
REMARK    2  A    between atoms: O_2  and  C_3
REMARK    3  A    between atoms: C_7  and  C_8
REMARK    4  A    between atoms: C_8  and  N_9
REMARK    5  A    between atoms: N_9  and  C_10
REMARK    6  A    between atoms: N_9  and  C_11
REMARK                            x       y       z     vdW  Elec       q    Type
REMARK                         _______ _______ _______ _____ _____    ______ ____
ROOT
ATOM      1  C   UNL     1       2.250   5.797  17.924  0.00  0.00    +0.000 C 
ENDROOT
BRANCH   1   6
ATOM      2  C   UNL     1       2.736   2.756  19.927  0.00  0.00    +0.000 A 
ATOM      3  C   UNL     1       3.024   1.764  19.009  0.00  0.00    +0.000 A 
ATOM      4  C   UNL     1       2.887   2.063  17.658  0.00  0.00    +0.000 A 
ATOM      5  C   UNL     1       2.519   3.355  17.277  0.00  0.00    +0.000 A 
ATOM      6  C   UNL     1       2.327   4.317  18.268  0.00  0.00    +0.000 A 
ATOM      7  N   UNL     1       2.399   4.015  19.583  0.00  0.00    +0.000 NA
BRANCH   2   9
ATOM      8  C   UNL     1       1.629   2.607  21.967  0.00  0.00    +0.000 C 
ATOM      9  O   UNL     1       2.860   2.440  21.264  0.00  0.00    +0.000 OA
ENDBRANCH   2   9
ENDBRANCH   1   6
BRANCH   1  10
ATOM     10  N   UNL     1       3.471   6.598  18.194  0.00  0.00    +0.000 NA
ATOM     11  C   UNL     1       3.267   7.971  17.731  0.00  0.00    +0.000 C 
BRANCH  10  12
ATOM     12  C   UNL     1       4.703   5.921  17.733  0.00  0.00    +0.000 C 
ATOM     13  C   UNL     1       5.464   6.608  16.578  0.00  0.00    +0.000 C 
ATOM     14  C   UNL     1       6.796   5.891  16.437  0.00  0.00    +0.000 C 
ATOM     15  S   UNL     1       7.333   5.646  18.112  0.00  0.00    +0.000 S 
ATOM     16  O   UNL     1       7.973   6.869  18.566  0.00  0.00    +0.000 OA
ATOM     17  O   UNL     1       7.994   4.361  18.205  0.00  0.00    +0.000 OA
ATOM     18  C   UNL     1       5.714   5.546  18.842  0.00  0.00    +0.000 C 
ENDBRANCH  10  12
ENDBRANCH   1  10
TORSDOF 4
ENDMDL
