MODEL 1
REMARK VINA RESULT:      -8.0      0.000      0.000
REMARK  Name = 
REMARK  5 active torsions:
REMARK  status: ('A' for Active; 'I' for Inactive)
REMARK    1  A    between atoms: C_4  and  C_5
REMARK    2  A    between atoms: C_5  and  N_6
REMARK    3  A    between atoms: C_9  and  O_10
REMARK    4  A    between atoms: O_10  and  C_11
REMARK    5  A    between atoms: C_11  and  C_12
REMARK                            x       y       z     vdW  Elec       q    Type
REMARK                         _______ _______ _______ _____ _____    ______ ____
ROOT
ATOM      1  N   UNL     1       7.358   8.144  18.357  0.00  0.00    +0.000 N 
ATOM      2  C   UNL     1       7.071   6.914  17.757  0.00  0.00    +0.000 A 
ATOM      3  N   UNL     1       6.450   6.004  18.537  0.00  0.00    +0.000 NA
ATOM      4  C   UNL     1       6.145   4.784  18.041  0.00  0.00    +0.000 A 
ATOM      5  C   UNL     1       6.377   4.572  16.696  0.00  0.00    +0.000 A 
ATOM      6  N   UNL     1       6.152   3.571  15.793  0.00  0.00    +0.000 N 
ATOM      7  C   UNL     1       6.654   3.976  14.586  0.00  0.00    +0.000 A 
ATOM      8  N   UNL     1       7.167   5.181  14.659  0.00  0.00    +0.000 NA
ATOM      9  C   UNL     1       6.996   5.563  15.960  0.00  0.00    +0.000 A 
ATOM     10  N   UNL     1       7.379   6.736  16.472  0.00  0.00    +0.000 NA
ATOM     11  H   UNL     1       6.471   8.636  18.405  0.00  0.00    +0.000 HD
ATOM     12  H   UNL     1       5.710   2.684  15.966  0.00  0.00    +0.000 HD
ENDROOT
BRANCH   1  13
ATOM     13  C   UNL     1       8.365   8.929  17.647  0.00  0.00    +0.000 C 
BRANCH  13  17
ATOM     14  C   UNL     1       9.803  11.456  20.089  0.00  0.00    +0.000 A 
ATOM     15  C   UNL     1       9.478  12.397  19.138  0.00  0.00    +0.000 A 
ATOM     16  S   UNL     1       8.751  11.693  17.762  0.00  0.00    +0.000 S 
ATOM     17  C   UNL     1       8.862  10.117  18.428  0.00  0.00    +0.000 A 
ATOM     18  C   UNL     1       9.448  10.139  19.678  0.00  0.00    +0.000 A 
ENDBRANCH  13  17
ENDBRANCH   1  13
BRANCH   4  19
ATOM     19  O   UNL     1       5.592   3.891  18.941  0.00  0.00    +0.000 OA
BRANCH  19  20
ATOM     20  C   UNL     1       4.285   3.438  18.582  0.00  0.00    +0.000 C 
BRANCH  20  21
ATOM     21  C   UNL     1       3.258   4.581  18.617  0.00  0.00    +0.000 C 
ATOM     22  C   UNL     1       1.933   4.136  17.969  0.00  0.00    +0.000 C 
ATOM     23  C   UNL     1       1.137   3.161  18.838  0.00  0.00    +0.000 C 
ATOM     24  C   UNL     1       0.912   3.711  20.242  0.00  0.00    +0.000 C 
ATOM     25  C   UNL     1       2.214   4.143  20.908  0.00  0.00    +0.000 C 
ATOM     26  C   UNL     1       3.012   5.111  20.037  0.00  0.00    +0.000 C 
ENDBRANCH  20  21
ENDBRANCH  19  20
ENDBRANCH   4  19
TORSDOF 5
ENDMDL
MODEL 2
REMARK VINA RESULT:      -7.9      1.002      1.658
REMARK  Name = 
REMARK  5 active torsions:
REMARK  status: ('A' for Active; 'I' for Inactive)
REMARK    1  A    between atoms: C_4  and  C_5
REMARK    2  A    between atoms: C_5  and  N_6
REMARK    3  A    between atoms: C_9  and  O_10
REMARK    4  A    between atoms: O_10  and  C_11
REMARK    5  A    between atoms: C_11  and  C_12
REMARK                            x       y       z     vdW  Elec       q    Type
REMARK                         _______ _______ _______ _____ _____    ______ ____
ROOT
ATOM      1  N   UNL     1       7.604   8.182  18.427  0.00  0.00    +0.000 N 
ATOM      2  C   UNL     1       7.266   6.957  17.843  0.00  0.00    +0.000 A 
ATOM      3  N   UNL     1       6.715   6.040  18.665  0.00  0.00    +0.000 NA
ATOM      4  C   UNL     1       6.368   4.823  18.187  0.00  0.00    +0.000 A 
ATOM      5  C   UNL     1       6.483   4.624  16.825  0.00  0.00    +0.000 A 
ATOM      6  N   UNL     1       6.179   3.631  15.936  0.00  0.00    +0.000 N 
ATOM      7  C   UNL     1       6.575   4.047  14.694  0.00  0.00    +0.000 A 
ATOM      8  N   UNL     1       7.092   5.252  14.733  0.00  0.00    +0.000 NA
ATOM      9  C   UNL     1       7.035   5.622  16.047  0.00  0.00    +0.000 A 
ATOM     10  N   UNL     1       7.461   6.791  16.534  0.00  0.00    +0.000 NA
ATOM     11  H   UNL     1       6.725   8.673  18.557  0.00  0.00    +0.000 HD
ATOM     12  H   UNL     1       5.754   2.742  16.138  0.00  0.00    +0.000 HD
ENDROOT
BRANCH   1  13
ATOM     13  C   UNL     1       8.546   8.974  17.639  0.00  0.00    +0.000 C 
BRANCH  13  17
ATOM     14  C   UNL     1       9.019  12.631  18.541  0.00  0.00    +0.000 A 
ATOM     15  C   UNL     1       9.496  12.161  19.743  0.00  0.00    +0.000 A 
ATOM     16  S   UNL     1       9.481  10.454  19.816  0.00  0.00    +0.000 S 
ATOM     17  C   UNL     1       8.836  10.327  18.232  0.00  0.00    +0.000 A 
ATOM     18  C   UNL     1       8.636  11.572  17.668  0.00  0.00    +0.000 A 
ENDBRANCH  13  17
ENDBRANCH   1  13
BRANCH   4  19
ATOM     19  O   UNL     1       5.895   3.922  19.123  0.00  0.00    +0.000 OA
BRANCH  19  20
ATOM     20  C   UNL     1       4.487   4.006  19.352  0.00  0.00    +0.000 C 
BRANCH  20  21
ATOM     21  C   UNL     1       3.898   2.651  19.774  0.00  0.00    +0.000 C 
ATOM     22  C   UNL     1       2.700   2.856  20.721  0.00  0.00    +0.000 C 
ATOM     23  C   UNL     1       1.451   3.372  20.007  0.00  0.00    +0.000 C 
ATOM     24  C   UNL     1       1.076   2.493  18.819  0.00  0.00    +0.000 C 
ATOM     25  C   UNL     1       2.244   2.291  17.860  0.00  0.00    +0.000 C 
ATOM     26  C   UNL     1       3.495   1.782  18.575  0.00  0.00    +0.000 C 
ENDBRANCH  20  21
ENDBRANCH  19  20
ENDBRANCH   4  19
TORSDOF 5
ENDMDL
MODEL 3
REMARK VINA RESULT:      -7.8      4.279      6.889
REMARK  Name = 
REMARK  5 active torsions:
REMARK  status: ('A' for Active; 'I' for Inactive)
REMARK    1  A    between atoms: C_4  and  C_5
REMARK    2  A    between atoms: C_5  and  N_6
REMARK    3  A    between atoms: C_9  and  O_10
REMARK    4  A    between atoms: O_10  and  C_11
REMARK    5  A    between atoms: C_11  and  C_12
REMARK                            x       y       z     vdW  Elec       q    Type
REMARK                         _______ _______ _______ _____ _____    ______ ____
ROOT
ATOM      1  N   UNL     1       2.103   7.878  20.280  0.00  0.00    +0.000 N 
ATOM      2  C   UNL     1       2.103   6.512  19.982  0.00  0.00    +0.000 A 
ATOM      3  N   UNL     1       2.638   6.165  18.792  0.00  0.00    +0.000 NA
ATOM      4  C   UNL     1       2.669   4.866  18.416  0.00  0.00    +0.000 A 
ATOM      5  C   UNL     1       2.257   3.931  19.345  0.00  0.00    +0.000 A 
ATOM      6  N   UNL     1       2.204   2.567  19.427  0.00  0.00    +0.000 N 
ATOM      7  C   UNL     1       1.650   2.242  20.635  0.00  0.00    +0.000 A 
ATOM      8  N   UNL     1       1.366   3.313  21.336  0.00  0.00    +0.000 NA
ATOM      9  C   UNL     1       1.744   4.365  20.550  0.00  0.00    +0.000 A 
ATOM     10  N   UNL     1       1.629   5.654  20.885  0.00  0.00    +0.000 NA
ATOM     11  H   UNL     1       3.061   8.102  20.528  0.00  0.00    +0.000 HD
ATOM     12  H   UNL     1       2.501   1.904  18.731  0.00  0.00    +0.000 HD
ENDROOT
BRANCH   1  13
ATOM     13  C   UNL     1       1.176   8.251  21.346  0.00  0.00    +0.000 C 
BRANCH  13  17
ATOM     14  C   UNL     1      -0.891  11.435  21.310  0.00  0.00    +0.000 A 
ATOM     15  C   UNL     1      -0.577  11.495  19.972  0.00  0.00    +0.000 A 
ATOM     16  S   UNL     1       0.402  10.183  19.483  0.00  0.00    +0.000 S 
ATOM     17  C   UNL     1       0.413   9.518  21.064  0.00  0.00    +0.000 A 
ATOM     18  C   UNL     1      -0.317  10.294  21.942  0.00  0.00    +0.000 A 
ENDBRANCH  13  17
ENDBRANCH   1  13
BRANCH   4  19
ATOM     19  O   UNL     1       3.154   4.620  17.145  0.00  0.00    +0.000 OA
BRANCH  19  20
ATOM     20  C   UNL     1       4.461   4.043  17.122  0.00  0.00    +0.000 C 
BRANCH  20  21
ATOM     21  C   UNL     1       5.348   4.687  16.045  0.00  0.00    +0.000 C 
ATOM     22  C   UNL     1       5.171   6.217  16.044  0.00  0.00    +0.000 C 
ATOM     23  C   UNL     1       5.833   6.899  17.242  0.00  0.00    +0.000 C 
ATOM     24  C   UNL     1       7.301   6.509  17.373  0.00  0.00    +0.000 C 
ATOM     25  C   UNL     1       7.497   4.997  17.392  0.00  0.00    +0.000 C 
ATOM     26  C   UNL     1       6.829   4.315  16.199  0.00  0.00    +0.000 C 
ENDBRANCH  20  21
ENDBRANCH  19  20
ENDBRANCH   4  19
TORSDOF 5
ENDMDL
MODEL 4
REMARK VINA RESULT:      -7.8      0.719      1.369
REMARK  Name = 
REMARK  5 active torsions:
REMARK  status: ('A' for Active; 'I' for Inactive)
REMARK    1  A    between atoms: C_4  and  C_5
REMARK    2  A    between atoms: C_5  and  N_6
REMARK    3  A    between atoms: C_9  and  O_10
REMARK    4  A    between atoms: O_10  and  C_11
REMARK    5  A    between atoms: C_11  and  C_12
REMARK                            x       y       z     vdW  Elec       q    Type
REMARK                         _______ _______ _______ _____ _____    ______ ____
ROOT
ATOM      1  N   UNL     1       7.352   8.091  18.343  0.00  0.00    +0.000 N 
ATOM      2  C   UNL     1       7.056   6.871  17.727  0.00  0.00    +0.000 A 
ATOM      3  N   UNL     1       6.404   5.966  18.488  0.00  0.00    +0.000 NA
ATOM      4  C   UNL     1       6.087   4.755  17.977  0.00  0.00    +0.000 A 
ATOM      5  C   UNL     1       6.341   4.550  16.634  0.00  0.00    +0.000 A 
ATOM      6  N   UNL     1       6.115   3.560  15.719  0.00  0.00    +0.000 N 
ATOM      7  C   UNL     1       6.647   3.965  14.526  0.00  0.00    +0.000 A 
ATOM      8  N   UNL     1       7.179   5.160  14.618  0.00  0.00    +0.000 NA
ATOM      9  C   UNL     1       6.990   5.536  15.918  0.00  0.00    +0.000 A 
ATOM     10  N   UNL     1       7.384   6.698  16.447  0.00  0.00    +0.000 NA
ATOM     11  H   UNL     1       6.474   8.599  18.378  0.00  0.00    +0.000 HD
ATOM     12  H   UNL     1       5.655   2.680  15.877  0.00  0.00    +0.000 HD
ENDROOT
BRANCH   1  13
ATOM     13  C   UNL     1       8.386   8.864  17.658  0.00  0.00    +0.000 C 
BRANCH  13  17
ATOM     14  C   UNL     1       9.757  11.436  20.091  0.00  0.00    +0.000 A 
ATOM     15  C   UNL     1       9.406  12.365  19.138  0.00  0.00    +0.000 A 
ATOM     16  S   UNL     1       8.697  11.638  17.764  0.00  0.00    +0.000 S 
ATOM     17  C   UNL     1       8.851  10.067  18.435  0.00  0.00    +0.000 A 
ATOM     18  C   UNL     1       9.438  10.108  19.684  0.00  0.00    +0.000 A 
ENDBRANCH  13  17
ENDBRANCH   1  13
BRANCH   4  19
ATOM     19  O   UNL     1       5.502   3.865  18.859  0.00  0.00    +0.000 OA
BRANCH  19  20
ATOM     20  C   UNL     1       4.080   3.783  18.744  0.00  0.00    +0.000 C 
BRANCH  20  21
ATOM     21  C   UNL     1       3.544   2.441  19.268  0.00  0.00    +0.000 C 
ATOM     22  C   UNL     1       3.538   2.428  20.808  0.00  0.00    +0.000 C 
ATOM     23  C   UNL     1       2.438   3.302  21.412  0.00  0.00    +0.000 C 
ATOM     24  C   UNL     1       1.066   2.951  20.849  0.00  0.00    +0.000 C 
ATOM     25  C   UNL     1       1.046   2.974  19.324  0.00  0.00    +0.000 C 
ATOM     26  C   UNL     1       2.149   2.107  18.720  0.00  0.00    +0.000 C 
ENDBRANCH  20  21
ENDBRANCH  19  20
ENDBRANCH   4  19
TORSDOF 5
ENDMDL
MODEL 5
REMARK VINA RESULT:      -7.7      3.428      7.699
REMARK  Name = 
REMARK  5 active torsions:
REMARK  status: ('A' for Active; 'I' for Inactive)
REMARK    1  A    between atoms: C_4  and  C_5
REMARK    2  A    between atoms: C_5  and  N_6
REMARK    3  A    between atoms: C_9  and  O_10
REMARK    4  A    between atoms: O_10  and  C_11
REMARK    5  A    between atoms: C_11  and  C_12
REMARK                            x       y       z     vdW  Elec       q    Type
REMARK                         _______ _______ _______ _____ _____    ______ ____
ROOT
ATOM      1  N   UNL     1       4.273   2.749  17.955  0.00  0.00    +0.000 N 
ATOM      2  C   UNL     1       5.176   3.727  17.528  0.00  0.00    +0.000 A 
ATOM      3  N   UNL     1       5.402   3.786  16.199  0.00  0.00    +0.000 NA
ATOM      4  C   UNL     1       6.270   4.695  15.699  0.00  0.00    +0.000 A 
ATOM      5  C   UNL     1       6.796   5.618  16.583  0.00  0.00    +0.000 A 
ATOM      6  N   UNL     1       7.604   6.718  16.508  0.00  0.00    +0.000 N 
ATOM      7  C   UNL     1       7.779   7.195  17.778  0.00  0.00    +0.000 A 
ATOM      8  N   UNL     1       7.115   6.480  18.655  0.00  0.00    +0.000 NA
ATOM      9  C   UNL     1       6.497   5.504  17.925  0.00  0.00    +0.000 A 
ATOM     10  N   UNL     1       5.710   4.550  18.431  0.00  0.00    +0.000 NA
ATOM     11  H   UNL     1       3.354   3.102  17.709  0.00  0.00    +0.000 HD
ATOM     12  H   UNL     1       8.017   7.114  15.680  0.00  0.00    +0.000 HD
ENDROOT
BRANCH   1  13
ATOM     13  C   UNL     1       4.362   2.442  19.381  0.00  0.00    +0.000 C 
BRANCH  13  17
ATOM     14  C   UNL     1       1.476   2.841  21.814  0.00  0.00    +0.000 A 
ATOM     15  C   UNL     1       0.714   3.107  20.699  0.00  0.00    +0.000 A 
ATOM     16  S   UNL     1       1.635   3.035  19.262  0.00  0.00    +0.000 S 
ATOM     17  C   UNL     1       3.067   2.644  20.121  0.00  0.00    +0.000 A 
ATOM     18  C   UNL     1       2.836   2.576  21.481  0.00  0.00    +0.000 A 
ENDBRANCH  13  17
ENDBRANCH   1  13
BRANCH   4  19
ATOM     19  O   UNL     1       6.502   4.619  14.338  0.00  0.00    +0.000 OA
BRANCH  19  20
ATOM     20  C   UNL     1       5.725   3.622  13.671  0.00  0.00    +0.000 C 
BRANCH  20  21
ATOM     21  C   UNL     1       5.667   3.868  12.155  0.00  0.00    +0.000 C 
ATOM     22  C   UNL     1       7.089   3.951  11.567  0.00  0.00    +0.000 C 
ATOM     23  C   UNL     1       7.790   2.594  11.496  0.00  0.00    +0.000 C 
ATOM     24  C   UNL     1       6.944   1.561  10.760  0.00  0.00    +0.000 C 
ATOM     25  C   UNL     1       5.536   1.450  11.337  0.00  0.00    +0.000 C 
ATOM     26  C   UNL     1       4.839   2.808  11.415  0.00  0.00    +0.000 C 
ENDBRANCH  20  21
ENDBRANCH  19  20
ENDBRANCH   4  19
TORSDOF 5
ENDMDL
MODEL 6
REMARK VINA RESULT:      -7.6      0.994      1.410
REMARK  Name = 
REMARK  5 active torsions:
REMARK  status: ('A' for Active; 'I' for Inactive)
REMARK    1  A    between atoms: C_4  and  C_5
REMARK    2  A    between atoms: C_5  and  N_6
REMARK    3  A    between atoms: C_9  and  O_10
REMARK    4  A    between atoms: O_10  and  C_11
REMARK    5  A    between atoms: C_11  and  C_12
REMARK                            x       y       z     vdW  Elec       q    Type
REMARK                         _______ _______ _______ _____ _____    ______ ____
ROOT
ATOM      1  N   UNL     1       7.514   8.241  18.366  0.00  0.00    +0.000 N 
ATOM      2  C   UNL     1       7.185   7.010  17.790  0.00  0.00    +0.000 A 
ATOM      3  N   UNL     1       6.527   6.140  18.586  0.00  0.00    +0.000 NA
ATOM      4  C   UNL     1       6.179   4.921  18.114  0.00  0.00    +0.000 A 
ATOM      5  C   UNL     1       6.408   4.674  16.774  0.00  0.00    +0.000 A 
ATOM      6  N   UNL     1       6.148   3.664  15.891  0.00  0.00    +0.000 N 
ATOM      7  C   UNL     1       6.669   4.025  14.678  0.00  0.00    +0.000 A 
ATOM      8  N   UNL     1       7.226   5.211  14.729  0.00  0.00    +0.000 NA
ATOM      9  C   UNL     1       7.065   5.626  16.021  0.00  0.00    +0.000 A 
ATOM     10  N   UNL     1       7.489   6.794  16.510  0.00  0.00    +0.000 NA
ATOM     11  H   UNL     1       6.647   8.766  18.401  0.00  0.00    +0.000 HD
ATOM     12  H   UNL     1       5.673   2.797  16.080  0.00  0.00    +0.000 HD
ENDROOT
BRANCH   1  13
ATOM     13  C   UNL     1       8.553   8.973  17.645  0.00  0.00    +0.000 C 
BRANCH  13  17
ATOM     14  C   UNL     1       9.021  12.635  18.528  0.00  0.00    +0.000 A 
ATOM     15  C   UNL     1       9.529  12.171  19.719  0.00  0.00    +0.000 A 
ATOM     16  S   UNL     1       9.527  10.464  19.796  0.00  0.00    +0.000 S 
ATOM     17  C   UNL     1       8.847  10.330  18.227  0.00  0.00    +0.000 A 
ATOM     18  C   UNL     1       8.625  11.572  17.666  0.00  0.00    +0.000 A 
ENDBRANCH  13  17
ENDBRANCH   1  13
BRANCH   4  19
ATOM     19  O   UNL     1       5.590   4.069  19.029  0.00  0.00    +0.000 OA
BRANCH  19  20
ATOM     20  C   UNL     1       4.263   4.444  19.403  0.00  0.00    +0.000 C 
BRANCH  20  21
ATOM     21  C   UNL     1       3.238   3.363  19.024  0.00  0.00    +0.000 C 
ATOM     22  C   UNL     1       3.280   2.202  20.035  0.00  0.00    +0.000 C 
ATOM     23  C   UNL     1       2.662   2.560  21.387  0.00  0.00    +0.000 C 
ATOM     24  C   UNL     1       1.249   3.111  21.232  0.00  0.00    +0.000 C 
ATOM     25  C   UNL     1       1.188   4.273  20.247  0.00  0.00    +0.000 C 
ATOM     26  C   UNL     1       1.812   3.918  18.899  0.00  0.00    +0.000 C 
ENDBRANCH  20  21
ENDBRANCH  19  20
ENDBRANCH   4  19
TORSDOF 5
ENDMDL
MODEL 7
REMARK VINA RESULT:      -7.6      4.361      6.992
REMARK  Name = 
REMARK  5 active torsions:
REMARK  status: ('A' for Active; 'I' for Inactive)
REMARK    1  A    between atoms: C_4  and  C_5
REMARK    2  A    between atoms: C_5  and  N_6
REMARK    3  A    between atoms: C_9  and  O_10
REMARK    4  A    between atoms: O_10  and  C_11
REMARK    5  A    between atoms: C_11  and  C_12
REMARK                            x       y       z     vdW  Elec       q    Type
REMARK                         _______ _______ _______ _____ _____    ______ ____
ROOT
ATOM      1  N   UNL     1       2.090   7.940  20.444  0.00  0.00    +0.000 N 
ATOM      2  C   UNL     1       2.126   6.607  20.026  0.00  0.00    +0.000 A 
ATOM      3  N   UNL     1       2.816   6.359  18.893  0.00  0.00    +0.000 NA
ATOM      4  C   UNL     1       2.894   5.098  18.410  0.00  0.00    +0.000 A 
ATOM      5  C   UNL     1       2.357   4.090  19.187  0.00  0.00    +0.000 A 
ATOM      6  N   UNL     1       2.290   2.725  19.138  0.00  0.00    +0.000 N 
ATOM      7  C   UNL     1       1.577   2.303  20.226  0.00  0.00    +0.000 A 
ATOM      8  N   UNL     1       1.204   3.311  20.976  0.00  0.00    +0.000 NA
ATOM      9  C   UNL     1       1.687   4.423  20.346  0.00  0.00    +0.000 A 
ATOM     10  N   UNL     1       1.532   5.679  20.777  0.00  0.00    +0.000 NA
ATOM     11  H   UNL     1       3.006   8.127  20.838  0.00  0.00    +0.000 HD
ATOM     12  H   UNL     1       2.676   2.122  18.431  0.00  0.00    +0.000 HD
ENDROOT
BRANCH   1  13
ATOM     13  C   UNL     1       1.028   8.231  21.405  0.00  0.00    +0.000 C 
BRANCH  13  17
ATOM     14  C   UNL     1      -0.895  11.143  19.910  0.00  0.00    +0.000 A 
ATOM     15  C   UNL     1      -1.078  11.550  21.212  0.00  0.00    +0.000 A 
ATOM     16  S   UNL     1      -0.339  10.486  22.326  0.00  0.00    +0.000 S 
ATOM     17  C   UNL     1       0.238   9.468  21.071  0.00  0.00    +0.000 A 
ATOM     18  C   UNL     1      -0.137   9.939  19.828  0.00  0.00    +0.000 A 
ENDBRANCH  13  17
ENDBRANCH   1  13
BRANCH   4  19
ATOM     19  O   UNL     1       3.546   4.959  17.198  0.00  0.00    +0.000 OA
BRANCH  19  20
ATOM     20  C   UNL     1       4.612   5.890  17.001  0.00  0.00    +0.000 C 
BRANCH  20  21
ATOM     21  C   UNL     1       5.970   5.182  16.880  0.00  0.00    +0.000 C 
ATOM     22  C   UNL     1       7.054   6.172  16.412  0.00  0.00    +0.000 C 
ATOM     23  C   UNL     1       7.472   7.163  17.499  0.00  0.00    +0.000 C 
ATOM     24  C   UNL     1       7.885   6.452  18.783  0.00  0.00    +0.000 C 
ATOM     25  C   UNL     1       6.818   5.479  19.272  0.00  0.00    +0.000 C 
ATOM     26  C   UNL     1       6.396   4.493  18.184  0.00  0.00    +0.000 C 
ENDBRANCH  20  21
ENDBRANCH  19  20
ENDBRANCH   4  19
TORSDOF 5
ENDMDL
MODEL 8
REMARK VINA RESULT:      -7.5      3.760      4.452
REMARK  Name = 
REMARK  5 active torsions:
REMARK  status: ('A' for Active; 'I' for Inactive)
REMARK    1  A    between atoms: C_4  and  C_5
REMARK    2  A    between atoms: C_5  and  N_6
REMARK    3  A    between atoms: C_9  and  O_10
REMARK    4  A    between atoms: O_10  and  C_11
REMARK    5  A    between atoms: C_11  and  C_12
REMARK                            x       y       z     vdW  Elec       q    Type
REMARK                         _______ _______ _______ _____ _____    ______ ____
ROOT
ATOM      1  N   UNL     1       2.639   7.430  18.154  0.00  0.00    +0.000 N 
ATOM      2  C   UNL     1       3.700   6.580  17.826  0.00  0.00    +0.000 A 
ATOM      3  N   UNL     1       3.882   5.518  18.639  0.00  0.00    +0.000 NA
ATOM      4  C   UNL     1       4.892   4.650  18.403  0.00  0.00    +0.000 A 
ATOM      5  C   UNL     1       5.622   4.830  17.244  0.00  0.00    +0.000 A 
ATOM      6  N   UNL     1       6.626   4.174  16.590  0.00  0.00    +0.000 N 
ATOM      7  C   UNL     1       6.940   4.899  15.472  0.00  0.00    +0.000 A 
ATOM      8  N   UNL     1       6.183   5.964  15.363  0.00  0.00    +0.000 NA
ATOM      9  C   UNL     1       5.358   5.929  16.452  0.00  0.00    +0.000 A 
ATOM     10  N   UNL     1       4.419   6.837  16.733  0.00  0.00    +0.000 NA
ATOM     11  H   UNL     1       1.798   6.937  17.870  0.00  0.00    +0.000 HD
ATOM     12  H   UNL     1       7.077   3.319  16.868  0.00  0.00    +0.000 HD
ENDROOT
BRANCH   1  13
ATOM     13  C   UNL     1       2.721   8.747  17.527  0.00  0.00    +0.000 C 
BRANCH  13  17
ATOM     14  C   UNL     1       1.242  11.900  19.039  0.00  0.00    +0.000 A 
ATOM     15  C   UNL     1       0.580  11.049  19.895  0.00  0.00    +0.000 A 
ATOM     16  S   UNL     1       0.953   9.411  19.586  0.00  0.00    +0.000 S 
ATOM     17  C   UNL     1       2.011   9.826  18.301  0.00  0.00    +0.000 A 
ATOM     18  C   UNL     1       2.067  11.194  18.117  0.00  0.00    +0.000 A 
ENDBRANCH  13  17
ENDBRANCH   1  13
BRANCH   4  19
ATOM     19  O   UNL     1       5.052   3.646  19.341  0.00  0.00    +0.000 OA
BRANCH  19  20
ATOM     20  C   UNL     1       4.024   3.608  20.333  0.00  0.00    +0.000 C 
BRANCH  20  21
ATOM     21  C   UNL     1       3.256   2.277  20.304  0.00  0.00    +0.000 C 
ATOM     22  C   UNL     1       1.907   2.418  21.035  0.00  0.00    +0.000 C 
ATOM     23  C   UNL     1       0.878   3.229  20.247  0.00  0.00    +0.000 C 
ATOM     24  C   UNL     1       0.691   2.683  18.836  0.00  0.00    +0.000 C 
ATOM     25  C   UNL     1       2.014   2.552  18.088  0.00  0.00    +0.000 C 
ATOM     26  C   UNL     1       3.044   1.747  18.879  0.00  0.00    +0.000 C 
ENDBRANCH  20  21
ENDBRANCH  19  20
ENDBRANCH   4  19
TORSDOF 5
ENDMDL
MODEL 9
REMARK VINA RESULT:      -7.5      3.798      5.053
REMARK  Name = 
REMARK  5 active torsions:
REMARK  status: ('A' for Active; 'I' for Inactive)
REMARK    1  A    between atoms: C_4  and  C_5
REMARK    2  A    between atoms: C_5  and  N_6
REMARK    3  A    between atoms: C_9  and  O_10
REMARK    4  A    between atoms: O_10  and  C_11
REMARK    5  A    between atoms: C_11  and  C_12
REMARK                            x       y       z     vdW  Elec       q    Type
REMARK                         _______ _______ _______ _____ _____    ______ ____
ROOT
ATOM      1  N   UNL     1       2.238   7.848  18.511  0.00  0.00    +0.000 N 
ATOM      2  C   UNL     1       3.267   7.013  18.067  0.00  0.00    +0.000 A 
ATOM      3  N   UNL     1       3.522   5.929  18.830  0.00  0.00    +0.000 NA
ATOM      4  C   UNL     1       4.509   5.072  18.481  0.00  0.00    +0.000 A 
ATOM      5  C   UNL     1       5.133   5.288  17.268  0.00  0.00    +0.000 A 
ATOM      6  N   UNL     1       6.078   4.656  16.509  0.00  0.00    +0.000 N 
ATOM      7  C   UNL     1       6.289   5.413  15.389  0.00  0.00    +0.000 A 
ATOM      8  N   UNL     1       5.524   6.478  15.378  0.00  0.00    +0.000 NA
ATOM      9  C   UNL     1       4.799   6.408  16.534  0.00  0.00    +0.000 A 
ATOM     10  N   UNL     1       3.886   7.304  16.923  0.00  0.00    +0.000 NA
ATOM     11  H   UNL     1       1.376   7.360  18.289  0.00  0.00    +0.000 HD
ATOM     12  H   UNL     1       6.553   3.795  16.722  0.00  0.00    +0.000 HD
ENDROOT
BRANCH   1  13
ATOM     13  C   UNL     1       2.262   9.183  17.918  0.00  0.00    +0.000 C 
BRANCH  13  17
ATOM     14  C   UNL     1      -1.159  10.748  18.434  0.00  0.00    +0.000 A 
ATOM     15  C   UNL     1      -0.480  11.756  19.080  0.00  0.00    +0.000 A 
ATOM     16  S   UNL     1       1.206  11.482  19.102  0.00  0.00    +0.000 S 
ATOM     17  C   UNL     1       1.044  10.007  18.243  0.00  0.00    +0.000 A 
ATOM     18  C   UNL     1      -0.279   9.736  17.952  0.00  0.00    +0.000 A 
ENDBRANCH  13  17
ENDBRANCH   1  13
BRANCH   4  19
ATOM     19  O   UNL     1       4.753   4.043  19.372  0.00  0.00    +0.000 OA
BRANCH  19  20
ATOM     20  C   UNL     1       3.764   3.912  20.395  0.00  0.00    +0.000 C 
BRANCH  20  21
ATOM     21  C   UNL     1       3.145   2.506  20.411  0.00  0.00    +0.000 C 
ATOM     22  C   UNL     1       1.743   2.541  21.049  0.00  0.00    +0.000 C 
ATOM     23  C   UNL     1       0.689   3.184  20.147  0.00  0.00    +0.000 C 
ATOM     24  C   UNL     1       0.656   2.536  18.767  0.00  0.00    +0.000 C 
ATOM     25  C   UNL     1       2.033   2.505  18.111  0.00  0.00    +0.000 C 
ATOM     26  C   UNL     1       3.087   1.870  19.015  0.00  0.00    +0.000 C 
ENDBRANCH  20  21
ENDBRANCH  19  20
ENDBRANCH   4  19
TORSDOF 5
ENDMDL
