MODEL 1
REMARK VINA RESULT:      -7.3      0.000      0.000
REMARK  Name = 
REMARK  9 active torsions:
REMARK  status: ('A' for Active; 'I' for Inactive)
REMARK    1  A    between atoms: C_1  and  C_2
REMARK    2  A    between atoms: C_2  and  O_3
REMARK    3  A    between atoms: O_3  and  C_4
REMARK    4  A    between atoms: C_7  and  C_8
REMARK    5  A    between atoms: N_13  and  C_14
REMARK    6  A    between atoms: C_14  and  C_15
REMARK    7  A    between atoms: C_25  and  O_26
REMARK    8  A    between atoms: O_26  and  C_27
REMARK    9  A    between atoms: C_27  and  C_28
REMARK                            x       y       z     vdW  Elec       q    Type
REMARK                         _______ _______ _______ _____ _____    ______ ____
ROOT
ATOM      1  C   UNL     1       3.113   6.269  19.068  0.00  0.00    +0.000 C 
ATOM      2  O   UNL     1       3.115   5.644  20.133  0.00  0.00    +0.000 OA
ATOM      3  N   UNL     1       2.235   7.327  18.826  0.00  0.00    +0.000 N 
ATOM      4  C   UNL     1       1.320   7.735  19.899  0.00  0.00    +0.000 C 
ATOM      5  C   UNL     1       1.369   9.261  20.130  0.00  0.00    +0.000 C 
ATOM      6  N   UNL     1       1.196  10.088  18.917  0.00  0.00    +0.000 NA
ATOM      7  C   UNL     1       2.147   9.633  17.887  0.00  0.00    +0.000 C 
ATOM      8  C   UNL     1       2.108   8.129  17.602  0.00  0.00    +0.000 C 
ENDROOT
BRANCH   1  12
ATOM      9  C   UNL     1       6.255   5.063  16.397  0.00  0.00    +0.000 A 
ATOM     10  C   UNL     1       5.224   4.183  16.757  0.00  0.00    +0.000 A 
ATOM     11  C   UNL     1       4.195   4.600  17.605  0.00  0.00    +0.000 A 
ATOM     12  C   UNL     1       4.170   5.912  18.083  0.00  0.00    +0.000 A 
ATOM     13  C   UNL     1       5.148   6.807  17.647  0.00  0.00    +0.000 A 
ATOM     14  C   UNL     1       6.254   6.366  16.913  0.00  0.00    +0.000 A 
BRANCH   9  15
ATOM     15  O   UNL     1       7.258   4.700  15.539  0.00  0.00    +0.000 OA
BRANCH  15  17
ATOM     16  C   UNL     1       6.252   3.821  13.561  0.00  0.00    +0.000 C 
ATOM     17  C   UNL     1       7.015   4.987  14.160  0.00  0.00    +0.000 C 
ENDBRANCH  15  17
ENDBRANCH   9  15
BRANCH  14  18
ATOM     18  O   UNL     1       7.224   7.326  16.783  0.00  0.00    +0.000 OA
BRANCH  18  19
ATOM     19  C   UNL     1       7.984   7.659  17.947  0.00  0.00    +0.000 C 
ATOM     20  C   UNL     1       8.197   9.168  17.972  0.00  0.00    +0.000 C 
ENDBRANCH  18  19
ENDBRANCH  14  18
ENDBRANCH   1  12
BRANCH   6  21
ATOM     21  C   UNL     1      -0.203  10.066  18.433  0.00  0.00    +0.000 C 
BRANCH  21  22
ATOM     22  C   UNL     1      -1.039  11.189  19.078  0.00  0.00    +0.000 C 
ATOM     23  O   UNL     1      -0.521  11.970  19.877  0.00  0.00    +0.000 OA
ATOM     24  N   UNL     1      -2.368  11.268  18.738  0.00  0.00    +0.000 N 
ATOM     25  C   UNL     1      -3.098  10.366  17.866  0.00  0.00    +0.000 C 
ATOM     26  C   UNL     1      -4.310  11.178  17.460  0.00  0.00    +0.000 C 
ATOM     27  C   UNL     1      -4.619  11.991  18.713  0.00  0.00    +0.000 C 
ATOM     28  C   UNL     1      -3.262  12.221  19.369  0.00  0.00    +0.000 C 
ENDBRANCH  21  22
ENDBRANCH   6  21
TORSDOF 7
ENDMDL
MODEL 2
REMARK VINA RESULT:      -7.2      2.718      3.946
REMARK  Name = 
REMARK  9 active torsions:
REMARK  status: ('A' for Active; 'I' for Inactive)
REMARK    1  A    between atoms: C_1  and  C_2
REMARK    2  A    between atoms: C_2  and  O_3
REMARK    3  A    between atoms: O_3  and  C_4
REMARK    4  A    between atoms: C_7  and  C_8
REMARK    5  A    between atoms: N_13  and  C_14
REMARK    6  A    between atoms: C_14  and  C_15
REMARK    7  A    between atoms: C_25  and  O_26
REMARK    8  A    between atoms: O_26  and  C_27
REMARK    9  A    between atoms: C_27  and  C_28
REMARK                            x       y       z     vdW  Elec       q    Type
REMARK                         _______ _______ _______ _____ _____    ______ ____
ROOT
ATOM      1  C   UNL     1       2.603   7.965  17.990  0.00  0.00    +0.000 C 
ATOM      2  O   UNL     1       2.764   8.412  16.851  0.00  0.00    +0.000 OA
ATOM      3  N   UNL     1       1.927   8.679  18.982  0.00  0.00    +0.000 N 
ATOM      4  C   UNL     1       1.352   9.984  18.635  0.00  0.00    +0.000 C 
ATOM      5  C   UNL     1      -0.122  10.086  19.088  0.00  0.00    +0.000 C 
ATOM      6  N   UNL     1      -0.372   9.733  20.502  0.00  0.00    +0.000 NA
ATOM      7  C   UNL     1       0.223   8.414  20.780  0.00  0.00    +0.000 C 
ATOM      8  C   UNL     1       1.694   8.279  20.376  0.00  0.00    +0.000 C 
ENDROOT
BRANCH   1  12
ATOM      9  C   UNL     1       3.773   3.929  18.886  0.00  0.00    +0.000 A 
ATOM     10  C   UNL     1       2.489   4.229  18.407  0.00  0.00    +0.000 A 
ATOM     11  C   UNL     1       2.134   5.543  18.096  0.00  0.00    +0.000 A 
ATOM     12  C   UNL     1       3.069   6.573  18.233  0.00  0.00    +0.000 A 
ATOM     13  C   UNL     1       4.370   6.254  18.621  0.00  0.00    +0.000 A 
ATOM     14  C   UNL     1       4.696   4.968  19.066  0.00  0.00    +0.000 A 
BRANCH   9  15
ATOM     15  O   UNL     1       4.167   2.649  19.166  0.00  0.00    +0.000 OA
BRANCH  15  17
ATOM     16  C   UNL     1       2.845   2.571  21.153  0.00  0.00    +0.000 C 
ATOM     17  C   UNL     1       4.216   2.317  20.556  0.00  0.00    +0.000 C 
ENDBRANCH  15  17
ENDBRANCH   9  15
BRANCH  14  18
ATOM     18  O   UNL     1       5.942   4.901  19.632  0.00  0.00    +0.000 OA
BRANCH  18  19
ATOM     19  C   UNL     1       7.009   5.583  18.969  0.00  0.00    +0.000 C 
ATOM     20  C   UNL     1       7.542   4.687  17.858  0.00  0.00    +0.000 C 
ENDBRANCH  18  19
ENDBRANCH  14  18
ENDBRANCH   1  12
BRANCH   6  21
ATOM     21  C   UNL     1       0.130  10.777  21.425  0.00  0.00    +0.000 C 
BRANCH  21  22
ATOM     22  C   UNL     1      -0.820  10.971  22.624  0.00  0.00    +0.000 C 
ATOM     23  O   UNL     1      -0.650  10.329  23.662  0.00  0.00    +0.000 OA
ATOM     24  N   UNL     1      -1.853  11.865  22.480  0.00  0.00    +0.000 N 
ATOM     25  C   UNL     1      -2.188  12.621  21.287  0.00  0.00    +0.000 C 
ATOM     26  C   UNL     1      -3.033  13.758  21.821  0.00  0.00    +0.000 C 
ATOM     27  C   UNL     1      -3.802  13.112  22.969  0.00  0.00    +0.000 C 
ATOM     28  C   UNL     1      -2.859  12.041  23.509  0.00  0.00    +0.000 C 
ENDBRANCH  21  22
ENDBRANCH   6  21
TORSDOF 7
ENDMDL
MODEL 3
REMARK VINA RESULT:      -7.1      1.537      1.942
REMARK  Name = 
REMARK  9 active torsions:
REMARK  status: ('A' for Active; 'I' for Inactive)
REMARK    1  A    between atoms: C_1  and  C_2
REMARK    2  A    between atoms: C_2  and  O_3
REMARK    3  A    between atoms: O_3  and  C_4
REMARK    4  A    between atoms: C_7  and  C_8
REMARK    5  A    between atoms: N_13  and  C_14
REMARK    6  A    between atoms: C_14  and  C_15
REMARK    7  A    between atoms: C_25  and  O_26
REMARK    8  A    between atoms: O_26  and  C_27
REMARK    9  A    between atoms: C_27  and  C_28
REMARK                            x       y       z     vdW  Elec       q    Type
REMARK                         _______ _______ _______ _____ _____    ______ ____
ROOT
ATOM      1  C   UNL     1       3.294   5.785  19.186  0.00  0.00    +0.000 C 
ATOM      2  O   UNL     1       3.402   5.098  20.206  0.00  0.00    +0.000 OA
ATOM      3  N   UNL     1       2.420   6.871  19.108  0.00  0.00    +0.000 N 
ATOM      4  C   UNL     1       1.642   7.229  20.300  0.00  0.00    +0.000 C 
ATOM      5  C   UNL     1       1.754   8.738  20.612  0.00  0.00    +0.000 C 
ATOM      6  N   UNL     1       1.464   9.639  19.475  0.00  0.00    +0.000 NA
ATOM      7  C   UNL     1       2.281   9.230  18.319  0.00  0.00    +0.000 C 
ATOM      8  C   UNL     1       2.174   7.746  17.955  0.00  0.00    +0.000 C 
ENDROOT
BRANCH   1  12
ATOM      9  C   UNL     1       6.046   4.657  16.085  0.00  0.00    +0.000 A 
ATOM     10  C   UNL     1       4.897   3.899  16.354  0.00  0.00    +0.000 A 
ATOM     11  C   UNL     1       3.999   4.295  17.347  0.00  0.00    +0.000 A 
ATOM     12  C   UNL     1       4.225   5.470  18.068  0.00  0.00    +0.000 A 
ATOM     13  C   UNL     1       5.320   6.266  17.732  0.00  0.00    +0.000 A 
ATOM     14  C   UNL     1       6.296   5.812  16.839  0.00  0.00    +0.000 A 
BRANCH   9  15
ATOM     15  O   UNL     1       6.928   4.319  15.095  0.00  0.00    +0.000 OA
BRANCH  15  17
ATOM     16  C   UNL     1       6.147   3.599  12.956  0.00  0.00    +0.000 C 
ATOM     17  C   UNL     1       6.587   4.789  13.788  0.00  0.00    +0.000 C 
ENDBRANCH  15  17
ENDBRANCH   9  15
BRANCH  14  18
ATOM     18  O   UNL     1       7.410   6.609  16.816  0.00  0.00    +0.000 OA
BRANCH  18  19
ATOM     19  C   UNL     1       7.841   7.179  18.054  0.00  0.00    +0.000 C 
ATOM     20  C   UNL     1       8.087   8.668  17.843  0.00  0.00    +0.000 C 
ENDBRANCH  18  19
ENDBRANCH  14  18
ENDBRANCH   1  12
BRANCH   6  21
ATOM     21  C   UNL     1       0.019   9.669  19.154  0.00  0.00    +0.000 C 
BRANCH  21  22
ATOM     22  C   UNL     1      -0.565  11.086  19.322  0.00  0.00    +0.000 C 
ATOM     23  O   UNL     1      -0.749  11.804  18.338  0.00  0.00    +0.000 OA
ATOM     24  N   UNL     1      -0.852  11.509  20.597  0.00  0.00    +0.000 N 
ATOM     25  C   UNL     1      -0.613  10.779  21.830  0.00  0.00    +0.000 C 
ATOM     26  C   UNL     1      -1.540  11.454  22.819  0.00  0.00    +0.000 C 
ATOM     27  C   UNL     1      -1.515  12.915  22.380  0.00  0.00    +0.000 C 
ATOM     28  C   UNL     1      -1.304  12.860  20.870  0.00  0.00    +0.000 C 
ENDBRANCH  21  22
ENDBRANCH   6  21
TORSDOF 7
ENDMDL
MODEL 4
REMARK VINA RESULT:      -7.1      2.864      4.183
REMARK  Name = 
REMARK  9 active torsions:
REMARK  status: ('A' for Active; 'I' for Inactive)
REMARK    1  A    between atoms: C_1  and  C_2
REMARK    2  A    between atoms: C_2  and  O_3
REMARK    3  A    between atoms: O_3  and  C_4
REMARK    4  A    between atoms: C_7  and  C_8
REMARK    5  A    between atoms: N_13  and  C_14
REMARK    6  A    between atoms: C_14  and  C_15
REMARK    7  A    between atoms: C_25  and  O_26
REMARK    8  A    between atoms: O_26  and  C_27
REMARK    9  A    between atoms: C_27  and  C_28
REMARK                            x       y       z     vdW  Elec       q    Type
REMARK                         _______ _______ _______ _____ _____    ______ ____
ROOT
ATOM      1  C   UNL     1       2.219   8.293  18.249  0.00  0.00    +0.000 C 
ATOM      2  O   UNL     1       2.234   8.908  17.178  0.00  0.00    +0.000 OA
ATOM      3  N   UNL     1       1.635   8.819  19.402  0.00  0.00    +0.000 N 
ATOM      4  C   UNL     1       0.976  10.129  19.318  0.00  0.00    +0.000 C 
ATOM      5  C   UNL     1      -0.439  10.087  19.935  0.00  0.00    +0.000 C 
ATOM      6  N   UNL     1      -0.515   9.520  21.299  0.00  0.00    +0.000 NA
ATOM      7  C   UNL     1       0.155   8.208  21.311  0.00  0.00    +0.000 C 
ATOM      8  C   UNL     1       1.575   8.211  20.738  0.00  0.00    +0.000 C 
ENDROOT
BRANCH   1  12
ATOM      9  C   UNL     1       3.607   4.229  18.381  0.00  0.00    +0.000 A 
ATOM     10  C   UNL     1       2.306   4.544  17.962  0.00  0.00    +0.000 A 
ATOM     11  C   UNL     1       1.880   5.872  17.899  0.00  0.00    +0.000 A 
ATOM     12  C   UNL     1       2.760   6.907  18.229  0.00  0.00    +0.000 A 
ATOM     13  C   UNL     1       4.078   6.591  18.557  0.00  0.00    +0.000 A 
ATOM     14  C   UNL     1       4.475   5.264  18.756  0.00  0.00    +0.000 A 
BRANCH   9  15
ATOM     15  O   UNL     1       4.070   2.942  18.420  0.00  0.00    +0.000 OA
BRANCH  15  17
ATOM     16  C   UNL     1       3.353   2.467  20.647  0.00  0.00    +0.000 C 
ATOM     17  C   UNL     1       3.283   2.034  19.195  0.00  0.00    +0.000 C 
ENDBRANCH  15  17
ENDBRANCH   9  15
BRANCH  14  18
ATOM     18  O   UNL     1       5.726   5.159  19.305  0.00  0.00    +0.000 OA
BRANCH  18  19
ATOM     19  C   UNL     1       6.816   5.740  18.585  0.00  0.00    +0.000 C 
ATOM     20  C   UNL     1       7.427   4.673  17.684  0.00  0.00    +0.000 C 
ENDBRANCH  18  19
ENDBRANCH  14  18
ENDBRANCH   1  12
BRANCH   6  21
ATOM     21  C   UNL     1       0.049  10.444  22.309  0.00  0.00    +0.000 C 
BRANCH  21  22
ATOM     22  C   UNL     1      -0.992  11.488  22.761  0.00  0.00    +0.000 C 
ATOM     23  O   UNL     1      -1.991  11.138  23.389  0.00  0.00    +0.000 OA
ATOM     24  N   UNL     1      -0.764  12.800  22.424  0.00  0.00    +0.000 N 
ATOM     25  C   UNL     1       0.338  13.316  21.631  0.00  0.00    +0.000 C 
ATOM     26  C   UNL     1       0.371  14.786  21.997  0.00  0.00    +0.000 C 
ATOM     27  C   UNL     1      -1.102  15.130  22.193  0.00  0.00    +0.000 C 
ATOM     28  C   UNL     1      -1.733  13.841  22.711  0.00  0.00    +0.000 C 
ENDBRANCH  21  22
ENDBRANCH   6  21
TORSDOF 7
ENDMDL
MODEL 5
REMARK VINA RESULT:      -7.0      2.541      3.738
REMARK  Name = 
REMARK  9 active torsions:
REMARK  status: ('A' for Active; 'I' for Inactive)
REMARK    1  A    between atoms: C_1  and  C_2
REMARK    2  A    between atoms: C_2  and  O_3
REMARK    3  A    between atoms: O_3  and  C_4
REMARK    4  A    between atoms: C_7  and  C_8
REMARK    5  A    between atoms: N_13  and  C_14
REMARK    6  A    between atoms: C_14  and  C_15
REMARK    7  A    between atoms: C_25  and  O_26
REMARK    8  A    between atoms: O_26  and  C_27
REMARK    9  A    between atoms: C_27  and  C_28
REMARK                            x       y       z     vdW  Elec       q    Type
REMARK                         _______ _______ _______ _____ _____    ______ ____
ROOT
ATOM      1  C   UNL     1       2.364   8.274  18.105  0.00  0.00    +0.000 C 
ATOM      2  O   UNL     1       2.495   8.643  16.934  0.00  0.00    +0.000 OA
ATOM      3  N   UNL     1       1.646   9.017  19.045  0.00  0.00    +0.000 N 
ATOM      4  C   UNL     1       0.989  10.253  18.603  0.00  0.00    +0.000 C 
ATOM      5  C   UNL     1      -0.487  10.297  19.056  0.00  0.00    +0.000 C 
ATOM      6  N   UNL     1      -0.713  10.037  20.494  0.00  0.00    +0.000 NA
ATOM      7  C   UNL     1      -0.036   8.783  20.868  0.00  0.00    +0.000 C 
ATOM      8  C   UNL     1       1.440   8.711  20.466  0.00  0.00    +0.000 C 
ENDROOT
BRANCH   1  12
ATOM      9  C   UNL     1       3.972   4.489  19.350  0.00  0.00    +0.000 A 
ATOM     10  C   UNL     1       2.707   4.921  19.775  0.00  0.00    +0.000 A 
ATOM     11  C   UNL     1       2.188   6.142  19.339  0.00  0.00    +0.000 A 
ATOM     12  C   UNL     1       2.917   6.936  18.450  0.00  0.00    +0.000 A 
ATOM     13  C   UNL     1       4.132   6.457  17.960  0.00  0.00    +0.000 A 
ATOM     14  C   UNL     1       4.722   5.306  18.493  0.00  0.00    +0.000 A 
BRANCH   9  15
ATOM     15  O   UNL     1       4.496   3.282  19.727  0.00  0.00    +0.000 OA
BRANCH  15  17
ATOM     16  C   UNL     1       3.543   1.720  18.194  0.00  0.00    +0.000 C 
ATOM     17  C   UNL     1       3.597   2.174  19.640  0.00  0.00    +0.000 C 
ENDBRANCH  15  17
ENDBRANCH   9  15
BRANCH  14  18
ATOM     18  O   UNL     1       6.013   5.124  18.069  0.00  0.00    +0.000 OA
BRANCH  18  19
ATOM     19  C   UNL     1       7.061   5.576  18.929  0.00  0.00    +0.000 C 
ATOM     20  C   UNL     1       7.765   6.751  18.260  0.00  0.00    +0.000 C 
ENDBRANCH  18  19
ENDBRANCH  14  18
ENDBRANCH   1  12
BRANCH   6  21
ATOM     21  C   UNL     1      -0.277  11.177  21.333  0.00  0.00    +0.000 C 
BRANCH  21  22
ATOM     22  C   UNL     1      -1.141  11.304  22.603  0.00  0.00    +0.000 C 
ATOM     23  O   UNL     1      -0.839  10.687  23.626  0.00  0.00    +0.000 OA
ATOM     24  N   UNL     1      -2.252  12.111  22.539  0.00  0.00    +0.000 N 
ATOM     25  C   UNL     1      -2.740  12.827  21.375  0.00  0.00    +0.000 C 
ATOM     26  C   UNL     1      -3.630  13.897  21.972  0.00  0.00    +0.000 C 
ATOM     27  C   UNL     1      -4.250  13.201  23.179  0.00  0.00    +0.000 C 
ATOM     28  C   UNL     1      -3.185  12.214  23.645  0.00  0.00    +0.000 C 
ENDBRANCH  21  22
ENDBRANCH   6  21
TORSDOF 7
ENDMDL
MODEL 6
REMARK VINA RESULT:      -7.0      1.692      1.913
REMARK  Name = 
REMARK  9 active torsions:
REMARK  status: ('A' for Active; 'I' for Inactive)
REMARK    1  A    between atoms: C_1  and  C_2
REMARK    2  A    between atoms: C_2  and  O_3
REMARK    3  A    between atoms: O_3  and  C_4
REMARK    4  A    between atoms: C_7  and  C_8
REMARK    5  A    between atoms: N_13  and  C_14
REMARK    6  A    between atoms: C_14  and  C_15
REMARK    7  A    between atoms: C_25  and  O_26
REMARK    8  A    between atoms: O_26  and  C_27
REMARK    9  A    between atoms: C_27  and  C_28
REMARK                            x       y       z     vdW  Elec       q    Type
REMARK                         _______ _______ _______ _____ _____    ______ ____
ROOT
ATOM      1  C   UNL     1       2.448   5.536  20.258  0.00  0.00    +0.000 C 
ATOM      2  O   UNL     1       2.481   4.864  21.293  0.00  0.00    +0.000 OA
ATOM      3  N   UNL     1       1.708   6.716  20.159  0.00  0.00    +0.000 N 
ATOM      4  C   UNL     1       0.985   7.189  21.346  0.00  0.00    +0.000 C 
ATOM      5  C   UNL     1       1.276   8.681  21.623  0.00  0.00    +0.000 C 
ATOM      6  N   UNL     1       1.087   9.584  20.468  0.00  0.00    +0.000 NA
ATOM      7  C   UNL     1       1.842   9.057  19.318  0.00  0.00    +0.000 C 
ATOM      8  C   UNL     1       1.559   7.589  18.987  0.00  0.00    +0.000 C 
ENDROOT
BRANCH   1  12
ATOM      9  C   UNL     1       4.901   4.004  17.080  0.00  0.00    +0.000 A 
ATOM     10  C   UNL     1       3.501   3.977  17.001  0.00  0.00    +0.000 A 
ATOM     11  C   UNL     1       2.719   4.504  18.031  0.00  0.00    +0.000 A 
ATOM     12  C   UNL     1       3.328   5.090  19.144  0.00  0.00    +0.000 A 
ATOM     13  C   UNL     1       4.719   5.195  19.172  0.00  0.00    +0.000 A 
ATOM     14  C   UNL     1       5.512   4.551  18.217  0.00  0.00    +0.000 A 
BRANCH   9  15
ATOM     15  O   UNL     1       5.698   3.530  16.073  0.00  0.00    +0.000 OA
BRANCH  15  17
ATOM     16  C   UNL     1       7.034   4.884  14.631  0.00  0.00    +0.000 C 
ATOM     17  C   UNL     1       5.660   4.285  14.860  0.00  0.00    +0.000 C 
ENDBRANCH  15  17
ENDBRANCH   9  15
BRANCH  14  18
ATOM     18  O   UNL     1       6.844   4.558  18.537  0.00  0.00    +0.000 OA
BRANCH  18  19
ATOM     19  C   UNL     1       7.389   5.766  19.074  0.00  0.00    +0.000 C 
ATOM     20  C   UNL     1       7.638   6.738  17.928  0.00  0.00    +0.000 C 
ENDBRANCH  18  19
ENDBRANCH  14  18
ENDBRANCH   1  12
BRANCH   6  21
ATOM     21  C   UNL     1      -0.347   9.778  20.152  0.00  0.00    +0.000 C 
BRANCH  21  22
ATOM     22  C   UNL     1      -0.556  10.972  19.199  0.00  0.00    +0.000 C 
ATOM     23  O   UNL     1       0.055  12.027  19.379  0.00  0.00    +0.000 OA
ATOM     24  N   UNL     1      -1.449  10.814  18.167  0.00  0.00    +0.000 N 
ATOM     25  C   UNL     1      -2.271   9.648  17.900  0.00  0.00    +0.000 C 
ATOM     26  C   UNL     1      -2.646   9.812  16.442  0.00  0.00    +0.000 C 
ATOM     27  C   UNL     1      -2.791  11.323  16.288  0.00  0.00    +0.000 C 
ATOM     28  C   UNL     1      -1.794  11.910  17.281  0.00  0.00    +0.000 C 
ENDBRANCH  21  22
ENDBRANCH   6  21
TORSDOF 7
ENDMDL
MODEL 7
REMARK VINA RESULT:      -6.9      2.630      9.022
REMARK  Name = 
REMARK  9 active torsions:
REMARK  status: ('A' for Active; 'I' for Inactive)
REMARK    1  A    between atoms: C_1  and  C_2
REMARK    2  A    between atoms: C_2  and  O_3
REMARK    3  A    between atoms: O_3  and  C_4
REMARK    4  A    between atoms: C_7  and  C_8
REMARK    5  A    between atoms: N_13  and  C_14
REMARK    6  A    between atoms: C_14  and  C_15
REMARK    7  A    between atoms: C_25  and  O_26
REMARK    8  A    between atoms: O_26  and  C_27
REMARK    9  A    between atoms: C_27  and  C_28
REMARK                            x       y       z     vdW  Elec       q    Type
REMARK                         _______ _______ _______ _____ _____    ______ ____
ROOT
ATOM      1  C   UNL     1       2.415   6.072  19.830  0.00  0.00    +0.000 C 
ATOM      2  O   UNL     1       1.843   5.269  20.573  0.00  0.00    +0.000 OA
ATOM      3  N   UNL     1       3.440   5.686  18.964  0.00  0.00    +0.000 N 
ATOM      4  C   UNL     1       3.811   4.267  18.909  0.00  0.00    +0.000 C 
ATOM      5  C   UNL     1       3.869   3.758  17.452  0.00  0.00    +0.000 C 
ATOM      6  N   UNL     1       4.687   4.576  16.531  0.00  0.00    +0.000 NA
ATOM      7  C   UNL     1       4.259   5.983  16.630  0.00  0.00    +0.000 C 
ATOM      8  C   UNL     1       4.219   6.538  18.056  0.00  0.00    +0.000 C 
ENDROOT
BRANCH   1  12
ATOM      9  C   UNL     1       1.120  10.166  19.698  0.00  0.00    +0.000 A 
ATOM     10  C   UNL     1       1.433   9.461  18.527  0.00  0.00    +0.000 A 
ATOM     11  C   UNL     1       1.827   8.122  18.586  0.00  0.00    +0.000 A 
ATOM     12  C   UNL     1       1.886   7.463  19.816  0.00  0.00    +0.000 A 
ATOM     13  C   UNL     1       1.484   8.144  20.966  0.00  0.00    +0.000 A 
ATOM     14  C   UNL     1       1.222   9.518  20.936  0.00  0.00    +0.000 A 
BRANCH   9  15
ATOM     15  O   UNL     1       0.695  11.468  19.675  0.00  0.00    +0.000 OA
BRANCH  15  17
ATOM     16  C   UNL     1      -1.418  12.576  19.620  0.00  0.00    +0.000 C 
ATOM     17  C   UNL     1      -0.436  11.725  18.839  0.00  0.00    +0.000 C 
ENDBRANCH  15  17
ENDBRANCH   9  15
BRANCH  14  18
ATOM     18  O   UNL     1       1.082  10.061  22.187  0.00  0.00    +0.000 OA
BRANCH  18  19
ATOM     19  C   UNL     1       0.048   9.538  23.024  0.00  0.00    +0.000 C 
ATOM     20  C   UNL     1      -1.069  10.570  23.117  0.00  0.00    +0.000 C 
ENDBRANCH  18  19
ENDBRANCH  14  18
ENDBRANCH   1  12
BRANCH   6  21
ATOM     21  C   UNL     1       6.136   4.414  16.792  0.00  0.00    +0.000 C 
BRANCH  21  22
ATOM     22  C   UNL     1       6.984   5.121  15.716  0.00  0.00    +0.000 C 
ATOM     23  O   UNL     1       7.737   6.045  16.026  0.00  0.00    +0.000 OA
ATOM     24  N   UNL     1       6.853   4.690  14.418  0.00  0.00    +0.000 N 
ATOM     25  C   UNL     1       5.951   3.663  13.930  0.00  0.00    +0.000 C 
ATOM     26  C   UNL     1       6.564   3.263  12.604  0.00  0.00    +0.000 C 
ATOM     27  C   UNL     1       7.132   4.575  12.073  0.00  0.00    +0.000 C 
ATOM     28  C   UNL     1       7.527   5.358  13.321  0.00  0.00    +0.000 C 
ENDBRANCH  21  22
ENDBRANCH   6  21
TORSDOF 7
ENDMDL
MODEL 8
REMARK VINA RESULT:      -6.9      2.974      4.214
REMARK  Name = 
REMARK  9 active torsions:
REMARK  status: ('A' for Active; 'I' for Inactive)
REMARK    1  A    between atoms: C_1  and  C_2
REMARK    2  A    between atoms: C_2  and  O_3
REMARK    3  A    between atoms: O_3  and  C_4
REMARK    4  A    between atoms: C_7  and  C_8
REMARK    5  A    between atoms: N_13  and  C_14
REMARK    6  A    between atoms: C_14  and  C_15
REMARK    7  A    between atoms: C_25  and  O_26
REMARK    8  A    between atoms: O_26  and  C_27
REMARK    9  A    between atoms: C_27  and  C_28
REMARK                            x       y       z     vdW  Elec       q    Type
REMARK                         _______ _______ _______ _____ _____    ______ ____
ROOT
ATOM      1  C   UNL     1       2.088   8.433  18.365  0.00  0.00    +0.000 C 
ATOM      2  O   UNL     1       2.039   8.840  17.201  0.00  0.00    +0.000 OA
ATOM      3  N   UNL     1       1.499   9.126  19.423  0.00  0.00    +0.000 N 
ATOM      4  C   UNL     1       0.756  10.356  19.125  0.00  0.00    +0.000 C 
ATOM      5  C   UNL     1      -0.640  10.345  19.788  0.00  0.00    +0.000 C 
ATOM      6  N   UNL     1      -0.647  10.035  21.234  0.00  0.00    +0.000 NA
ATOM      7  C   UNL     1       0.106   8.789  21.462  0.00  0.00    +0.000 C 
ATOM      8  C   UNL     1       1.509   8.771  20.849  0.00  0.00    +0.000 C 
ENDROOT
BRANCH   1  12
ATOM      9  C   UNL     1       3.977   4.670  19.221  0.00  0.00    +0.000 A 
ATOM     10  C   UNL     1       2.865   5.112  19.952  0.00  0.00    +0.000 A 
ATOM     11  C   UNL     1       2.246   6.325  19.643  0.00  0.00    +0.000 A 
ATOM     12  C   UNL     1       2.716   7.100  18.579  0.00  0.00    +0.000 A 
ATOM     13  C   UNL     1       3.764   6.610  17.800  0.00  0.00    +0.000 A 
ATOM     14  C   UNL     1       4.476   5.468  18.183  0.00  0.00    +0.000 A 
BRANCH   9  15
ATOM     15  O   UNL     1       4.585   3.469  19.473  0.00  0.00    +0.000 OA
BRANCH  15  17
ATOM     16  C   UNL     1       3.516   1.835  18.099  0.00  0.00    +0.000 C 
ATOM     17  C   UNL     1       3.710   2.340  19.516  0.00  0.00    +0.000 C 
ENDBRANCH  15  17
ENDBRANCH   9  15
BRANCH  14  18
ATOM     18  O   UNL     1       5.613   5.276  17.443  0.00  0.00    +0.000 OA
BRANCH  18  19
ATOM     19  C   UNL     1       6.621   6.288  17.502  0.00  0.00    +0.000 C 
ATOM     20  C   UNL     1       7.538   5.991  18.682  0.00  0.00    +0.000 C 
ENDBRANCH  18  19
ENDBRANCH  14  18
ENDBRANCH   1  12
BRANCH   6  21
ATOM     21  C   UNL     1      -0.120  11.161  22.039  0.00  0.00    +0.000 C 
BRANCH  21  22
ATOM     22  C   UNL     1      -1.230  11.817  22.883  0.00  0.00    +0.000 C 
ATOM     23  O   UNL     1      -2.086  11.123  23.433  0.00  0.00    +0.000 OA
ATOM     24  N   UNL     1      -1.229  13.188  22.981  0.00  0.00    +0.000 N 
ATOM     25  C   UNL     1      -0.316  14.105  22.323  0.00  0.00    +0.000 C 
ATOM     26  C   UNL     1      -0.440  15.370  23.147  0.00  0.00    +0.000 C 
ATOM     27  C   UNL     1      -1.910  15.379  23.553  0.00  0.00    +0.000 C 
ATOM     28  C   UNL     1      -2.289  13.905  23.663  0.00  0.00    +0.000 C 
ENDBRANCH  21  22
ENDBRANCH   6  21
TORSDOF 7
ENDMDL
MODEL 9
REMARK VINA RESULT:      -6.8      2.722      4.049
REMARK  Name = 
REMARK  9 active torsions:
REMARK  status: ('A' for Active; 'I' for Inactive)
REMARK    1  A    between atoms: C_1  and  C_2
REMARK    2  A    between atoms: C_2  and  O_3
REMARK    3  A    between atoms: O_3  and  C_4
REMARK    4  A    between atoms: C_7  and  C_8
REMARK    5  A    between atoms: N_13  and  C_14
REMARK    6  A    between atoms: C_14  and  C_15
REMARK    7  A    between atoms: C_25  and  O_26
REMARK    8  A    between atoms: O_26  and  C_27
REMARK    9  A    between atoms: C_27  and  C_28
REMARK                            x       y       z     vdW  Elec       q    Type
REMARK                         _______ _______ _______ _____ _____    ______ ____
ROOT
ATOM      1  C   UNL     1       2.201   8.321  18.189  0.00  0.00    +0.000 C 
ATOM      2  O   UNL     1       2.287   8.882  17.093  0.00  0.00    +0.000 OA
ATOM      3  N   UNL     1       1.618   8.936  19.298  0.00  0.00    +0.000 N 
ATOM      4  C   UNL     1       1.049  10.280  19.133  0.00  0.00    +0.000 C 
ATOM      5  C   UNL     1      -0.383  10.357  19.705  0.00  0.00    +0.000 C 
ATOM      6  N   UNL     1      -0.537   9.862  21.090  0.00  0.00    +0.000 NA
ATOM      7  C   UNL     1       0.046   8.512  21.184  0.00  0.00    +0.000 C 
ATOM      8  C   UNL     1       1.479   8.397  20.657  0.00  0.00    +0.000 C 
ENDROOT
BRANCH   1  12
ATOM      9  C   UNL     1       3.336   4.194  18.569  0.00  0.00    +0.000 A 
ATOM     10  C   UNL     1       2.031   4.563  18.212  0.00  0.00    +0.000 A 
ATOM     11  C   UNL     1       1.686   5.908  18.066  0.00  0.00    +0.000 A 
ATOM     12  C   UNL     1       2.650   6.903  18.250  0.00  0.00    +0.000 A 
ATOM     13  C   UNL     1       3.966   6.524  18.514  0.00  0.00    +0.000 A 
ATOM     14  C   UNL     1       4.292   5.193  18.796  0.00  0.00    +0.000 A 
BRANCH   9  15
ATOM     15  O   UNL     1       3.719   2.885  18.684  0.00  0.00    +0.000 OA
BRANCH  15  17
ATOM     16  C   UNL     1       2.958   2.511  20.916  0.00  0.00    +0.000 C 
ATOM     17  C   UNL     1       2.852   2.064  19.471  0.00  0.00    +0.000 C 
ENDBRANCH  15  17
ENDBRANCH   9  15
BRANCH  14  18
ATOM     18  O   UNL     1       5.570   5.046  19.268  0.00  0.00    +0.000 OA
BRANCH  18  19
ATOM     19  C   UNL     1       6.642   5.187  18.332  0.00  0.00    +0.000 C 
ATOM     20  C   UNL     1       7.805   5.884  19.026  0.00  0.00    +0.000 C 
ENDBRANCH  18  19
ENDBRANCH  14  18
ENDBRANCH   1  12
BRANCH   6  21
ATOM     21  C   UNL     1       0.057  10.794  22.075  0.00  0.00    +0.000 C 
BRANCH  21  22
ATOM     22  C   UNL     1      -0.416  12.242  21.835  0.00  0.00    +0.000 C 
ATOM     23  O   UNL     1       0.228  12.993  21.100  0.00  0.00    +0.000 OA
ATOM     24  N   UNL     1      -1.558  12.653  22.477  0.00  0.00    +0.000 N 
ATOM     25  C   UNL     1      -2.355  11.882  23.414  0.00  0.00    +0.000 C 
ATOM     26  C   UNL     1      -3.692  12.593  23.403  0.00  0.00    +0.000 C 
ATOM     27  C   UNL     1      -3.306  14.058  23.230  0.00  0.00    +0.000 C 
ATOM     28  C   UNL     1      -2.026  14.024  22.400  0.00  0.00    +0.000 C 
ENDBRANCH  21  22
ENDBRANCH   6  21
TORSDOF 7
ENDMDL
