MODEL 1
REMARK VINA RESULT:      -7.7      0.000      0.000
REMARK  Name = 
REMARK  2 active torsions:
REMARK  status: ('A' for Active; 'I' for Inactive)
REMARK    1  A    between atoms: N_1  and  C_2
REMARK    2  A    between atoms: C_11  and  C_12
REMARK                            x       y       z     vdW  Elec       q    Type
REMARK                         _______ _______ _______ _____ _____    ______ ____
ROOT
ATOM      1  C   UNL     1      -0.756  10.747  22.144  0.00  0.00    +0.000 A 
ATOM      2  N   UNL     1      -1.166  11.945  21.692  0.00  0.00    +0.000 NA
ATOM      3  C   UNL     1      -0.795  12.309  20.456  0.00  0.00    +0.000 A 
ATOM      4  N   UNL     1      -0.050  11.620  19.584  0.00  0.00    +0.000 NA
ATOM      5  C   UNL     1       0.387  10.421  20.054  0.00  0.00    +0.000 A 
ATOM      6  C   UNL     1       0.069   9.971  21.330  0.00  0.00    +0.000 A 
ATOM      7  S   UNL     1       0.799   8.460  21.662  0.00  0.00    +0.000 S 
ATOM      8  C   UNL     1       1.514   8.373  20.105  0.00  0.00    +0.000 A 
ATOM      9  C   UNL     1       2.331   7.332  19.624  0.00  0.00    +0.000 A 
ATOM     10  C   UNL     1       2.804   7.329  18.294  0.00  0.00    +0.000 A 
ATOM     11  C   UNL     1       2.435   8.414  17.491  0.00  0.00    +0.000 A 
ATOM     12  C   UNL     1       1.676   9.488  17.991  0.00  0.00    +0.000 A 
ATOM     13  C   UNL     1       1.191   9.474  19.320  0.00  0.00    +0.000 A 
ENDROOT
BRANCH  10  14
ATOM     14  C   UNL     1       3.632   6.184  17.815  0.00  0.00    +0.000 A 
ATOM     15  C   UNL     1       4.988   6.427  17.473  0.00  0.00    +0.000 A 
ATOM     16  C   UNL     1       5.815   5.441  16.926  0.00  0.00    +0.000 A 
ATOM     17  C   UNL     1       5.328   4.156  16.745  0.00  0.00    +0.000 A 
ATOM     18  C   UNL     1       4.014   3.866  17.103  0.00  0.00    +0.000 A 
ATOM     19  C   UNL     1       3.168   4.865  17.614  0.00  0.00    +0.000 A 
ATOM     20 CL   UNL     1       1.530   4.374  17.895  0.00  0.00    +0.000 Cl
ENDBRANCH  10  14
BRANCH   1  21
ATOM     21  N   UNL     1      -1.174  10.353  23.404  0.00  0.00    +0.000 N 
ATOM     22  H   UNL     1      -1.229   9.349  23.499  0.00  0.00    +0.000 HD
ATOM     23  H   UNL     1      -1.908  10.908  23.827  0.00  0.00    +0.000 HD
ENDBRANCH   1  21
TORSDOF 2
ENDMDL
MODEL 2
REMARK VINA RESULT:      -7.5      4.064      7.403
REMARK  Name = 
REMARK  2 active torsions:
REMARK  status: ('A' for Active; 'I' for Inactive)
REMARK    1  A    between atoms: N_1  and  C_2
REMARK    2  A    between atoms: C_11  and  C_12
REMARK                            x       y       z     vdW  Elec       q    Type
REMARK                         _______ _______ _______ _____ _____    ______ ____
ROOT
ATOM      1  C   UNL     1       4.598   3.611  18.433  0.00  0.00    +0.000 A 
ATOM      2  N   UNL     1       5.144   3.615  17.204  0.00  0.00    +0.000 NA
ATOM      3  C   UNL     1       4.950   4.696  16.435  0.00  0.00    +0.000 A 
ATOM      4  N   UNL     1       4.266   5.807  16.735  0.00  0.00    +0.000 NA
ATOM      5  C   UNL     1       3.692   5.789  17.967  0.00  0.00    +0.000 A 
ATOM      6  C   UNL     1       3.823   4.702  18.824  0.00  0.00    +0.000 A 
ATOM      7  S   UNL     1       2.953   4.942  20.278  0.00  0.00    +0.000 S 
ATOM      8  C   UNL     1       2.424   6.502  19.799  0.00  0.00    +0.000 A 
ATOM      9  C   UNL     1       1.598   7.364  20.545  0.00  0.00    +0.000 A 
ATOM     10  C   UNL     1       1.287   8.661  20.082  0.00  0.00    +0.000 A 
ATOM     11  C   UNL     1       1.825   9.034  18.846  0.00  0.00    +0.000 A 
ATOM     12  C   UNL     1       2.594   8.149  18.069  0.00  0.00    +0.000 A 
ATOM     13  C   UNL     1       2.916   6.858  18.548  0.00  0.00    +0.000 A 
ENDROOT
BRANCH  10  14
ATOM     14  C   UNL     1       0.443   9.555  20.927  0.00  0.00    +0.000 A 
ATOM     15  C   UNL     1       0.391   9.312  22.325  0.00  0.00    +0.000 A 
ATOM     16  C   UNL     1      -0.443  10.034  23.184  0.00  0.00    +0.000 A 
ATOM     17  C   UNL     1      -1.226  11.061  22.681  0.00  0.00    +0.000 A 
ATOM     18  C   UNL     1      -1.177  11.356  21.322  0.00  0.00    +0.000 A 
ATOM     19  C   UNL     1      -0.370  10.606  20.449  0.00  0.00    +0.000 A 
ATOM     20 CL   UNL     1      -0.514  11.018  18.772  0.00  0.00    +0.000 Cl
ENDBRANCH  10  14
BRANCH   1  21
ATOM     21  N   UNL     1       4.834   2.513  19.243  0.00  0.00    +0.000 N 
ATOM     22  H   UNL     1       5.808   2.245  19.260  0.00  0.00    +0.000 HD
ATOM     23  H   UNL     1       4.141   1.775  19.210  0.00  0.00    +0.000 HD
ENDBRANCH   1  21
TORSDOF 2
ENDMDL
MODEL 3
REMARK VINA RESULT:      -7.5      1.258      1.671
REMARK  Name = 
REMARK  2 active torsions:
REMARK  status: ('A' for Active; 'I' for Inactive)
REMARK    1  A    between atoms: N_1  and  C_2
REMARK    2  A    between atoms: C_11  and  C_12
REMARK                            x       y       z     vdW  Elec       q    Type
REMARK                         _______ _______ _______ _____ _____    ______ ____
ROOT
ATOM      1  C   UNL     1      -0.452  11.393  21.948  0.00  0.00    +0.000 A 
ATOM      2  N   UNL     1      -0.585  12.639  21.457  0.00  0.00    +0.000 NA
ATOM      3  C   UNL     1      -0.087  12.887  20.237  0.00  0.00    +0.000 A 
ATOM      4  N   UNL     1       0.541  12.037  19.416  0.00  0.00    +0.000 NA
ATOM      5  C   UNL     1       0.698  10.787  19.926  0.00  0.00    +0.000 A 
ATOM      6  C   UNL     1       0.233  10.444  21.190  0.00  0.00    +0.000 A 
ATOM      7  S   UNL     1       0.619   8.824  21.582  0.00  0.00    +0.000 S 
ATOM      8  C   UNL     1       1.374   8.553  20.067  0.00  0.00    +0.000 A 
ATOM      9  C   UNL     1       1.982   7.354  19.645  0.00  0.00    +0.000 A 
ATOM     10  C   UNL     1       2.508   7.221  18.341  0.00  0.00    +0.000 A 
ATOM     11  C   UNL     1       2.410   8.338  17.505  0.00  0.00    +0.000 A 
ATOM     12  C   UNL     1       1.865   9.557  17.948  0.00  0.00    +0.000 A 
ATOM     13  C   UNL     1       1.324   9.676  19.249  0.00  0.00    +0.000 A 
ENDROOT
BRANCH  10  14
ATOM     14  C   UNL     1       3.104   5.918  17.924  0.00  0.00    +0.000 A 
ATOM     15  C   UNL     1       2.308   4.747  18.028  0.00  0.00    +0.000 A 
ATOM     16  C   UNL     1       2.807   3.471  17.752  0.00  0.00    +0.000 A 
ATOM     17  C   UNL     1       4.114   3.322  17.316  0.00  0.00    +0.000 A 
ATOM     18  C   UNL     1       4.917   4.448  17.164  0.00  0.00    +0.000 A 
ATOM     19  C   UNL     1       4.431   5.729  17.480  0.00  0.00    +0.000 A 
ATOM     20 CL   UNL     1       5.590   7.011  17.356  0.00  0.00    +0.000 Cl
ENDBRANCH  10  14
BRANCH   1  21
ATOM     21  N   UNL     1      -1.003  11.126  23.190  0.00  0.00    +0.000 N 
ATOM     22  H   UNL     1      -0.310  10.855  23.873  0.00  0.00    +0.000 HD
ATOM     23  H   UNL     1      -1.887  10.630  23.191  0.00  0.00    +0.000 HD
ENDBRANCH   1  21
TORSDOF 2
ENDMDL
MODEL 4
REMARK VINA RESULT:      -7.4      2.045      3.132
REMARK  Name = 
REMARK  2 active torsions:
REMARK  status: ('A' for Active; 'I' for Inactive)
REMARK    1  A    between atoms: N_1  and  C_2
REMARK    2  A    between atoms: C_11  and  C_12
REMARK                            x       y       z     vdW  Elec       q    Type
REMARK                         _______ _______ _______ _____ _____    ______ ____
ROOT
ATOM      1  C   UNL     1       0.080  10.556  20.098  0.00  0.00    +0.000 A 
ATOM      2  N   UNL     1      -0.523  10.286  21.270  0.00  0.00    +0.000 NA
ATOM      3  C   UNL     1      -0.227   9.127  21.874  0.00  0.00    +0.000 A 
ATOM      4  N   UNL     1       0.613   8.173  21.458  0.00  0.00    +0.000 NA
ATOM      5  C   UNL     1       1.201   8.435  20.260  0.00  0.00    +0.000 A 
ATOM      6  C   UNL     1       0.939   9.602  19.552  0.00  0.00    +0.000 A 
ATOM      7  S   UNL     1       1.777   9.633  18.061  0.00  0.00    +0.000 S 
ATOM      8  C   UNL     1       2.522   8.116  18.357  0.00  0.00    +0.000 A 
ATOM      9  C   UNL     1       3.410   7.445  17.494  0.00  0.00    +0.000 A 
ATOM     10  C   UNL     1       4.024   6.233  17.876  0.00  0.00    +0.000 A 
ATOM     11  C   UNL     1       3.693   5.729  19.138  0.00  0.00    +0.000 A 
ATOM     12  C   UNL     1       2.753   6.363  19.972  0.00  0.00    +0.000 A 
ATOM     13  C   UNL     1       2.157   7.587  19.590  0.00  0.00    +0.000 A 
ENDROOT
BRANCH  10  14
ATOM     14  C   UNL     1       4.991   5.579  16.947  0.00  0.00    +0.000 A 
ATOM     15  C   UNL     1       4.603   4.375  16.305  0.00  0.00    +0.000 A 
ATOM     16  C   UNL     1       5.472   3.640  15.493  0.00  0.00    +0.000 A 
ATOM     17  C   UNL     1       6.754   4.110  15.254  0.00  0.00    +0.000 A 
ATOM     18  C   UNL     1       7.163   5.307  15.834  0.00  0.00    +0.000 A 
ATOM     19  C   UNL     1       6.304   6.027  16.684  0.00  0.00    +0.000 A 
ATOM     20 CL   UNL     1       7.003   7.430  17.424  0.00  0.00    +0.000 Cl
ENDBRANCH  10  14
BRANCH   1  21
ATOM     21  N   UNL     1      -0.192  11.772  19.495  0.00  0.00    +0.000 N 
ATOM     22  H   UNL     1      -0.956  12.263  19.936  0.00  0.00    +0.000 HD
ATOM     23  H   UNL     1      -0.139  11.793  18.483  0.00  0.00    +0.000 HD
ENDBRANCH   1  21
TORSDOF 2
ENDMDL
MODEL 5
REMARK VINA RESULT:      -7.4      1.176      2.110
REMARK  Name = 
REMARK  2 active torsions:
REMARK  status: ('A' for Active; 'I' for Inactive)
REMARK    1  A    between atoms: N_1  and  C_2
REMARK    2  A    between atoms: C_11  and  C_12
REMARK                            x       y       z     vdW  Elec       q    Type
REMARK                         _______ _______ _______ _____ _____    ______ ____
ROOT
ATOM      1  C   UNL     1      -0.341  12.278  20.331  0.00  0.00    +0.000 A 
ATOM      2  N   UNL     1      -0.924  12.329  21.542  0.00  0.00    +0.000 NA
ATOM      3  C   UNL     1      -0.831  11.247  22.328  0.00  0.00    +0.000 A 
ATOM      4  N   UNL     1      -0.217  10.088  22.063  0.00  0.00    +0.000 NA
ATOM      5  C   UNL     1       0.348  10.030  20.828  0.00  0.00    +0.000 A 
ATOM      6  C   UNL     1       0.284  11.096  19.938  0.00  0.00    +0.000 A 
ATOM      7  S   UNL     1       1.034  10.715  18.448  0.00  0.00    +0.000 S 
ATOM      8  C   UNL     1       1.481   9.147  18.982  0.00  0.00    +0.000 A 
ATOM      9  C   UNL     1       2.175   8.180  18.229  0.00  0.00    +0.000 A 
ATOM     10  C   UNL     1       2.557   6.947  18.799  0.00  0.00    +0.000 A 
ATOM     11  C   UNL     1       2.199   6.731  20.133  0.00  0.00    +0.000 A 
ATOM     12  C   UNL     1       1.447   7.668  20.865  0.00  0.00    +0.000 A 
ATOM     13  C   UNL     1       1.083   8.909  20.293  0.00  0.00    +0.000 A 
ENDROOT
BRANCH  10  14
ATOM     14  C   UNL     1       3.329   5.970  17.975  0.00  0.00    +0.000 A 
ATOM     15  C   UNL     1       4.508   6.418  17.326  0.00  0.00    +0.000 A 
ATOM     16  C   UNL     1       5.245   5.605  16.458  0.00  0.00    +0.000 A 
ATOM     17  C   UNL     1       4.853   4.293  16.244  0.00  0.00    +0.000 A 
ATOM     18  C   UNL     1       3.722   3.803  16.891  0.00  0.00    +0.000 A 
ATOM     19  C   UNL     1       2.957   4.630  17.732  0.00  0.00    +0.000 A 
ATOM     20 CL   UNL     1       1.514   3.907  18.364  0.00  0.00    +0.000 Cl
ENDBRANCH  10  14
BRANCH   1  21
ATOM     21  N   UNL     1      -0.400  13.411  19.536  0.00  0.00    +0.000 N 
ATOM     22  H   UNL     1      -0.126  13.231  18.581  0.00  0.00    +0.000 HD
ATOM     23  H   UNL     1      -0.087  14.275  19.963  0.00  0.00    +0.000 HD
ENDBRANCH   1  21
TORSDOF 2
ENDMDL
MODEL 6
REMARK VINA RESULT:      -7.3      1.547      1.701
REMARK  Name = 
REMARK  2 active torsions:
REMARK  status: ('A' for Active; 'I' for Inactive)
REMARK    1  A    between atoms: N_1  and  C_2
REMARK    2  A    between atoms: C_11  and  C_12
REMARK                            x       y       z     vdW  Elec       q    Type
REMARK                         _______ _______ _______ _____ _____    ______ ____
ROOT
ATOM      1  C   UNL     1      -0.930  11.762  21.312  0.00  0.00    +0.000 A 
ATOM      2  N   UNL     1      -1.093  12.762  20.427  0.00  0.00    +0.000 NA
ATOM      3  C   UNL     1      -0.531  12.624  19.217  0.00  0.00    +0.000 A 
ATOM      4  N   UNL     1       0.190  11.595  18.757  0.00  0.00    +0.000 NA
ATOM      5  C   UNL     1       0.376  10.599  19.663  0.00  0.00    +0.000 A 
ATOM      6  C   UNL     1      -0.152  10.664  20.947  0.00  0.00    +0.000 A 
ATOM      7  S   UNL     1       0.288   9.297  21.876  0.00  0.00    +0.000 S 
ATOM      8  C   UNL     1       1.152   8.589  20.574  0.00  0.00    +0.000 A 
ATOM      9  C   UNL     1       1.844   7.363  20.605  0.00  0.00    +0.000 A 
ATOM     10  C   UNL     1       2.458   6.841  19.447  0.00  0.00    +0.000 A 
ATOM     11  C   UNL     1       2.359   7.607  18.281  0.00  0.00    +0.000 A 
ATOM     12  C   UNL     1       1.727   8.864  18.265  0.00  0.00    +0.000 A 
ATOM     13  C   UNL     1       1.098   9.372  19.426  0.00  0.00    +0.000 A 
ENDROOT
BRANCH  10  14
ATOM     14  C   UNL     1       3.143   5.517  19.517  0.00  0.00    +0.000 A 
ATOM     15  C   UNL     1       4.505   5.440  19.125  0.00  0.00    +0.000 A 
ATOM     16  C   UNL     1       5.204   4.231  19.066  0.00  0.00    +0.000 A 
ATOM     17  C   UNL     1       4.578   3.054  19.444  0.00  0.00    +0.000 A 
ATOM     18  C   UNL     1       3.253   3.090  19.870  0.00  0.00    +0.000 A 
ATOM     19  C   UNL     1       2.535   4.299  19.892  0.00  0.00    +0.000 A 
ATOM     20 CL   UNL     1       0.864   4.158  20.329  0.00  0.00    +0.000 Cl
ENDBRANCH  10  14
BRANCH   1  21
ATOM     21  N   UNL     1      -1.546  11.885  22.546  0.00  0.00    +0.000 N 
ATOM     22  H   UNL     1      -1.258  12.715  23.044  0.00  0.00    +0.000 HD
ATOM     23  H   UNL     1      -1.658  11.030  23.078  0.00  0.00    +0.000 HD
ENDBRANCH   1  21
TORSDOF 2
ENDMDL
MODEL 7
REMARK VINA RESULT:      -7.3      1.596      1.994
REMARK  Name = 
REMARK  2 active torsions:
REMARK  status: ('A' for Active; 'I' for Inactive)
REMARK    1  A    between atoms: N_1  and  C_2
REMARK    2  A    between atoms: C_11  and  C_12
REMARK                            x       y       z     vdW  Elec       q    Type
REMARK                         _______ _______ _______ _____ _____    ______ ____
ROOT
ATOM      1  C   UNL     1      -0.054  11.414  21.570  0.00  0.00    +0.000 A 
ATOM      2  N   UNL     1      -0.015  12.593  20.923  0.00  0.00    +0.000 NA
ATOM      3  C   UNL     1       0.542  12.620  19.704  0.00  0.00    +0.000 A 
ATOM      4  N   UNL     1       1.081  11.603  19.022  0.00  0.00    +0.000 NA
ATOM      5  C   UNL     1       1.065  10.418  19.690  0.00  0.00    +0.000 A 
ATOM      6  C   UNL     1       0.526  10.300  20.965  0.00  0.00    +0.000 A 
ATOM      7  S   UNL     1       0.694   8.708  21.571  0.00  0.00    +0.000 S 
ATOM      8  C   UNL     1       1.451   8.155  20.135  0.00  0.00    +0.000 A 
ATOM      9  C   UNL     1       1.914   6.847  19.890  0.00  0.00    +0.000 A 
ATOM     10  C   UNL     1       2.454   6.485  18.637  0.00  0.00    +0.000 A 
ATOM     11  C   UNL     1       2.520   7.489  17.666  0.00  0.00    +0.000 A 
ATOM     12  C   UNL     1       2.121   8.812  17.931  0.00  0.00    +0.000 A 
ATOM     13  C   UNL     1       1.564   9.162  19.183  0.00  0.00    +0.000 A 
ENDROOT
BRANCH  10  14
ATOM     14  C   UNL     1       2.892   5.077  18.411  0.00  0.00    +0.000 A 
ATOM     15  C   UNL     1       1.937   4.141  17.936  0.00  0.00    +0.000 A 
ATOM     16  C   UNL     1       2.226   2.781  17.784  0.00  0.00    +0.000 A 
ATOM     17  C   UNL     1       3.502   2.314  18.058  0.00  0.00    +0.000 A 
ATOM     18  C   UNL     1       4.479   3.206  18.490  0.00  0.00    +0.000 A 
ATOM     19  C   UNL     1       4.180   4.566  18.683  0.00  0.00    +0.000 A 
ATOM     20 CL   UNL     1       5.468   5.520  19.341  0.00  0.00    +0.000 Cl
ENDBRANCH  10  14
BRANCH   1  21
ATOM     21  N   UNL     1      -0.667  11.377  22.811  0.00  0.00    +0.000 N 
ATOM     22  H   UNL     1      -0.005  11.319  23.571  0.00  0.00    +0.000 HD
ATOM     23  H   UNL     1      -1.511  10.820  22.876  0.00  0.00    +0.000 HD
ENDBRANCH   1  21
TORSDOF 2
ENDMDL
MODEL 8
REMARK VINA RESULT:      -7.3      1.460      2.437
REMARK  Name = 
REMARK  2 active torsions:
REMARK  status: ('A' for Active; 'I' for Inactive)
REMARK    1  A    between atoms: N_1  and  C_2
REMARK    2  A    between atoms: C_11  and  C_12
REMARK                            x       y       z     vdW  Elec       q    Type
REMARK                         _______ _______ _______ _____ _____    ______ ____
ROOT
ATOM      1  C   UNL     1      -0.031  10.892  20.221  0.00  0.00    +0.000 A 
ATOM      2  N   UNL     1      -0.629  10.716  21.413  0.00  0.00    +0.000 NA
ATOM      3  C   UNL     1      -0.376   9.580  22.079  0.00  0.00    +0.000 A 
ATOM      4  N   UNL     1       0.415   8.567  21.706  0.00  0.00    +0.000 NA
ATOM      5  C   UNL     1       0.995   8.735  20.489  0.00  0.00    +0.000 A 
ATOM      6  C   UNL     1       0.776   9.871  19.719  0.00  0.00    +0.000 A 
ATOM      7  S   UNL     1       1.593   9.780  18.219  0.00  0.00    +0.000 S 
ATOM      8  C   UNL     1       2.273   8.250  18.591  0.00  0.00    +0.000 A 
ATOM      9  C   UNL     1       3.118   7.492  17.757  0.00  0.00    +0.000 A 
ATOM     10  C   UNL     1       3.682   6.276  18.200  0.00  0.00    +0.000 A 
ATOM     11  C   UNL     1       3.347   5.859  19.492  0.00  0.00    +0.000 A 
ATOM     12  C   UNL     1       2.450   6.581  20.300  0.00  0.00    +0.000 A 
ATOM     13  C   UNL     1       1.903   7.808  19.856  0.00  0.00    +0.000 A 
ENDROOT
BRANCH  10  14
ATOM     14  C   UNL     1       4.606   5.528  17.297  0.00  0.00    +0.000 A 
ATOM     15  C   UNL     1       5.821   6.150  16.909  0.00  0.00    +0.000 A 
ATOM     16  C   UNL     1       6.704   5.571  15.993  0.00  0.00    +0.000 A 
ATOM     17  C   UNL     1       6.426   4.320  15.465  0.00  0.00    +0.000 A 
ATOM     18  C   UNL     1       5.263   3.659  15.848  0.00  0.00    +0.000 A 
ATOM     19  C   UNL     1       4.353   4.257  16.737  0.00  0.00    +0.000 A 
ATOM     20 CL   UNL     1       2.897   3.360  17.018  0.00  0.00    +0.000 Cl
ENDBRANCH  10  14
BRANCH   1  21
ATOM     21  N   UNL     1      -0.258  12.083  19.553  0.00  0.00    +0.000 N 
ATOM     22  H   UNL     1      -1.068  12.045  18.952  0.00  0.00    +0.000 HD
ATOM     23  H   UNL     1       0.563  12.567  19.208  0.00  0.00    +0.000 HD
ENDBRANCH   1  21
TORSDOF 2
ENDMDL
MODEL 9
REMARK VINA RESULT:      -7.2      2.052      3.106
REMARK  Name = 
REMARK  2 active torsions:
REMARK  status: ('A' for Active; 'I' for Inactive)
REMARK    1  A    between atoms: N_1  and  C_2
REMARK    2  A    between atoms: C_11  and  C_12
REMARK                            x       y       z     vdW  Elec       q    Type
REMARK                         _______ _______ _______ _____ _____    ______ ____
ROOT
ATOM      1  C   UNL     1       0.946  12.187  19.224  0.00  0.00    +0.000 A 
ATOM      2  N   UNL     1       0.361  12.700  20.321  0.00  0.00    +0.000 NA
ATOM      3  C   UNL     1       0.106  11.869  21.342  0.00  0.00    +0.000 A 
ATOM      4  N   UNL     1       0.363  10.558  21.420  0.00  0.00    +0.000 NA
ATOM      5  C   UNL     1       0.929  10.036  20.299  0.00  0.00    +0.000 A 
ATOM      6  C   UNL     1       1.211  10.818  19.185  0.00  0.00    +0.000 A 
ATOM      7  S   UNL     1       1.869   9.882  17.913  0.00  0.00    +0.000 S 
ATOM      8  C   UNL     1       1.819   8.440  18.840  0.00  0.00    +0.000 A 
ATOM      9  C   UNL     1       2.225   7.162  18.410  0.00  0.00    +0.000 A 
ATOM     10  C   UNL     1       2.209   6.056  19.287  0.00  0.00    +0.000 A 
ATOM     11  C   UNL     1       1.757   6.292  20.590  0.00  0.00    +0.000 A 
ATOM     12  C   UNL     1       1.286   7.553  21.000  0.00  0.00    +0.000 A 
ATOM     13  C   UNL     1       1.323   8.659  20.120  0.00  0.00    +0.000 A 
ENDROOT
BRANCH  10  14
ATOM     14  C   UNL     1       2.690   4.730  18.800  0.00  0.00    +0.000 A 
ATOM     15  C   UNL     1       1.727   3.777  18.378  0.00  0.00    +0.000 A 
ATOM     16  C   UNL     1       2.072   2.477  17.995  0.00  0.00    +0.000 A 
ATOM     17  C   UNL     1       3.404   2.096  17.976  0.00  0.00    +0.000 A 
ATOM     18  C   UNL     1       4.384   3.012  18.347  0.00  0.00    +0.000 A 
ATOM     19  C   UNL     1       4.037   4.307  18.771  0.00  0.00    +0.000 A 
ATOM     20 CL   UNL     1       5.359   5.286  19.315  0.00  0.00    +0.000 Cl
ENDBRANCH  10  14
BRANCH   1  21
ATOM     21  N   UNL     1       1.249  13.053  18.187  0.00  0.00    +0.000 N 
ATOM     22  H   UNL     1       2.167  12.890  17.800  0.00  0.00    +0.000 HD
ATOM     23  H   UNL     1       0.949  14.013  18.304  0.00  0.00    +0.000 HD
ENDBRANCH   1  21
TORSDOF 2
ENDMDL
