MODEL 1
REMARK VINA RESULT:      -8.1      0.000      0.000
REMARK  Name = 
REMARK  6 active torsions:
REMARK  status: ('A' for Active; 'I' for Inactive)
REMARK    1  A    between atoms: C_1  and  C_2
REMARK    2  A    between atoms: C_2  and  C_3
REMARK    3  A    between atoms: C_5  and  C_6
REMARK    4  A    between atoms: C_7  and  C_8
REMARK    5  A    between atoms: C_11  and  C_12
REMARK    6  A    between atoms: N_20  and  C_21
REMARK                            x       y       z     vdW  Elec       q    Type
REMARK                         _______ _______ _______ _____ _____    ______ ____
ROOT
ATOM      1  C   UNL     1       3.907   4.461  19.444  0.00  0.00    +0.000 C 
ATOM      2  C   UNL     1       2.469   4.946  19.077  0.00  0.00    +0.000 C 
ATOM      3  C   UNL     1       1.817   4.194  17.886  0.00  0.00    +0.000 C 
ATOM      4  C   UNL     1       2.243   2.720  17.764  0.00  0.00    +0.000 C 
ATOM      5  C   UNL     1       1.962   1.922  19.038  0.00  0.00    +0.000 C 
ATOM      6  C   UNL     1       3.258   2.035  19.855  0.00  0.00    +0.000 C 
ATOM      7  C   UNL     1       4.161   2.976  19.035  0.00  0.00    +0.000 C 
ATOM      8  N   UNL     1       3.695   2.580  17.700  0.00  0.00    +0.000 NA
ATOM      9  C   UNL     1       4.334   3.165  16.544  0.00  0.00    +0.000 C 
ENDROOT
BRANCH   2  10
ATOM     10  C   UNL     1       2.317   6.460  19.015  0.00  0.00    +0.000 A 
ATOM     11  C   UNL     1       2.027   7.228  20.157  0.00  0.00    +0.000 A 
ATOM     12  C   UNL     1       1.748   8.587  20.056  0.00  0.00    +0.000 A 
ATOM     13  C   UNL     1       1.757   9.226  18.812  0.00  0.00    +0.000 A 
ATOM     14  C   UNL     1       1.397  10.674  18.697  0.00  0.00    +0.000 C 
ATOM     15  C   UNL     1       2.103   8.486  17.678  0.00  0.00    +0.000 A 
ATOM     16  C   UNL     1       2.370   7.118  17.773  0.00  0.00    +0.000 A 
ENDBRANCH   2  10
BRANCH   1  19
ATOM     17  C   UNL     1       6.706   6.558  18.209  0.00  0.00    +0.000 A 
ATOM     18  C   UNL     1       5.330   6.273  18.078  0.00  0.00    +0.000 A 
ATOM     19  C   UNL     1       5.063   5.340  19.052  0.00  0.00    +0.000 A 
ATOM     20  O   UNL     1       6.199   5.171  19.796  0.00  0.00    +0.000 OA
ATOM     21  N   UNL     1       7.229   5.931  19.267  0.00  0.00    +0.000 NA
BRANCH  17  23
ATOM     22  C   UNL     1       8.152   8.599  17.908  0.00  0.00    +0.000 C 
ATOM     23  C   UNL     1       7.552   7.354  17.279  0.00  0.00    +0.000 C 
ENDBRANCH  17  23
ENDBRANCH   1  19
TORSDOF 3
ENDMDL
MODEL 2
REMARK VINA RESULT:      -8.0      1.509      1.909
REMARK  Name = 
REMARK  6 active torsions:
REMARK  status: ('A' for Active; 'I' for Inactive)
REMARK    1  A    between atoms: C_1  and  C_2
REMARK    2  A    between atoms: C_2  and  C_3
REMARK    3  A    between atoms: C_5  and  C_6
REMARK    4  A    between atoms: C_7  and  C_8
REMARK    5  A    between atoms: C_11  and  C_12
REMARK    6  A    between atoms: N_20  and  C_21
REMARK                            x       y       z     vdW  Elec       q    Type
REMARK                         _______ _______ _______ _____ _____    ______ ____
ROOT
ATOM      1  C   UNL     1       3.578   4.392  20.113  0.00  0.00    +0.000 C 
ATOM      2  C   UNL     1       2.184   5.095  20.147  0.00  0.00    +0.000 C 
ATOM      3  C   UNL     1       1.009   4.225  19.624  0.00  0.00    +0.000 C 
ATOM      4  C   UNL     1       1.176   2.718  19.887  0.00  0.00    +0.000 C 
ATOM      5  C   UNL     1       1.375   2.402  21.370  0.00  0.00    +0.000 C 
ATOM      6  C   UNL     1       2.898   2.414  21.565  0.00  0.00    +0.000 C 
ATOM      7  C   UNL     1       3.467   2.837  20.196  0.00  0.00    +0.000 C 
ATOM      8  N   UNL     1       2.439   2.212  19.355  0.00  0.00    +0.000 NA
ATOM      9  C   UNL     1       2.588   2.276  17.920  0.00  0.00    +0.000 C 
ENDROOT
BRANCH   2  10
ATOM     10  C   UNL     1       2.190   6.519  19.611  0.00  0.00    +0.000 A 
ATOM     11  C   UNL     1       1.828   7.619  20.410  0.00  0.00    +0.000 A 
ATOM     12  C   UNL     1       1.699   8.892  19.865  0.00  0.00    +0.000 A 
ATOM     13  C   UNL     1       1.933   9.111  18.504  0.00  0.00    +0.000 A 
ATOM     14  C   UNL     1       1.733  10.468  17.905  0.00  0.00    +0.000 C 
ATOM     15  C   UNL     1       2.352   8.038  17.712  0.00  0.00    +0.000 A 
ATOM     16  C   UNL     1       2.470   6.755  18.253  0.00  0.00    +0.000 A 
ENDBRANCH   2  10
BRANCH   1  19
ATOM     17  C   UNL     1       5.972   5.164  17.388  0.00  0.00    +0.000 A 
ATOM     18  C   UNL     1       4.722   4.588  17.700  0.00  0.00    +0.000 A 
ATOM     19  C   UNL     1       4.549   4.814  19.045  0.00  0.00    +0.000 A 
ATOM     20  O   UNL     1       5.591   5.588  19.480  0.00  0.00    +0.000 OA
ATOM     21  N   UNL     1       6.483   5.805  18.444  0.00  0.00    +0.000 NA
BRANCH  17  23
ATOM     22  C   UNL     1       6.186   3.964  15.184  0.00  0.00    +0.000 C 
ATOM     23  C   UNL     1       6.730   5.033  16.115  0.00  0.00    +0.000 C 
ENDBRANCH  17  23
ENDBRANCH   1  19
TORSDOF 3
ENDMDL
MODEL 3
REMARK VINA RESULT:      -7.8      2.192      4.785
REMARK  Name = 
REMARK  6 active torsions:
REMARK  status: ('A' for Active; 'I' for Inactive)
REMARK    1  A    between atoms: C_1  and  C_2
REMARK    2  A    between atoms: C_2  and  C_3
REMARK    3  A    between atoms: C_5  and  C_6
REMARK    4  A    between atoms: C_7  and  C_8
REMARK    5  A    between atoms: C_11  and  C_12
REMARK    6  A    between atoms: N_20  and  C_21
REMARK                            x       y       z     vdW  Elec       q    Type
REMARK                         _______ _______ _______ _____ _____    ______ ____
ROOT
ATOM      1  C   UNL     1       2.284   4.698  18.697  0.00  0.00    +0.000 C 
ATOM      2  C   UNL     1       3.724   4.134  18.477  0.00  0.00    +0.000 C 
ATOM      3  C   UNL     1       4.123   2.987  19.444  0.00  0.00    +0.000 C 
ATOM      4  C   UNL     1       2.949   2.093  19.879  0.00  0.00    +0.000 C 
ATOM      5  C   UNL     1       2.213   1.474  18.689  0.00  0.00    +0.000 C 
ATOM      6  C   UNL     1       1.090   2.473  18.370  0.00  0.00    +0.000 C 
ATOM      7  C   UNL     1       1.322   3.649  19.339  0.00  0.00    +0.000 C 
ATOM      8  N   UNL     1       1.862   2.874  20.463  0.00  0.00    +0.000 NA
ATOM      9  C   UNL     1       2.173   3.565  21.692  0.00  0.00    +0.000 C 
ENDROOT
BRANCH   2  10
ATOM     10  C   UNL     1       4.793   5.203  18.305  0.00  0.00    +0.000 A 
ATOM     11  C   UNL     1       4.754   6.135  17.251  0.00  0.00    +0.000 A 
ATOM     12  C   UNL     1       5.813   7.008  17.025  0.00  0.00    +0.000 A 
ATOM     13  C   UNL     1       6.944   6.986  17.848  0.00  0.00    +0.000 A 
ATOM     14  C   UNL     1       8.108   7.882  17.567  0.00  0.00    +0.000 C 
ATOM     15  C   UNL     1       6.967   6.107  18.935  0.00  0.00    +0.000 A 
ATOM     16  C   UNL     1       5.912   5.218  19.157  0.00  0.00    +0.000 A 
ENDBRANCH   2  10
BRANCH   1  19
ATOM     17  C   UNL     1       1.755   7.895  20.500  0.00  0.00    +0.000 A 
ATOM     18  C   UNL     1       2.010   6.514  20.645  0.00  0.00    +0.000 A 
ATOM     19  C   UNL     1       2.152   6.039  19.362  0.00  0.00    +0.000 A 
ATOM     20  O   UNL     1       2.101   7.109  18.509  0.00  0.00    +0.000 OA
ATOM     21  N   UNL     1       1.849   8.270  19.220  0.00  0.00    +0.000 NA
BRANCH  17  23
ATOM     22  C   UNL     1      -0.173   8.927  21.751  0.00  0.00    +0.000 C 
ATOM     23  C   UNL     1       1.332   8.847  21.561  0.00  0.00    +0.000 C 
ENDBRANCH  17  23
ENDBRANCH   1  19
TORSDOF 3
ENDMDL
MODEL 4
REMARK VINA RESULT:      -7.6      1.434      1.622
REMARK  Name = 
REMARK  6 active torsions:
REMARK  status: ('A' for Active; 'I' for Inactive)
REMARK    1  A    between atoms: C_1  and  C_2
REMARK    2  A    between atoms: C_2  and  C_3
REMARK    3  A    between atoms: C_5  and  C_6
REMARK    4  A    between atoms: C_7  and  C_8
REMARK    5  A    between atoms: C_11  and  C_12
REMARK    6  A    between atoms: N_20  and  C_21
REMARK                            x       y       z     vdW  Elec       q    Type
REMARK                         _______ _______ _______ _____ _____    ______ ____
ROOT
ATOM      1  C   UNL     1       3.561   4.375  20.150  0.00  0.00    +0.000 C 
ATOM      2  C   UNL     1       2.164   5.074  20.138  0.00  0.00    +0.000 C 
ATOM      3  C   UNL     1       1.006   4.196  19.592  0.00  0.00    +0.000 C 
ATOM      4  C   UNL     1       1.170   2.692  19.877  0.00  0.00    +0.000 C 
ATOM      5  C   UNL     1       1.328   2.393  21.368  0.00  0.00    +0.000 C 
ATOM      6  C   UNL     1       2.846   2.411  21.604  0.00  0.00    +0.000 C 
ATOM      7  C   UNL     1       3.451   2.821  20.247  0.00  0.00    +0.000 C 
ATOM      8  N   UNL     1       2.447   2.184  19.385  0.00  0.00    +0.000 NA
ATOM      9  C   UNL     1       2.635   2.233  17.954  0.00  0.00    +0.000 C 
ENDROOT
BRANCH   2  10
ATOM     10  C   UNL     1       2.182   6.493  19.587  0.00  0.00    +0.000 A 
ATOM     11  C   UNL     1       1.908   7.611  20.396  0.00  0.00    +0.000 A 
ATOM     12  C   UNL     1       1.784   8.883  19.846  0.00  0.00    +0.000 A 
ATOM     13  C   UNL     1       1.937   9.082  18.469  0.00  0.00    +0.000 A 
ATOM     14  C   UNL     1       1.743  10.439  17.870  0.00  0.00    +0.000 C 
ATOM     15  C   UNL     1       2.270   7.988  17.664  0.00  0.00    +0.000 A 
ATOM     16  C   UNL     1       2.380   6.707  18.211  0.00  0.00    +0.000 A 
ENDBRANCH   2  10
BRANCH   1  19
ATOM     17  C   UNL     1       6.026   5.649  17.690  0.00  0.00    +0.000 A 
ATOM     18  C   UNL     1       5.731   5.506  19.062  0.00  0.00    +0.000 A 
ATOM     19  C   UNL     1       4.559   4.788  19.104  0.00  0.00    +0.000 A 
ATOM     20  O   UNL     1       4.243   4.423  17.823  0.00  0.00    +0.000 OA
ATOM     21  N   UNL     1       5.159   4.965  16.937  0.00  0.00    +0.000 NA
BRANCH  17  23
ATOM     22  C   UNL     1       7.826   7.367  18.085  0.00  0.00    +0.000 C 
ATOM     23  C   UNL     1       7.077   6.508  17.081  0.00  0.00    +0.000 C 
ENDBRANCH  17  23
ENDBRANCH   1  19
TORSDOF 3
ENDMDL
MODEL 5
REMARK VINA RESULT:      -7.6      1.700      2.334
REMARK  Name = 
REMARK  6 active torsions:
REMARK  status: ('A' for Active; 'I' for Inactive)
REMARK    1  A    between atoms: C_1  and  C_2
REMARK    2  A    between atoms: C_2  and  C_3
REMARK    3  A    between atoms: C_5  and  C_6
REMARK    4  A    between atoms: C_7  and  C_8
REMARK    5  A    between atoms: C_11  and  C_12
REMARK    6  A    between atoms: N_20  and  C_21
REMARK                            x       y       z     vdW  Elec       q    Type
REMARK                         _______ _______ _______ _____ _____    ______ ____
ROOT
ATOM      1  C   UNL     1       3.517   4.509  19.793  0.00  0.00    +0.000 C 
ATOM      2  C   UNL     1       2.122   5.128  20.120  0.00  0.00    +0.000 C 
ATOM      3  C   UNL     1       0.919   4.181  19.865  0.00  0.00    +0.000 C 
ATOM      4  C   UNL     1       1.231   2.692  20.098  0.00  0.00    +0.000 C 
ATOM      5  C   UNL     1       1.760   2.418  21.506  0.00  0.00    +0.000 C 
ATOM      6  C   UNL     1       3.286   2.524  21.370  0.00  0.00    +0.000 C 
ATOM      7  C   UNL     1       3.523   2.952  19.909  0.00  0.00    +0.000 C 
ATOM      8  N   UNL     1       2.379   2.250  19.311  0.00  0.00    +0.000 NA
ATOM      9  C   UNL     1       2.215   2.294  17.877  0.00  0.00    +0.000 C 
ENDROOT
BRANCH   2  10
ATOM     10  C   UNL     1       1.925   6.540  19.584  0.00  0.00    +0.000 A 
ATOM     11  C   UNL     1       2.086   6.850  18.221  0.00  0.00    +0.000 A 
ATOM     12  C   UNL     1       2.047   8.167  17.775  0.00  0.00    +0.000 A 
ATOM     13  C   UNL     1       1.839   9.218  18.674  0.00  0.00    +0.000 A 
ATOM     14  C   UNL     1       1.858  10.638  18.202  0.00  0.00    +0.000 C 
ATOM     15  C   UNL     1       1.617   8.918  20.021  0.00  0.00    +0.000 A 
ATOM     16  C   UNL     1       1.670   7.597  20.476  0.00  0.00    +0.000 A 
ENDBRANCH   2  10
BRANCH   1  19
ATOM     17  C   UNL     1       5.206   5.369  16.606  0.00  0.00    +0.000 A 
ATOM     18  C   UNL     1       4.067   4.772  17.185  0.00  0.00    +0.000 A 
ATOM     19  C   UNL     1       4.210   4.965  18.539  0.00  0.00    +0.000 A 
ATOM     20  O   UNL     1       5.320   5.741  18.738  0.00  0.00    +0.000 OA
ATOM     21  N   UNL     1       5.946   5.991  17.529  0.00  0.00    +0.000 NA
BRANCH  17  23
ATOM     22  C   UNL     1       6.186   3.910  14.801  0.00  0.00    +0.000 C 
ATOM     23  C   UNL     1       5.648   5.276  15.188  0.00  0.00    +0.000 C 
ENDBRANCH  17  23
ENDBRANCH   1  19
TORSDOF 3
ENDMDL
MODEL 6
REMARK VINA RESULT:      -7.5      1.969      4.526
REMARK  Name = 
REMARK  6 active torsions:
REMARK  status: ('A' for Active; 'I' for Inactive)
REMARK    1  A    between atoms: C_1  and  C_2
REMARK    2  A    between atoms: C_2  and  C_3
REMARK    3  A    between atoms: C_5  and  C_6
REMARK    4  A    between atoms: C_7  and  C_8
REMARK    5  A    between atoms: C_11  and  C_12
REMARK    6  A    between atoms: N_20  and  C_21
REMARK                            x       y       z     vdW  Elec       q    Type
REMARK                         _______ _______ _______ _____ _____    ______ ____
ROOT
ATOM      1  C   UNL     1       2.983   4.573  18.085  0.00  0.00    +0.000 C 
ATOM      2  C   UNL     1       4.454   4.063  18.207  0.00  0.00    +0.000 C 
ATOM      3  C   UNL     1       4.711   3.112  19.406  0.00  0.00    +0.000 C 
ATOM      4  C   UNL     1       3.504   2.235  19.784  0.00  0.00    +0.000 C 
ATOM      5  C   UNL     1       3.004   1.392  18.610  0.00  0.00    +0.000 C 
ATOM      6  C   UNL     1       1.926   2.261  17.945  0.00  0.00    +0.000 C 
ATOM      7  C   UNL     1       1.954   3.590  18.726  0.00  0.00    +0.000 C 
ATOM      8  N   UNL     1       2.311   3.037  20.039  0.00  0.00    +0.000 NA
ATOM      9  C   UNL     1       2.385   3.934  21.168  0.00  0.00    +0.000 C 
ENDROOT
BRANCH   2  10
ATOM     10  C   UNL     1       5.507   5.149  18.038  0.00  0.00    +0.000 A 
ATOM     11  C   UNL     1       6.547   5.332  18.968  0.00  0.00    +0.000 A 
ATOM     12  C   UNL     1       7.411   6.417  18.876  0.00  0.00    +0.000 A 
ATOM     13  C   UNL     1       7.270   7.354  17.846  0.00  0.00    +0.000 A 
ATOM     14  C   UNL     1       8.161   8.555  17.783  0.00  0.00    +0.000 C 
ATOM     15  C   UNL     1       6.280   7.151  16.881  0.00  0.00    +0.000 A 
ATOM     16  C   UNL     1       5.400   6.068  16.979  0.00  0.00    +0.000 A 
ENDBRANCH   2  10
BRANCH   1  19
ATOM     17  C   UNL     1       2.102   7.979  19.258  0.00  0.00    +0.000 A 
ATOM     18  C   UNL     1       2.532   6.695  19.655  0.00  0.00    +0.000 A 
ATOM     19  C   UNL     1       2.700   5.995  18.484  0.00  0.00    +0.000 A 
ATOM     20  O   UNL     1       2.494   6.860  17.443  0.00  0.00    +0.000 OA
ATOM     21  N   UNL     1       2.116   8.101  17.926  0.00  0.00    +0.000 NA
BRANCH  17  23
ATOM     22  C   UNL     1       0.995   8.574  21.441  0.00  0.00    +0.000 C 
ATOM     23  C   UNL     1       1.589   9.067  20.133  0.00  0.00    +0.000 C 
ENDBRANCH  17  23
ENDBRANCH   1  19
TORSDOF 3
ENDMDL
MODEL 7
REMARK VINA RESULT:      -7.5      1.968      4.667
REMARK  Name = 
REMARK  6 active torsions:
REMARK  status: ('A' for Active; 'I' for Inactive)
REMARK    1  A    between atoms: C_1  and  C_2
REMARK    2  A    between atoms: C_2  and  C_3
REMARK    3  A    between atoms: C_5  and  C_6
REMARK    4  A    between atoms: C_7  and  C_8
REMARK    5  A    between atoms: C_11  and  C_12
REMARK    6  A    between atoms: N_20  and  C_21
REMARK                            x       y       z     vdW  Elec       q    Type
REMARK                         _______ _______ _______ _____ _____    ______ ____
ROOT
ATOM      1  C   UNL     1       3.636   5.179  17.029  0.00  0.00    +0.000 C 
ATOM      2  C   UNL     1       4.024   6.654  17.364  0.00  0.00    +0.000 C 
ATOM      3  C   UNL     1       5.446   6.828  17.962  0.00  0.00    +0.000 C 
ATOM      4  C   UNL     1       6.474   5.804  17.448  0.00  0.00    +0.000 C 
ATOM      5  C   UNL     1       6.598   5.812  15.924  0.00  0.00    +0.000 C 
ATOM      6  C   UNL     1       5.588   4.756  15.451  0.00  0.00    +0.000 C 
ATOM      7  C   UNL     1       4.881   4.283  16.736  0.00  0.00    +0.000 C 
ATOM      8  N   UNL     1       6.019   4.431  17.652  0.00  0.00    +0.000 NA
ATOM      9  C   UNL     1       5.857   4.019  19.027  0.00  0.00    +0.000 C 
ENDROOT
BRANCH   2  10
ATOM     10  C   UNL     1       2.942   7.433  18.097  0.00  0.00    +0.000 A 
ATOM     11  C   UNL     1       2.238   8.487  17.486  0.00  0.00    +0.000 A 
ATOM     12  C   UNL     1       1.359   9.281  18.215  0.00  0.00    +0.000 A 
ATOM     13  C   UNL     1       1.147   9.045  19.577  0.00  0.00    +0.000 A 
ATOM     14  C   UNL     1       0.249   9.937  20.374  0.00  0.00    +0.000 C 
ATOM     15  C   UNL     1       1.794   7.963  20.181  0.00  0.00    +0.000 A 
ATOM     16  C   UNL     1       2.689   7.172  19.455  0.00  0.00    +0.000 A 
ENDBRANCH   2  10
BRANCH   1  19
ATOM     17  C   UNL     1       1.469   3.320  19.396  0.00  0.00    +0.000 A 
ATOM     18  C   UNL     1       2.631   4.109  19.270  0.00  0.00    +0.000 A 
ATOM     19  C   UNL     1       2.668   4.484  17.948  0.00  0.00    +0.000 A 
ATOM     20  O   UNL     1       1.521   4.036  17.351  0.00  0.00    +0.000 OA
ATOM     21  N   UNL     1       0.771   3.305  18.256  0.00  0.00    +0.000 NA
BRANCH  17  23
ATOM     22  C   UNL     1       1.862   2.789  21.827  0.00  0.00    +0.000 C 
ATOM     23  C   UNL     1       1.059   2.503  20.570  0.00  0.00    +0.000 C 
ENDBRANCH  17  23
ENDBRANCH   1  19
TORSDOF 3
ENDMDL
MODEL 8
REMARK VINA RESULT:      -7.4      1.763      4.507
REMARK  Name = 
REMARK  6 active torsions:
REMARK  status: ('A' for Active; 'I' for Inactive)
REMARK    1  A    between atoms: C_1  and  C_2
REMARK    2  A    between atoms: C_2  and  C_3
REMARK    3  A    between atoms: C_5  and  C_6
REMARK    4  A    between atoms: C_7  and  C_8
REMARK    5  A    between atoms: C_11  and  C_12
REMARK    6  A    between atoms: N_20  and  C_21
REMARK                            x       y       z     vdW  Elec       q    Type
REMARK                         _______ _______ _______ _____ _____    ______ ____
ROOT
ATOM      1  C   UNL     1       3.094   4.545  17.930  0.00  0.00    +0.000 C 
ATOM      2  C   UNL     1       4.592   4.212  18.218  0.00  0.00    +0.000 C 
ATOM      3  C   UNL     1       4.824   3.296  19.450  0.00  0.00    +0.000 C 
ATOM      4  C   UNL     1       3.694   2.283  19.703  0.00  0.00    +0.000 C 
ATOM      5  C   UNL     1       3.430   1.388  18.491  0.00  0.00    +0.000 C 
ATOM      6  C   UNL     1       2.338   2.125  17.701  0.00  0.00    +0.000 C 
ATOM      7  C   UNL     1       2.122   3.446  18.464  0.00  0.00    +0.000 C 
ATOM      8  N   UNL     1       2.394   2.938  19.815  0.00  0.00    +0.000 NA
ATOM      9  C   UNL     1       2.237   3.836  20.935  0.00  0.00    +0.000 C 
ENDROOT
BRANCH   2  10
ATOM     10  C   UNL     1       5.522   5.416  18.153  0.00  0.00    +0.000 A 
ATOM     11  C   UNL     1       5.347   6.443  17.208  0.00  0.00    +0.000 A 
ATOM     12  C   UNL     1       6.289   7.457  17.068  0.00  0.00    +0.000 A 
ATOM     13  C   UNL     1       7.433   7.484  17.872  0.00  0.00    +0.000 A 
ATOM     14  C   UNL     1       8.476   8.540  17.679  0.00  0.00    +0.000 C 
ATOM     15  C   UNL     1       7.587   6.502  18.856  0.00  0.00    +0.000 A 
ATOM     16  C   UNL     1       6.651   5.473  18.990  0.00  0.00    +0.000 A 
ENDBRANCH   2  10
BRANCH   1  19
ATOM     17  C   UNL     1       2.029   8.040  18.565  0.00  0.00    +0.000 A 
ATOM     18  C   UNL     1       2.103   7.011  17.602  0.00  0.00    +0.000 A 
ATOM     19  C   UNL     1       2.603   5.923  18.277  0.00  0.00    +0.000 A 
ATOM     20  O   UNL     1       2.708   6.261  19.600  0.00  0.00    +0.000 OA
ATOM     21  N   UNL     1       2.352   7.586  19.780  0.00  0.00    +0.000 NA
BRANCH  17  23
ATOM     22  C   UNL     1       0.493   9.982  19.028  0.00  0.00    +0.000 C 
ATOM     23  C   UNL     1       1.740   9.479  18.322  0.00  0.00    +0.000 C 
ENDBRANCH  17  23
ENDBRANCH   1  19
TORSDOF 3
ENDMDL
MODEL 9
REMARK VINA RESULT:      -7.3      1.739      4.332
REMARK  Name = 
REMARK  6 active torsions:
REMARK  status: ('A' for Active; 'I' for Inactive)
REMARK    1  A    between atoms: C_1  and  C_2
REMARK    2  A    between atoms: C_2  and  C_3
REMARK    3  A    between atoms: C_5  and  C_6
REMARK    4  A    between atoms: C_7  and  C_8
REMARK    5  A    between atoms: C_11  and  C_12
REMARK    6  A    between atoms: N_20  and  C_21
REMARK                            x       y       z     vdW  Elec       q    Type
REMARK                         _______ _______ _______ _____ _____    ______ ____
ROOT
ATOM      1  C   UNL     1       3.087   4.430  17.899  0.00  0.00    +0.000 C 
ATOM      2  C   UNL     1       4.567   4.004  18.156  0.00  0.00    +0.000 C 
ATOM      3  C   UNL     1       4.781   3.152  19.436  0.00  0.00    +0.000 C 
ATOM      4  C   UNL     1       3.591   2.244  19.793  0.00  0.00    +0.000 C 
ATOM      5  C   UNL     1       3.214   1.298  18.652  0.00  0.00    +0.000 C 
ATOM      6  C   UNL     1       2.149   2.064  17.854  0.00  0.00    +0.000 C 
ATOM      7  C   UNL     1       2.060   3.443  18.538  0.00  0.00    +0.000 C 
ATOM      8  N   UNL     1       2.348   3.001  19.908  0.00  0.00    +0.000 NA
ATOM      9  C   UNL     1       2.301   3.977  20.972  0.00  0.00    +0.000 C 
ENDROOT
BRANCH   2  10
ATOM     10  C   UNL     1       5.580   5.128  17.981  0.00  0.00    +0.000 A 
ATOM     11  C   UNL     1       6.641   5.323  18.883  0.00  0.00    +0.000 A 
ATOM     12  C   UNL     1       7.467   6.438  18.790  0.00  0.00    +0.000 A 
ATOM     13  C   UNL     1       7.265   7.393  17.788  0.00  0.00    +0.000 A 
ATOM     14  C   UNL     1       8.114   8.623  17.726  0.00  0.00    +0.000 C 
ATOM     15  C   UNL     1       6.252   7.179  16.849  0.00  0.00    +0.000 A 
ATOM     16  C   UNL     1       5.411   6.067  16.948  0.00  0.00    +0.000 A 
ENDBRANCH   2  10
BRANCH   1  19
ATOM     17  C   UNL     1       2.306   8.028  18.342  0.00  0.00    +0.000 A 
ATOM     18  C   UNL     1       2.265   6.938  17.446  0.00  0.00    +0.000 A 
ATOM     19  C   UNL     1       2.713   5.860  18.173  0.00  0.00    +0.000 A 
ATOM     20  O   UNL     1       2.895   6.271  19.466  0.00  0.00    +0.000 OA
ATOM     21  N   UNL     1       2.644   7.628  19.572  0.00  0.00    +0.000 NA
BRANCH  17  23
ATOM     22  C   UNL     1       0.785  10.030  18.491  0.00  0.00    +0.000 C 
ATOM     23  C   UNL     1       2.113   9.467  18.016  0.00  0.00    +0.000 C 
ENDBRANCH  17  23
ENDBRANCH   1  19
TORSDOF 3
ENDMDL
