MODEL 1
REMARK VINA RESULT:      -7.6      0.000      0.000
REMARK  Name = 
REMARK  14 active torsions:
REMARK  status: ('A' for Active; 'I' for Inactive)
REMARK    1  A    between atoms: C_1  and  C_2
REMARK    2  A    between atoms: C_4  and  C_5
REMARK    3  A    between atoms: C_5  and  N_6
REMARK    4  A    between atoms: N_6  and  C_7
REMARK    5  A    between atoms: C_7  and  C_8
REMARK    6  A    between atoms: C_8  and  N_9
REMARK    7  A    between atoms: N_9  and  C_10
REMARK    8  A    between atoms: N_9  and  C_11
REMARK    9  A    between atoms: C_12  and  C_13
REMARK   10  A    between atoms: C_13  and  C_14
REMARK   11  A    between atoms: C_13  and  C_15
REMARK   12  A    between atoms: C_17  and  C_18
REMARK   13  A    between atoms: C_18  and  C_19
REMARK   14  A    between atoms: C_22  and  C_23
REMARK                            x       y       z     vdW  Elec       q    Type
REMARK                         _______ _______ _______ _____ _____    ______ ____
ROOT
ATOM      1  C   UNL     1       2.653   6.257  20.332  0.00  0.00    +0.000 C 
ATOM      2  C   UNL     1       3.515   6.021  19.117  0.00  0.00    +0.000 C 
ATOM      3  C   UNL     1       4.208   4.874  18.989  0.00  0.00    +0.000 C 
ATOM      4  C   UNL     1       5.212   4.601  17.894  0.00  0.00    +0.000 C 
ATOM      5  C   UNL     1       5.765   5.932  17.296  0.00  0.00    +0.000 C 
ATOM      6  C   UNL     1       4.568   6.825  16.919  0.00  0.00    +0.000 C 
ATOM      7  C   UNL     1       3.632   7.165  18.108  0.00  0.00    +0.000 C 
ENDROOT
BRANCH   5   8
ATOM      8  C   UNL     1       6.800   6.650  18.226  0.00  0.00    +0.000 C 
ATOM      9  C   UNL     1       7.608   7.712  17.467  0.00  0.00    +0.000 C 
ATOM     10  C   UNL     1       7.796   5.659  18.849  0.00  0.00    +0.000 C 
ENDBRANCH   5   8
BRANCH   4  11
ATOM     11  C   UNL     1       4.588   3.659  16.835  0.00  0.00    +0.000 C 
BRANCH  11  12
ATOM     12  N   UNL     1       4.305   2.333  17.400  0.00  0.00    +0.000 NA
ATOM     13  H   UNL     1       4.822   2.214  18.271  0.00  0.00    +0.000 HD
BRANCH  12  14
ATOM     14  C   UNL     1       2.871   2.160  17.654  0.00  0.00    +0.000 C 
BRANCH  14  15
ATOM     15  C   UNL     1       2.627   1.584  19.067  0.00  0.00    +0.000 C 
BRANCH  15  16
ATOM     16  N   UNL     1       1.449   2.153  19.754  0.00  0.00    +0.000 NA
ATOM     17  C   UNL     1       1.786   2.674  21.081  0.00  0.00    +0.000 C 
ATOM     18  C   UNL     1       0.874   3.227  18.938  0.00  0.00    +0.000 C 
ENDBRANCH  15  16
ENDBRANCH  14  15
ENDBRANCH  12  14
ENDBRANCH  11  12
ENDBRANCH   4  11
BRANCH   7  19
ATOM     19  C   UNL     1       2.251   7.602  17.563  0.00  0.00    +0.000 C 
BRANCH  19  20
ATOM     20  C   UNL     1       1.794   8.875  18.169  0.00  0.00    +0.000 A 
ATOM     21  N   UNL     1       1.947  10.098  17.710  0.00  0.00    +0.000 NA
ATOM     22  N   UNL     1       1.314  10.925  18.610  0.00  0.00    +0.000 NA
ATOM     23  C   UNL     1       0.822  10.153  19.559  0.00  0.00    +0.000 A 
ATOM     24  O   UNL     1       1.095   8.823  19.349  0.00  0.00    +0.000 OA
BRANCH  23  25
ATOM     25  C   UNL     1       0.072  10.538  20.749  0.00  0.00    +0.000 A 
ATOM     26  C   UNL     1      -0.614  11.762  20.737  0.00  0.00    +0.000 A 
ATOM     27  C   UNL     1      -1.318  12.206  21.858  0.00  0.00    +0.000 A 
ATOM     28  C   UNL     1      -1.348  11.424  23.008  0.00  0.00    +0.000 A 
ATOM     29  C   UNL     1      -0.689  10.196  23.033  0.00  0.00    +0.000 A 
ATOM     30  C   UNL     1       0.018   9.751  21.907  0.00  0.00    +0.000 A 
ENDBRANCH  23  25
ENDBRANCH  19  20
ENDBRANCH   7  19
TORSDOF 9
ENDMDL
MODEL 2
REMARK VINA RESULT:      -7.5      2.555      4.850
REMARK  Name = 
REMARK  14 active torsions:
REMARK  status: ('A' for Active; 'I' for Inactive)
REMARK    1  A    between atoms: C_1  and  C_2
REMARK    2  A    between atoms: C_4  and  C_5
REMARK    3  A    between atoms: C_5  and  N_6
REMARK    4  A    between atoms: N_6  and  C_7
REMARK    5  A    between atoms: C_7  and  C_8
REMARK    6  A    between atoms: C_8  and  N_9
REMARK    7  A    between atoms: N_9  and  C_10
REMARK    8  A    between atoms: N_9  and  C_11
REMARK    9  A    between atoms: C_12  and  C_13
REMARK   10  A    between atoms: C_13  and  C_14
REMARK   11  A    between atoms: C_13  and  C_15
REMARK   12  A    between atoms: C_17  and  C_18
REMARK   13  A    between atoms: C_18  and  C_19
REMARK   14  A    between atoms: C_22  and  C_23
REMARK                            x       y       z     vdW  Elec       q    Type
REMARK                         _______ _______ _______ _____ _____    ______ ____
ROOT
ATOM      1  C   UNL     1       2.223   8.621  17.571  0.00  0.00    +0.000 C 
ATOM      2  C   UNL     1       2.578   7.429  18.423  0.00  0.00    +0.000 C 
ATOM      3  C   UNL     1       3.520   6.558  18.014  0.00  0.00    +0.000 C 
ATOM      4  C   UNL     1       3.842   5.258  18.713  0.00  0.00    +0.000 C 
ATOM      5  C   UNL     1       2.639   4.774  19.580  0.00  0.00    +0.000 C 
ATOM      6  C   UNL     1       2.193   5.943  20.480  0.00  0.00    +0.000 C 
ATOM      7  C   UNL     1       1.765   7.213  19.701  0.00  0.00    +0.000 C 
ENDROOT
BRANCH   5   8
ATOM      8  C   UNL     1       1.469   4.164  18.737  0.00  0.00    +0.000 C 
ATOM      9  C   UNL     1       0.723   3.065  19.507  0.00  0.00    +0.000 C 
ATOM     10  C   UNL     1       1.969   3.556  17.418  0.00  0.00    +0.000 C 
ENDBRANCH   5   8
BRANCH   4  11
ATOM     11  C   UNL     1       5.160   5.408  19.512  0.00  0.00    +0.000 C 
BRANCH  11  12
ATOM     12  N   UNL     1       6.097   4.319  19.208  0.00  0.00    +0.000 NA
ATOM     13  H   UNL     1       5.785   3.461  19.664  0.00  0.00    +0.000 HD
BRANCH  12  14
ATOM     14  C   UNL     1       6.199   4.095  17.762  0.00  0.00    +0.000 C 
BRANCH  14  15
ATOM     15  C   UNL     1       7.508   4.695  17.202  0.00  0.00    +0.000 C 
BRANCH  15  16
ATOM     16  N   UNL     1       7.309   5.898  16.364  0.00  0.00    +0.000 NA
ATOM     17  C   UNL     1       6.055   5.839  15.609  0.00  0.00    +0.000 C 
ATOM     18  C   UNL     1       7.315   7.094  17.211  0.00  0.00    +0.000 C 
ENDBRANCH  15  16
ENDBRANCH  14  15
ENDBRANCH  12  14
ENDBRANCH  11  12
ENDBRANCH   4  11
BRANCH   7  19
ATOM     19  C   UNL     1       1.833   8.439  20.645  0.00  0.00    +0.000 C 
BRANCH  19  20
ATOM     20  C   UNL     1       0.686   9.356  20.445  0.00  0.00    +0.000 A 
ATOM     21  N   UNL     1       0.227  10.279  21.262  0.00  0.00    +0.000 NA
ATOM     22  N   UNL     1      -0.818  10.885  20.604  0.00  0.00    +0.000 NA
ATOM     23  C   UNL     1      -0.931  10.289  19.433  0.00  0.00    +0.000 A 
ATOM     24  O   UNL     1      -0.002   9.291  19.259  0.00  0.00    +0.000 OA
BRANCH  23  25
ATOM     25  C   UNL     1      -1.889  10.551  18.365  0.00  0.00    +0.000 A 
ATOM     26  C   UNL     1      -2.925  11.466  18.609  0.00  0.00    +0.000 A 
ATOM     27  C   UNL     1      -3.897  11.732  17.643  0.00  0.00    +0.000 A 
ATOM     28  C   UNL     1      -3.840  11.085  16.413  0.00  0.00    +0.000 A 
ATOM     29  C   UNL     1      -2.809  10.187  16.144  0.00  0.00    +0.000 A 
ATOM     30  C   UNL     1      -1.833   9.921  17.116  0.00  0.00    +0.000 A 
ENDBRANCH  23  25
ENDBRANCH  19  20
ENDBRANCH   7  19
TORSDOF 9
ENDMDL
MODEL 3
REMARK VINA RESULT:      -7.5      0.234      1.115
REMARK  Name = 
REMARK  14 active torsions:
REMARK  status: ('A' for Active; 'I' for Inactive)
REMARK    1  A    between atoms: C_1  and  C_2
REMARK    2  A    between atoms: C_4  and  C_5
REMARK    3  A    between atoms: C_5  and  N_6
REMARK    4  A    between atoms: N_6  and  C_7
REMARK    5  A    between atoms: C_7  and  C_8
REMARK    6  A    between atoms: C_8  and  N_9
REMARK    7  A    between atoms: N_9  and  C_10
REMARK    8  A    between atoms: N_9  and  C_11
REMARK    9  A    between atoms: C_12  and  C_13
REMARK   10  A    between atoms: C_13  and  C_14
REMARK   11  A    between atoms: C_13  and  C_15
REMARK   12  A    between atoms: C_17  and  C_18
REMARK   13  A    between atoms: C_18  and  C_19
REMARK   14  A    between atoms: C_22  and  C_23
REMARK                            x       y       z     vdW  Elec       q    Type
REMARK                         _______ _______ _______ _____ _____    ______ ____
ROOT
ATOM      1  C   UNL     1       2.622   6.433  20.378  0.00  0.00    +0.000 C 
ATOM      2  C   UNL     1       3.471   6.145  19.166  0.00  0.00    +0.000 C 
ATOM      3  C   UNL     1       4.127   4.973  19.059  0.00  0.00    +0.000 C 
ATOM      4  C   UNL     1       5.117   4.646  17.966  0.00  0.00    +0.000 C 
ATOM      5  C   UNL     1       5.710   5.946  17.339  0.00  0.00    +0.000 C 
ATOM      6  C   UNL     1       4.540   6.869  16.948  0.00  0.00    +0.000 C 
ATOM      7  C   UNL     1       3.621   7.263  18.133  0.00  0.00    +0.000 C 
ENDROOT
BRANCH   5   8
ATOM      8  C   UNL     1       6.771   6.650  18.250  0.00  0.00    +0.000 C 
ATOM      9  C   UNL     1       7.608   7.671  17.467  0.00  0.00    +0.000 C 
ATOM     10  C   UNL     1       7.739   5.641  18.888  0.00  0.00    +0.000 C 
ENDBRANCH   5   8
BRANCH   4  11
ATOM     11  C   UNL     1       4.459   3.703  16.929  0.00  0.00    +0.000 C 
BRANCH  11  12
ATOM     12  N   UNL     1       4.319   2.340  17.458  0.00  0.00    +0.000 NA
ATOM     13  H   UNL     1       4.839   2.257  18.332  0.00  0.00    +0.000 HD
BRANCH  12  14
ATOM     14  C   UNL     1       2.911   2.004  17.693  0.00  0.00    +0.000 C 
BRANCH  14  15
ATOM     15  C   UNL     1       2.638   1.792  19.199  0.00  0.00    +0.000 C 
BRANCH  15  16
ATOM     16  N   UNL     1       1.790   2.837  19.810  0.00  0.00    +0.000 NA
ATOM     17  C   UNL     1       0.475   2.921  19.169  0.00  0.00    +0.000 C 
ATOM     18  C   UNL     1       1.621   2.561  21.240  0.00  0.00    +0.000 C 
ENDBRANCH  15  16
ENDBRANCH  14  15
ENDBRANCH  12  14
ENDBRANCH  11  12
ENDBRANCH   4  11
BRANCH   7  19
ATOM     19  C   UNL     1       2.252   7.733  17.584  0.00  0.00    +0.000 C 
BRANCH  19  20
ATOM     20  C   UNL     1       1.830   9.023  18.179  0.00  0.00    +0.000 A 
ATOM     21  N   UNL     1       2.061  10.240  17.736  0.00  0.00    +0.000 NA
ATOM     22  N   UNL     1       1.429  11.092  18.613  0.00  0.00    +0.000 NA
ATOM     23  C   UNL     1       0.859  10.339  19.534  0.00  0.00    +0.000 A 
ATOM     24  O   UNL     1       1.078   8.998  19.326  0.00  0.00    +0.000 OA
BRANCH  23  25
ATOM     25  C   UNL     1       0.076  10.753  20.693  0.00  0.00    +0.000 A 
ATOM     26  C   UNL     1       0.133   9.963  21.852  0.00  0.00    +0.000 A 
ATOM     27  C   UNL     1      -0.623  10.282  22.981  0.00  0.00    +0.000 A 
ATOM     28  C   UNL     1      -1.445  11.405  22.965  0.00  0.00    +0.000 A 
ATOM     29  C   UNL     1      -1.501  12.212  21.831  0.00  0.00    +0.000 A 
ATOM     30  C   UNL     1      -0.741  11.890  20.696  0.00  0.00    +0.000 A 
ENDBRANCH  23  25
ENDBRANCH  19  20
ENDBRANCH   7  19
TORSDOF 9
ENDMDL
MODEL 4
REMARK VINA RESULT:      -7.3      3.507      8.878
REMARK  Name = 
REMARK  14 active torsions:
REMARK  status: ('A' for Active; 'I' for Inactive)
REMARK    1  A    between atoms: C_1  and  C_2
REMARK    2  A    between atoms: C_4  and  C_5
REMARK    3  A    between atoms: C_5  and  N_6
REMARK    4  A    between atoms: N_6  and  C_7
REMARK    5  A    between atoms: C_7  and  C_8
REMARK    6  A    between atoms: C_8  and  N_9
REMARK    7  A    between atoms: N_9  and  C_10
REMARK    8  A    between atoms: N_9  and  C_11
REMARK    9  A    between atoms: C_12  and  C_13
REMARK   10  A    between atoms: C_13  and  C_14
REMARK   11  A    between atoms: C_13  and  C_15
REMARK   12  A    between atoms: C_17  and  C_18
REMARK   13  A    between atoms: C_18  and  C_19
REMARK   14  A    between atoms: C_22  and  C_23
REMARK                            x       y       z     vdW  Elec       q    Type
REMARK                         _______ _______ _______ _____ _____    ______ ____
ROOT
ATOM      1  C   UNL     1       6.241   5.365  19.198  0.00  0.00    +0.000 C 
ATOM      2  C   UNL     1       4.759   5.480  18.946  0.00  0.00    +0.000 C 
ATOM      3  C   UNL     1       3.903   5.609  19.977  0.00  0.00    +0.000 C 
ATOM      4  C   UNL     1       2.398   5.580  19.846  0.00  0.00    +0.000 C 
ATOM      5  C   UNL     1       1.962   4.843  18.542  0.00  0.00    +0.000 C 
ATOM      6  C   UNL     1       2.741   5.453  17.361  0.00  0.00    +0.000 C 
ATOM      7  C   UNL     1       4.282   5.352  17.498  0.00  0.00    +0.000 C 
ENDROOT
BRANCH   5   8
ATOM      8  C   UNL     1       2.100   3.285  18.632  0.00  0.00    +0.000 C 
ATOM      9  C   UNL     1       2.565   2.676  17.302  0.00  0.00    +0.000 C 
ATOM     10  C   UNL     1       0.773   2.614  19.017  0.00  0.00    +0.000 C 
ENDBRANCH   5   8
BRANCH   4  11
ATOM     11  C   UNL     1       1.837   7.019  19.960  0.00  0.00    +0.000 C 
BRANCH  11  12
ATOM     12  N   UNL     1       1.740   7.446  21.362  0.00  0.00    +0.000 NA
ATOM     13  H   UNL     1       2.675   7.611  21.735  0.00  0.00    +0.000 HD
BRANCH  12  14
ATOM     14  C   UNL     1       0.939   8.668  21.491  0.00  0.00    +0.000 C 
BRANCH  14  15
ATOM     15  C   UNL     1       0.814   9.391  20.131  0.00  0.00    +0.000 C 
BRANCH  15  16
ATOM     16  N   UNL     1      -0.035  10.601  20.168  0.00  0.00    +0.000 NA
ATOM     17  C   UNL     1       0.519  11.633  21.049  0.00  0.00    +0.000 C 
ATOM     18  C   UNL     1      -0.182  11.141  18.814  0.00  0.00    +0.000 C 
ENDBRANCH  15  16
ENDBRANCH  14  15
ENDBRANCH  12  14
ENDBRANCH  11  12
ENDBRANCH   4  11
BRANCH   7  19
ATOM     19  C   UNL     1       4.948   6.399  16.573  0.00  0.00    +0.000 C 
BRANCH  19  20
ATOM     20  C   UNL     1       5.875   5.770  15.602  0.00  0.00    +0.000 A 
ATOM     21  N   UNL     1       7.184   5.877  15.537  0.00  0.00    +0.000 NA
ATOM     22  N   UNL     1       7.581   5.075  14.492  0.00  0.00    +0.000 NA
ATOM     23  C   UNL     1       6.488   4.536  13.987  0.00  0.00    +0.000 A 
ATOM     24  O   UNL     1       5.351   4.939  14.644  0.00  0.00    +0.000 OA
BRANCH  23  25
ATOM     25  C   UNL     1       6.362   3.617  12.861  0.00  0.00    +0.000 A 
ATOM     26  C   UNL     1       5.073   3.249  12.443  0.00  0.00    +0.000 A 
ATOM     27  C   UNL     1       4.884   2.344  11.397  0.00  0.00    +0.000 A 
ATOM     28  C   UNL     1       5.989   1.798  10.750  0.00  0.00    +0.000 A 
ATOM     29  C   UNL     1       7.276   2.165  11.139  0.00  0.00    +0.000 A 
ATOM     30  C   UNL     1       7.465   3.074  12.190  0.00  0.00    +0.000 A 
ENDBRANCH  23  25
ENDBRANCH  19  20
ENDBRANCH   7  19
TORSDOF 9
ENDMDL
MODEL 5
REMARK VINA RESULT:      -7.3      2.534      4.813
REMARK  Name = 
REMARK  14 active torsions:
REMARK  status: ('A' for Active; 'I' for Inactive)
REMARK    1  A    between atoms: C_1  and  C_2
REMARK    2  A    between atoms: C_4  and  C_5
REMARK    3  A    between atoms: C_5  and  N_6
REMARK    4  A    between atoms: N_6  and  C_7
REMARK    5  A    between atoms: C_7  and  C_8
REMARK    6  A    between atoms: C_8  and  N_9
REMARK    7  A    between atoms: N_9  and  C_10
REMARK    8  A    between atoms: N_9  and  C_11
REMARK    9  A    between atoms: C_12  and  C_13
REMARK   10  A    between atoms: C_13  and  C_14
REMARK   11  A    between atoms: C_13  and  C_15
REMARK   12  A    between atoms: C_17  and  C_18
REMARK   13  A    between atoms: C_18  and  C_19
REMARK   14  A    between atoms: C_22  and  C_23
REMARK                            x       y       z     vdW  Elec       q    Type
REMARK                         _______ _______ _______ _____ _____    ______ ____
ROOT
ATOM      1  C   UNL     1       2.070   8.820  17.701  0.00  0.00    +0.000 C 
ATOM      2  C   UNL     1       2.476   7.594  18.480  0.00  0.00    +0.000 C 
ATOM      3  C   UNL     1       3.451   6.788  18.017  0.00  0.00    +0.000 C 
ATOM      4  C   UNL     1       3.828   5.462  18.637  0.00  0.00    +0.000 C 
ATOM      5  C   UNL     1       2.649   4.879  19.475  0.00  0.00    +0.000 C 
ATOM      6  C   UNL     1       2.160   5.973  20.444  0.00  0.00    +0.000 C 
ATOM      7  C   UNL     1       1.678   7.269  19.744  0.00  0.00    +0.000 C 
ENDROOT
BRANCH   5   8
ATOM      8  C   UNL     1       1.501   4.274  18.599  0.00  0.00    +0.000 C 
ATOM      9  C   UNL     1       0.693   3.218  19.366  0.00  0.00    +0.000 C 
ATOM     10  C   UNL     1       2.043   3.613  17.321  0.00  0.00    +0.000 C 
ENDBRANCH   5   8
BRANCH   4  11
ATOM     11  C   UNL     1       5.143   5.617  19.441  0.00  0.00    +0.000 C 
BRANCH  11  12
ATOM     12  N   UNL     1       6.132   4.606  19.049  0.00  0.00    +0.000 NA
ATOM     13  H   UNL     1       5.909   3.717  19.496  0.00  0.00    +0.000 HD
BRANCH  12  14
ATOM     14  C   UNL     1       6.162   4.428  17.594  0.00  0.00    +0.000 C 
BRANCH  14  15
ATOM     15  C   UNL     1       7.127   5.439  16.935  0.00  0.00    +0.000 C 
BRANCH  15  16
ATOM     16  N   UNL     1       6.798   5.756  15.528  0.00  0.00    +0.000 NA
ATOM     17  C   UNL     1       7.153   4.660  14.622  0.00  0.00    +0.000 C 
ATOM     18  C   UNL     1       5.366   6.045  15.410  0.00  0.00    +0.000 C 
ENDBRANCH  15  16
ENDBRANCH  14  15
ENDBRANCH  12  14
ENDBRANCH  11  12
ENDBRANCH   4  11
BRANCH   7  19
ATOM     19  C   UNL     1       1.700   8.438  20.759  0.00  0.00    +0.000 C 
BRANCH  19  20
ATOM     20  C   UNL     1       0.844   9.567  20.323  0.00  0.00    +0.000 A 
ATOM     21  N   UNL     1       0.992  10.848  20.580  0.00  0.00    +0.000 NA
ATOM     22  N   UNL     1      -0.031  11.489  19.920  0.00  0.00    +0.000 NA
ATOM     23  C   UNL     1      -0.736  10.557  19.309  0.00  0.00    +0.000 A 
ATOM     24  O   UNL     1      -0.239   9.295  19.526  0.00  0.00    +0.000 OA
BRANCH  23  25
ATOM     25  C   UNL     1      -1.929  10.710  18.483  0.00  0.00    +0.000 A 
ATOM     26  C   UNL     1      -2.015   9.970  17.293  0.00  0.00    +0.000 A 
ATOM     27  C   UNL     1      -3.112  10.101  16.439  0.00  0.00    +0.000 A 
ATOM     28  C   UNL     1      -4.143  10.975  16.771  0.00  0.00    +0.000 A 
ATOM     29  C   UNL     1      -4.084  11.704  17.957  0.00  0.00    +0.000 A 
ATOM     30  C   UNL     1      -2.982  11.572  18.814  0.00  0.00    +0.000 A 
ENDBRANCH  23  25
ENDBRANCH  19  20
ENDBRANCH   7  19
TORSDOF 9
ENDMDL
MODEL 6
REMARK VINA RESULT:      -7.1      2.416      3.819
REMARK  Name = 
REMARK  14 active torsions:
REMARK  status: ('A' for Active; 'I' for Inactive)
REMARK    1  A    between atoms: C_1  and  C_2
REMARK    2  A    between atoms: C_4  and  C_5
REMARK    3  A    between atoms: C_5  and  N_6
REMARK    4  A    between atoms: N_6  and  C_7
REMARK    5  A    between atoms: C_7  and  C_8
REMARK    6  A    between atoms: C_8  and  N_9
REMARK    7  A    between atoms: N_9  and  C_10
REMARK    8  A    between atoms: N_9  and  C_11
REMARK    9  A    between atoms: C_12  and  C_13
REMARK   10  A    between atoms: C_13  and  C_14
REMARK   11  A    between atoms: C_13  and  C_15
REMARK   12  A    between atoms: C_17  and  C_18
REMARK   13  A    between atoms: C_18  and  C_19
REMARK   14  A    between atoms: C_22  and  C_23
REMARK                            x       y       z     vdW  Elec       q    Type
REMARK                         _______ _______ _______ _____ _____    ______ ____
ROOT
ATOM      1  C   UNL     1       2.994   4.983  19.936  0.00  0.00    +0.000 C 
ATOM      2  C   UNL     1       3.809   5.298  18.707  0.00  0.00    +0.000 C 
ATOM      3  C   UNL     1       4.653   4.380  18.199  0.00  0.00    +0.000 C 
ATOM      4  C   UNL     1       5.621   4.644  17.069  0.00  0.00    +0.000 C 
ATOM      5  C   UNL     1       5.938   6.167  16.946  0.00  0.00    +0.000 C 
ATOM      6  C   UNL     1       4.604   6.934  16.897  0.00  0.00    +0.000 C 
ATOM      7  C   UNL     1       3.700   6.713  18.137  0.00  0.00    +0.000 C 
ENDROOT
BRANCH   5   8
ATOM      8  C   UNL     1       6.911   6.691  18.056  0.00  0.00    +0.000 C 
ATOM      9  C   UNL     1       7.779   7.852  17.552  0.00  0.00    +0.000 C 
ATOM     10  C   UNL     1       7.851   5.587  18.563  0.00  0.00    +0.000 C 
ENDBRANCH   5   8
BRANCH   4  11
ATOM     11  C   UNL     1       5.079   4.017  15.760  0.00  0.00    +0.000 C 
BRANCH  11  12
ATOM     12  N   UNL     1       6.171   3.515  14.916  0.00  0.00    +0.000 NA
ATOM     13  H   UNL     1       5.925   2.595  14.550  0.00  0.00    +0.000 HD
BRANCH  12  14
ATOM     14  C   UNL     1       6.443   4.428  13.801  0.00  0.00    +0.000 C 
BRANCH  14  15
ATOM     15  C   UNL     1       6.592   3.650  12.475  0.00  0.00    +0.000 C 
BRANCH  15  16
ATOM     16  N   UNL     1       5.486   2.706  12.203  0.00  0.00    +0.000 NA
ATOM     17  C   UNL     1       4.358   3.360  11.534  0.00  0.00    +0.000 C 
ATOM     18  C   UNL     1       5.973   1.601  11.373  0.00  0.00    +0.000 C 
ENDBRANCH  15  16
ENDBRANCH  14  15
ENDBRANCH  12  14
ENDBRANCH  11  12
ENDBRANCH   4  11
BRANCH   7  19
ATOM     19  C   UNL     1       2.240   7.084  17.780  0.00  0.00    +0.000 C 
BRANCH  19  20
ATOM     20  C   UNL     1       1.969   8.527  17.983  0.00  0.00    +0.000 A 
ATOM     21  N   UNL     1       2.703   9.554  17.614  0.00  0.00    +0.000 NA
ATOM     22  N   UNL     1       2.004  10.677  17.994  0.00  0.00    +0.000 NA
ATOM     23  C   UNL     1       0.894  10.261  18.571  0.00  0.00    +0.000 A 
ATOM     24  O   UNL     1       0.803   8.890  18.607  0.00  0.00    +0.000 OA
BRANCH  23  25
ATOM     25  C   UNL     1      -0.182  11.053  19.155  0.00  0.00    +0.000 A 
ATOM     26  C   UNL     1      -1.442  11.022  18.538  0.00  0.00    +0.000 A 
ATOM     27  C   UNL     1      -2.504  11.788  19.024  0.00  0.00    +0.000 A 
ATOM     28  C   UNL     1      -2.316  12.594  20.143  0.00  0.00    +0.000 A 
ATOM     29  C   UNL     1      -1.078  12.624  20.781  0.00  0.00    +0.000 A 
ATOM     30  C   UNL     1      -0.012  11.854  20.291  0.00  0.00    +0.000 A 
ENDBRANCH  23  25
ENDBRANCH  19  20
ENDBRANCH   7  19
TORSDOF 9
ENDMDL
MODEL 7
REMARK VINA RESULT:      -7.0      3.196      9.370
REMARK  Name = 
REMARK  14 active torsions:
REMARK  status: ('A' for Active; 'I' for Inactive)
REMARK    1  A    between atoms: C_1  and  C_2
REMARK    2  A    between atoms: C_4  and  C_5
REMARK    3  A    between atoms: C_5  and  N_6
REMARK    4  A    between atoms: N_6  and  C_7
REMARK    5  A    between atoms: C_7  and  C_8
REMARK    6  A    between atoms: C_8  and  N_9
REMARK    7  A    between atoms: N_9  and  C_10
REMARK    8  A    between atoms: N_9  and  C_11
REMARK    9  A    between atoms: C_12  and  C_13
REMARK   10  A    between atoms: C_13  and  C_14
REMARK   11  A    between atoms: C_13  and  C_15
REMARK   12  A    between atoms: C_17  and  C_18
REMARK   13  A    between atoms: C_18  and  C_19
REMARK   14  A    between atoms: C_22  and  C_23
REMARK                            x       y       z     vdW  Elec       q    Type
REMARK                         _______ _______ _______ _____ _____    ______ ____
ROOT
ATOM      1  C   UNL     1       2.085  12.589  18.354  0.00  0.00    +0.000 C 
ATOM      2  C   UNL     1       0.844  11.940  18.912  0.00  0.00    +0.000 C 
ATOM      3  C   UNL     1      -0.246  12.682  19.184  0.00  0.00    +0.000 C 
ATOM      4  C   UNL     1      -1.481  12.161  19.881  0.00  0.00    +0.000 C 
ATOM      5  C   UNL     1      -1.154  10.893  20.730  0.00  0.00    +0.000 C 
ATOM      6  C   UNL     1      -0.403   9.893  19.830  0.00  0.00    +0.000 C 
ATOM      7  C   UNL     1       0.917  10.446  19.233  0.00  0.00    +0.000 C 
ENDROOT
BRANCH   5   8
ATOM      8  C   UNL     1      -0.396  11.213  22.062  0.00  0.00    +0.000 C 
ATOM      9  C   UNL     1      -0.087   9.941  22.863  0.00  0.00    +0.000 C 
ATOM     10  C   UNL     1      -1.203  12.155  22.969  0.00  0.00    +0.000 C 
ENDBRANCH   5   8
BRANCH   4  11
ATOM     11  C   UNL     1      -2.611  11.938  18.846  0.00  0.00    +0.000 C 
BRANCH  11  12
ATOM     12  N   UNL     1      -3.786  12.764  19.150  0.00  0.00    +0.000 NA
ATOM     13  H   UNL     1      -4.021  13.337  18.340  0.00  0.00    +0.000 HD
BRANCH  12  14
ATOM     14  C   UNL     1      -4.939  11.933  19.513  0.00  0.00    +0.000 C 
BRANCH  14  15
ATOM     15  C   UNL     1      -5.519  12.362  20.880  0.00  0.00    +0.000 C 
BRANCH  15  16
ATOM     16  N   UNL     1      -6.747  11.634  21.268  0.00  0.00    +0.000 NA
ATOM     17  C   UNL     1      -7.835  12.547  21.629  0.00  0.00    +0.000 C 
ATOM     18  C   UNL     1      -7.178  10.772  20.164  0.00  0.00    +0.000 C 
ENDBRANCH  15  16
ENDBRANCH  14  15
ENDBRANCH  12  14
ENDBRANCH  11  12
ENDBRANCH   4  11
BRANCH   7  19
ATOM     19  C   UNL     1       1.310   9.605  17.994  0.00  0.00    +0.000 C 
BRANCH  19  20
ATOM     20  C   UNL     1       2.151   8.441  18.359  0.00  0.00    +0.000 A 
ATOM     21  N   UNL     1       2.108   7.714  19.454  0.00  0.00    +0.000 NA
ATOM     22  N   UNL     1       3.058   6.731  19.298  0.00  0.00    +0.000 NA
ATOM     23  C   UNL     1       3.620   6.926  18.121  0.00  0.00    +0.000 A 
ATOM     24  O   UNL     1       3.094   8.010  17.460  0.00  0.00    +0.000 OA
BRANCH  23  25
ATOM     25  C   UNL     1       4.689   6.165  17.484  0.00  0.00    +0.000 A 
ATOM     26  C   UNL     1       5.422   5.262  18.270  0.00  0.00    +0.000 A 
ATOM     27  C   UNL     1       6.483   4.532  17.730  0.00  0.00    +0.000 A 
ATOM     28  C   UNL     1       6.822   4.695  16.391  0.00  0.00    +0.000 A 
ATOM     29  C   UNL     1       6.094   5.573  15.590  0.00  0.00    +0.000 A 
ATOM     30  C   UNL     1       5.028   6.306  16.133  0.00  0.00    +0.000 A 
ENDBRANCH  23  25
ENDBRANCH  19  20
ENDBRANCH   7  19
TORSDOF 9
ENDMDL
MODEL 8
REMARK VINA RESULT:      -7.0      3.333      9.274
REMARK  Name = 
REMARK  14 active torsions:
REMARK  status: ('A' for Active; 'I' for Inactive)
REMARK    1  A    between atoms: C_1  and  C_2
REMARK    2  A    between atoms: C_4  and  C_5
REMARK    3  A    between atoms: C_5  and  N_6
REMARK    4  A    between atoms: N_6  and  C_7
REMARK    5  A    between atoms: C_7  and  C_8
REMARK    6  A    between atoms: C_8  and  N_9
REMARK    7  A    between atoms: N_9  and  C_10
REMARK    8  A    between atoms: N_9  and  C_11
REMARK    9  A    between atoms: C_12  and  C_13
REMARK   10  A    between atoms: C_13  and  C_14
REMARK   11  A    between atoms: C_13  and  C_15
REMARK   12  A    between atoms: C_17  and  C_18
REMARK   13  A    between atoms: C_18  and  C_19
REMARK   14  A    between atoms: C_22  and  C_23
REMARK                            x       y       z     vdW  Elec       q    Type
REMARK                         _______ _______ _______ _____ _____    ______ ____
ROOT
ATOM      1  C   UNL     1       2.487  12.328  18.303  0.00  0.00    +0.000 C 
ATOM      2  C   UNL     1       1.145  11.824  18.770  0.00  0.00    +0.000 C 
ATOM      3  C   UNL     1       0.134  12.688  18.987  0.00  0.00    +0.000 C 
ATOM      4  C   UNL     1      -1.196  12.308  19.596  0.00  0.00    +0.000 C 
ATOM      5  C   UNL     1      -1.075  11.001  20.439  0.00  0.00    +0.000 C 
ATOM      6  C   UNL     1      -0.389   9.930  19.570  0.00  0.00    +0.000 C 
ATOM      7  C   UNL     1       1.021  10.329  19.066  0.00  0.00    +0.000 C 
ENDROOT
BRANCH   5   8
ATOM      8  C   UNL     1      -0.371  11.215  21.822  0.00  0.00    +0.000 C 
ATOM      9  C   UNL     1      -0.388   9.938  22.674  0.00  0.00    +0.000 C 
ATOM     10  C   UNL     1      -1.039  12.333  22.638  0.00  0.00    +0.000 C 
ENDBRANCH   5   8
BRANCH   4  11
ATOM     11  C   UNL     1      -2.275  12.232  18.488  0.00  0.00    +0.000 C 
BRANCH  11  12
ATOM     12  N   UNL     1      -3.556  11.752  19.020  0.00  0.00    +0.000 NA
ATOM     13  H   UNL     1      -3.988  12.483  19.585  0.00  0.00    +0.000 HD
BRANCH  12  14
ATOM     14  C   UNL     1      -4.468  11.365  17.939  0.00  0.00    +0.000 C 
BRANCH  14  15
ATOM     15  C   UNL     1      -5.831  10.907  18.505  0.00  0.00    +0.000 C 
BRANCH  15  16
ATOM     16  N   UNL     1      -6.966  11.772  18.118  0.00  0.00    +0.000 NA
ATOM     17  C   UNL     1      -7.547  12.465  19.271  0.00  0.00    +0.000 C 
ATOM     18  C   UNL     1      -6.518  12.757  17.129  0.00  0.00    +0.000 C 
ENDBRANCH  15  16
ENDBRANCH  14  15
ENDBRANCH  12  14
ENDBRANCH  11  12
ENDBRANCH   4  11
BRANCH   7  19
ATOM     19  C   UNL     1       1.392   9.461  17.839  0.00  0.00    +0.000 C 
BRANCH  19  20
ATOM     20  C   UNL     1       2.209   8.285  18.219  0.00  0.00    +0.000 A 
ATOM     21  N   UNL     1       2.162   7.583  19.329  0.00  0.00    +0.000 NA
ATOM     22  N   UNL     1       3.086   6.574  19.183  0.00  0.00    +0.000 NA
ATOM     23  C   UNL     1       3.639   6.731  17.996  0.00  0.00    +0.000 A 
ATOM     24  O   UNL     1       3.131   7.813  17.319  0.00  0.00    +0.000 OA
BRANCH  23  25
ATOM     25  C   UNL     1       4.681   5.931  17.363  0.00  0.00    +0.000 A 
ATOM     26  C   UNL     1       5.957   6.497  17.215  0.00  0.00    +0.000 A 
ATOM     27  C   UNL     1       6.988   5.799  16.583  0.00  0.00    +0.000 A 
ATOM     28  C   UNL     1       6.754   4.517  16.094  0.00  0.00    +0.000 A 
ATOM     29  C   UNL     1       5.500   3.931  16.249  0.00  0.00    +0.000 A 
ATOM     30  C   UNL     1       4.464   4.633  16.883  0.00  0.00    +0.000 A 
ENDBRANCH  23  25
ENDBRANCH  19  20
ENDBRANCH   7  19
TORSDOF 9
ENDMDL
MODEL 9
REMARK VINA RESULT:      -7.0      1.947      3.490
REMARK  Name = 
REMARK  14 active torsions:
REMARK  status: ('A' for Active; 'I' for Inactive)
REMARK    1  A    between atoms: C_1  and  C_2
REMARK    2  A    between atoms: C_4  and  C_5
REMARK    3  A    between atoms: C_5  and  N_6
REMARK    4  A    between atoms: N_6  and  C_7
REMARK    5  A    between atoms: C_7  and  C_8
REMARK    6  A    between atoms: C_8  and  N_9
REMARK    7  A    between atoms: N_9  and  C_10
REMARK    8  A    between atoms: N_9  and  C_11
REMARK    9  A    between atoms: C_12  and  C_13
REMARK   10  A    between atoms: C_13  and  C_14
REMARK   11  A    between atoms: C_13  and  C_15
REMARK   12  A    between atoms: C_17  and  C_18
REMARK   13  A    between atoms: C_18  and  C_19
REMARK   14  A    between atoms: C_22  and  C_23
REMARK                            x       y       z     vdW  Elec       q    Type
REMARK                         _______ _______ _______ _____ _____    ______ ____
ROOT
ATOM      1  C   UNL     1       2.505   6.194  20.271  0.00  0.00    +0.000 C 
ATOM      2  C   UNL     1       3.388   6.053  19.057  0.00  0.00    +0.000 C 
ATOM      3  C   UNL     1       4.079   4.916  18.849  0.00  0.00    +0.000 C 
ATOM      4  C   UNL     1       5.102   4.728  17.753  0.00  0.00    +0.000 C 
ATOM      5  C   UNL     1       5.671   6.100  17.275  0.00  0.00    +0.000 C 
ATOM      6  C   UNL     1       4.484   7.026  16.951  0.00  0.00    +0.000 C 
ATOM      7  C   UNL     1       3.528   7.274  18.146  0.00  0.00    +0.000 C 
ENDROOT
BRANCH   5   8
ATOM      8  C   UNL     1       6.692   6.735  18.278  0.00  0.00    +0.000 C 
ATOM      9  C   UNL     1       7.614   7.750  17.589  0.00  0.00    +0.000 C 
ATOM     10  C   UNL     1       7.579   5.671  18.944  0.00  0.00    +0.000 C 
ENDBRANCH   5   8
BRANCH   4  11
ATOM     11  C   UNL     1       4.494   3.878  16.611  0.00  0.00    +0.000 C 
BRANCH  11  12
ATOM     12  N   UNL     1       5.501   3.000  16.002  0.00  0.00    +0.000 NA
ATOM     13  H   UNL     1       5.037   2.269  15.462  0.00  0.00    +0.000 HD
BRANCH  12  14
ATOM     14  C   UNL     1       6.405   3.756  15.129  0.00  0.00    +0.000 C 
BRANCH  14  15
ATOM     15  C   UNL     1       5.675   4.220  13.849  0.00  0.00    +0.000 C 
BRANCH  15  16
ATOM     16  N   UNL     1       5.934   3.371  12.666  0.00  0.00    +0.000 NA
ATOM     17  C   UNL     1       4.774   3.307  11.772  0.00  0.00    +0.000 C 
ATOM     18  C   UNL     1       7.091   3.890  11.931  0.00  0.00    +0.000 C 
ENDBRANCH  15  16
ENDBRANCH  14  15
ENDBRANCH  12  14
ENDBRANCH  11  12
ENDBRANCH   4  11
BRANCH   7  19
ATOM     19  C   UNL     1       2.159   7.762  17.615  0.00  0.00    +0.000 C 
BRANCH  19  20
ATOM     20  C   UNL     1       1.818   9.113  18.119  0.00  0.00    +0.000 A 
ATOM     21  N   UNL     1       2.310  10.272  17.741  0.00  0.00    +0.000 NA
ATOM     22  N   UNL     1       1.644  11.227  18.475  0.00  0.00    +0.000 NA
ATOM     23  C   UNL     1       0.795  10.587  19.254  0.00  0.00    +0.000 A 
ATOM     24  O   UNL     1       0.852   9.224  19.087  0.00  0.00    +0.000 OA
BRANCH  23  25
ATOM     25  C   UNL     1      -0.139  11.137  20.230  0.00  0.00    +0.000 A 
ATOM     26  C   UNL     1       0.145  10.966  21.594  0.00  0.00    +0.000 A 
ATOM     27  C   UNL     1      -0.728  11.435  22.578  0.00  0.00    +0.000 A 
ATOM     28  C   UNL     1      -1.899  12.087  22.206  0.00  0.00    +0.000 A 
ATOM     29  C   UNL     1      -2.190  12.282  20.858  0.00  0.00    +0.000 A 
ATOM     30  C   UNL     1      -1.313  11.811  19.870  0.00  0.00    +0.000 A 
ENDBRANCH  23  25
ENDBRANCH  19  20
ENDBRANCH   7  19
TORSDOF 9
ENDMDL
