MODEL 1
REMARK VINA RESULT:      -6.8      0.000      0.000
REMARK  Name = 
REMARK  4 active torsions:
REMARK  status: ('A' for Active; 'I' for Inactive)
REMARK    1  A    between atoms: C_1  and  C_2
REMARK    2  A    between atoms: C_5  and  N_6
REMARK    3  A    between atoms: C_7  and  N_8
REMARK    4  A    between atoms: C_9  and  C_10
REMARK                            x       y       z     vdW  Elec       q    Type
REMARK                         _______ _______ _______ _____ _____    ______ ____
ROOT
ATOM      1  N   UNL     1       4.016   4.698  18.472  0.00  0.00    +0.000 N 
ATOM      2  C   UNL     1       3.723   3.581  19.295  0.00  0.00    +0.000 A 
ATOM      3  C   UNL     1       2.819   3.874  20.258  0.00  0.00    +0.000 A 
ATOM      4  S   UNL     1       2.300   5.516  20.255  0.00  0.00    +0.000 S 
ATOM      5  C   UNL     1       3.223   5.837  18.785  0.00  0.00    +0.000 A 
ATOM      6  S   UNL     1       2.942   7.272  17.967  0.00  0.00    +0.000 S 
ENDROOT
BRANCH   1  11
ATOM      7  C   UNL     1       7.553   5.171  13.918  0.00  0.00    +0.000 C 
ATOM      8  C   UNL     1       6.676   4.926  15.111  0.00  0.00    +0.000 A 
ATOM      9  C   UNL     1       5.484   4.204  15.016  0.00  0.00    +0.000 A 
ATOM     10  C   UNL     1       4.620   4.093  16.122  0.00  0.00    +0.000 A 
ATOM     11  C   UNL     1       4.933   4.691  17.352  0.00  0.00    +0.000 A 
ATOM     12  C   UNL     1       6.186   5.315  17.451  0.00  0.00    +0.000 A 
ATOM     13  C   UNL     1       7.030   5.464  16.345  0.00  0.00    +0.000 A 
ENDBRANCH   1  11
BRANCH   3  14
ATOM     14  C   UNL     1       2.296   2.939  21.293  0.00  0.00    +0.000 C 
ATOM     15  N   UNL     1       0.937   2.833  21.368  0.00  0.00    +0.000 N 
ATOM     16  O   UNL     1       3.030   2.301  22.038  0.00  0.00    +0.000 OA
ATOM     17  H   UNL     1       0.324   3.366  20.761  0.00  0.00    +0.000 HD
ATOM     18  H   UNL     1       0.527   2.215  22.053  0.00  0.00    +0.000 HD
ENDBRANCH   3  14
BRANCH   2  19
ATOM     19  N   UNL     1       4.305   2.333  19.158  0.00  0.00    +0.000 N 
ATOM     20  H   UNL     1       3.622   1.581  19.123  0.00  0.00    +0.000 HD
ATOM     21  H   UNL     1       4.957   2.289  18.365  0.00  0.00    +0.000 HD
ENDBRANCH   2  19
TORSDOF 3
ENDMDL
MODEL 2
REMARK VINA RESULT:      -6.6      0.312      1.202
REMARK  Name = 
REMARK  4 active torsions:
REMARK  status: ('A' for Active; 'I' for Inactive)
REMARK    1  A    between atoms: C_1  and  C_2
REMARK    2  A    between atoms: C_5  and  N_6
REMARK    3  A    between atoms: C_7  and  N_8
REMARK    4  A    between atoms: C_9  and  C_10
REMARK                            x       y       z     vdW  Elec       q    Type
REMARK                         _______ _______ _______ _____ _____    ______ ____
ROOT
ATOM      1  N   UNL     1       3.845   4.937  18.582  0.00  0.00    +0.000 N 
ATOM      2  C   UNL     1       3.656   3.760  19.352  0.00  0.00    +0.000 A 
ATOM      3  C   UNL     1       2.752   3.934  20.343  0.00  0.00    +0.000 A 
ATOM      4  S   UNL     1       2.107   5.528  20.432  0.00  0.00    +0.000 S 
ATOM      5  C   UNL     1       2.972   5.993  18.965  0.00  0.00    +0.000 A 
ATOM      6  S   UNL     1       2.564   7.440  18.225  0.00  0.00    +0.000 S 
ENDROOT
BRANCH   1  11
ATOM      7  C   UNL     1       7.555   4.922  14.143  0.00  0.00    +0.000 C 
ATOM      8  C   UNL     1       6.563   5.047  15.261  0.00  0.00    +0.000 A 
ATOM      9  C   UNL     1       6.851   5.756  16.430  0.00  0.00    +0.000 A 
ATOM     10  C   UNL     1       5.952   5.756  17.512  0.00  0.00    +0.000 A 
ATOM     11  C   UNL     1       4.737   5.057  17.448  0.00  0.00    +0.000 A 
ATOM     12  C   UNL     1       4.423   4.446  16.224  0.00  0.00    +0.000 A 
ATOM     13  C   UNL     1       5.330   4.407  15.160  0.00  0.00    +0.000 A 
ENDBRANCH   1  11
BRANCH   3  14
ATOM     14  C   UNL     1       2.324   2.910  21.337  0.00  0.00    +0.000 C 
ATOM     15  N   UNL     1       0.976   2.745  21.480  0.00  0.00    +0.000 N 
ATOM     16  O   UNL     1       3.123   2.253  21.994  0.00  0.00    +0.000 OA
ATOM     17  H   UNL     1       0.311   3.293  20.947  0.00  0.00    +0.000 HD
ATOM     18  H   UNL     1       0.630   2.066  22.142  0.00  0.00    +0.000 HD
ENDBRANCH   3  14
BRANCH   2  19
ATOM     19  N   UNL     1       4.331   2.570  19.142  0.00  0.00    +0.000 N 
ATOM     20  H   UNL     1       4.152   1.883  19.868  0.00  0.00    +0.000 HD
ATOM     21  H   UNL     1       4.163   2.184  18.204  0.00  0.00    +0.000 HD
ENDBRANCH   2  19
TORSDOF 3
ENDMDL
MODEL 3
REMARK VINA RESULT:      -6.5      3.563      6.114
REMARK  Name = 
REMARK  4 active torsions:
REMARK  status: ('A' for Active; 'I' for Inactive)
REMARK    1  A    between atoms: C_1  and  C_2
REMARK    2  A    between atoms: C_5  and  N_6
REMARK    3  A    between atoms: C_7  and  N_8
REMARK    4  A    between atoms: C_9  and  C_10
REMARK                            x       y       z     vdW  Elec       q    Type
REMARK                         _______ _______ _______ _____ _____    ______ ____
ROOT
ATOM      1  N   UNL     1       3.690   6.025  17.887  0.00  0.00    +0.000 N 
ATOM      2  C   UNL     1       5.008   6.258  17.417  0.00  0.00    +0.000 A 
ATOM      3  C   UNL     1       5.599   5.128  16.963  0.00  0.00    +0.000 A 
ATOM      4  S   UNL     1       4.622   3.718  17.112  0.00  0.00    +0.000 S 
ATOM      5  C   UNL     1       3.260   4.684  17.683  0.00  0.00    +0.000 A 
ATOM      6  S   UNL     1       1.749   3.963  17.760  0.00  0.00    +0.000 S 
ENDROOT
BRANCH   1  11
ATOM      7  C   UNL     1       0.559  10.400  20.015  0.00  0.00    +0.000 C 
ATOM      8  C   UNL     1       1.262   9.195  19.464  0.00  0.00    +0.000 A 
ATOM      9  C   UNL     1       1.621   8.114  20.274  0.00  0.00    +0.000 A 
ATOM     10  C   UNL     1       2.388   7.052  19.758  0.00  0.00    +0.000 A 
ATOM     11  C   UNL     1       2.803   7.039  18.419  0.00  0.00    +0.000 A 
ATOM     12  C   UNL     1       2.336   8.080  17.602  0.00  0.00    +0.000 A 
ATOM     13  C   UNL     1       1.611   9.159  18.117  0.00  0.00    +0.000 A 
ENDBRANCH   1  11
BRANCH   3  14
ATOM     14  C   UNL     1       6.977   5.014  16.410  0.00  0.00    +0.000 C 
ATOM     15  N   UNL     1       7.857   4.277  17.149  0.00  0.00    +0.000 N 
ATOM     16  O   UNL     1       7.313   5.545  15.358  0.00  0.00    +0.000 OA
ATOM     17  H   UNL     1       7.588   3.844  18.025  0.00  0.00    +0.000 HD
ATOM     18  H   UNL     1       8.806   4.168  16.823  0.00  0.00    +0.000 HD
ENDBRANCH   3  14
BRANCH   2  19
ATOM     19  N   UNL     1       5.641   7.489  17.436  0.00  0.00    +0.000 N 
ATOM     20  H   UNL     1       5.052   8.240  17.088  0.00  0.00    +0.000 HD
ATOM     21  H   UNL     1       6.036   7.713  18.358  0.00  0.00    +0.000 HD
ENDBRANCH   2  19
TORSDOF 3
ENDMDL
MODEL 4
REMARK VINA RESULT:      -6.4      3.494      5.960
REMARK  Name = 
REMARK  4 active torsions:
REMARK  status: ('A' for Active; 'I' for Inactive)
REMARK    1  A    between atoms: C_1  and  C_2
REMARK    2  A    between atoms: C_5  and  N_6
REMARK    3  A    between atoms: C_7  and  N_8
REMARK    4  A    between atoms: C_9  and  C_10
REMARK                            x       y       z     vdW  Elec       q    Type
REMARK                         _______ _______ _______ _____ _____    ______ ____
ROOT
ATOM      1  N   UNL     1       3.764   6.018  17.946  0.00  0.00    +0.000 N 
ATOM      2  C   UNL     1       5.124   6.099  17.552  0.00  0.00    +0.000 A 
ATOM      3  C   UNL     1       5.622   4.900  17.172  0.00  0.00    +0.000 A 
ATOM      4  S   UNL     1       4.499   3.601  17.303  0.00  0.00    +0.000 S 
ATOM      5  C   UNL     1       3.211   4.720  17.757  0.00  0.00    +0.000 A 
ATOM      6  S   UNL     1       1.633   4.158  17.762  0.00  0.00    +0.000 S 
ENDROOT
BRANCH   1  11
ATOM      7  C   UNL     1       0.121  10.161  19.688  0.00  0.00    +0.000 C 
ATOM      8  C   UNL     1       1.162   9.173  19.250  0.00  0.00    +0.000 A 
ATOM      9  C   UNL     1       1.720   9.206  17.970  0.00  0.00    +0.000 A 
ATOM     10  C   UNL     1       2.602   8.196  17.543  0.00  0.00    +0.000 A 
ATOM     11  C   UNL     1       2.956   7.135  18.389  0.00  0.00    +0.000 A 
ATOM     12  C   UNL     1       2.468   7.185  19.705  0.00  0.00    +0.000 A 
ATOM     13  C   UNL     1       1.559   8.163  20.122  0.00  0.00    +0.000 A 
ENDBRANCH   1  11
BRANCH   3  14
ATOM     14  C   UNL     1       7.011   4.627  16.709  0.00  0.00    +0.000 C 
ATOM     15  N   UNL     1       7.901   4.261  17.678  0.00  0.00    +0.000 N 
ATOM     16  O   UNL     1       7.347   4.723  15.535  0.00  0.00    +0.000 OA
ATOM     17  H   UNL     1       7.630   4.190  18.653  0.00  0.00    +0.000 HD
ATOM     18  H   UNL     1       8.857   4.066  17.422  0.00  0.00    +0.000 HD
ENDBRANCH   3  14
BRANCH   2  19
ATOM     19  N   UNL     1       5.877   7.260  17.572  0.00  0.00    +0.000 N 
ATOM     20  H   UNL     1       6.166   7.526  18.509  0.00  0.00    +0.000 HD
ATOM     21  H   UNL     1       6.675   7.222  16.926  0.00  0.00    +0.000 HD
ENDBRANCH   2  19
TORSDOF 3
ENDMDL
MODEL 5
REMARK VINA RESULT:      -6.3      3.070      6.064
REMARK  Name = 
REMARK  4 active torsions:
REMARK  status: ('A' for Active; 'I' for Inactive)
REMARK    1  A    between atoms: C_1  and  C_2
REMARK    2  A    between atoms: C_5  and  N_6
REMARK    3  A    between atoms: C_7  and  N_8
REMARK    4  A    between atoms: C_9  and  C_10
REMARK                            x       y       z     vdW  Elec       q    Type
REMARK                         _______ _______ _______ _____ _____    ______ ____
ROOT
ATOM      1  N   UNL     1       4.267   4.804  17.160  0.00  0.00    +0.000 N 
ATOM      2  C   UNL     1       5.162   4.175  16.258  0.00  0.00    +0.000 A 
ATOM      3  C   UNL     1       5.702   5.047  15.377  0.00  0.00    +0.000 A 
ATOM      4  S   UNL     1       5.137   6.664  15.555  0.00  0.00    +0.000 S 
ATOM      5  C   UNL     1       4.219   6.217  16.995  0.00  0.00    +0.000 A 
ATOM      6  S   UNL     1       3.594   7.441  17.953  0.00  0.00    +0.000 S 
ENDROOT
BRANCH   1  11
ATOM      7  C   UNL     1       1.247   2.605  21.578  0.00  0.00    +0.000 C 
ATOM      8  C   UNL     1       2.057   3.053  20.398  0.00  0.00    +0.000 A 
ATOM      9  C   UNL     1       3.454   3.042  20.413  0.00  0.00    +0.000 A 
ATOM     10  C   UNL     1       4.190   3.582  19.341  0.00  0.00    +0.000 A 
ATOM     11  C   UNL     1       3.547   4.135  18.224  0.00  0.00    +0.000 A 
ATOM     12  C   UNL     1       2.148   4.033  18.185  0.00  0.00    +0.000 A 
ATOM     13  C   UNL     1       1.409   3.537  19.264  0.00  0.00    +0.000 A 
ENDBRANCH   1  11
BRANCH   3  14
ATOM     14  C   UNL     1       6.670   4.722  14.292  0.00  0.00    +0.000 C 
ATOM     15  N   UNL     1       7.790   5.500  14.240  0.00  0.00    +0.000 N 
ATOM     16  O   UNL     1       6.483   3.815  13.489  0.00  0.00    +0.000 OA
ATOM     17  H   UNL     1       7.946   6.258  14.895  0.00  0.00    +0.000 HD
ATOM     18  H   UNL     1       8.480   5.325  13.524  0.00  0.00    +0.000 HD
ENDBRANCH   3  14
BRANCH   2  19
ATOM     19  N   UNL     1       5.443   2.819  16.251  0.00  0.00    +0.000 N 
ATOM     20  H   UNL     1       4.679   2.260  15.882  0.00  0.00    +0.000 HD
ATOM     21  H   UNL     1       6.331   2.605  15.781  0.00  0.00    +0.000 HD
ENDBRANCH   2  19
TORSDOF 3
ENDMDL
MODEL 6
REMARK VINA RESULT:      -6.2      2.917      5.904
REMARK  Name = 
REMARK  4 active torsions:
REMARK  status: ('A' for Active; 'I' for Inactive)
REMARK    1  A    between atoms: C_1  and  C_2
REMARK    2  A    between atoms: C_5  and  N_6
REMARK    3  A    between atoms: C_7  and  N_8
REMARK    4  A    between atoms: C_9  and  C_10
REMARK                            x       y       z     vdW  Elec       q    Type
REMARK                         _______ _______ _______ _____ _____    ______ ____
ROOT
ATOM      1  N   UNL     1       3.940   5.184  17.398  0.00  0.00    +0.000 N 
ATOM      2  C   UNL     1       4.897   4.454  16.647  0.00  0.00    +0.000 A 
ATOM      3  C   UNL     1       5.514   5.220  15.718  0.00  0.00    +0.000 A 
ATOM      4  S   UNL     1       4.953   6.847  15.666  0.00  0.00    +0.000 S 
ATOM      5  C   UNL     1       3.920   6.568  17.070  0.00  0.00    +0.000 A 
ATOM      6  S   UNL     1       3.234   7.895  17.829  0.00  0.00    +0.000 S 
ENDROOT
BRANCH   1  11
ATOM      7  C   UNL     1       1.066   2.637  21.726  0.00  0.00    +0.000 C 
ATOM      8  C   UNL     1       1.718   3.388  20.603  0.00  0.00    +0.000 A 
ATOM      9  C   UNL     1       1.244   3.315  19.290  0.00  0.00    +0.000 A 
ATOM     10  C   UNL     1       1.946   3.929  18.236  0.00  0.00    +0.000 A 
ATOM     11  C   UNL     1       3.131   4.641  18.470  0.00  0.00    +0.000 A 
ATOM     12  C   UNL     1       3.525   4.793  19.808  0.00  0.00    +0.000 A 
ATOM     13  C   UNL     1       2.856   4.150  20.855  0.00  0.00    +0.000 A 
ENDBRANCH   1  11
BRANCH   3  14
ATOM     14  C   UNL     1       6.561   4.771  14.758  0.00  0.00    +0.000 C 
ATOM     15  N   UNL     1       7.702   5.521  14.728  0.00  0.00    +0.000 N 
ATOM     16  O   UNL     1       6.419   3.793  14.035  0.00  0.00    +0.000 OA
ATOM     17  H   UNL     1       7.821   6.337  15.317  0.00  0.00    +0.000 HD
ATOM     18  H   UNL     1       8.445   5.264  14.094  0.00  0.00    +0.000 HD
ENDBRANCH   3  14
BRANCH   2  19
ATOM     19  N   UNL     1       5.163   3.107  16.817  0.00  0.00    +0.000 N 
ATOM     20  H   UNL     1       5.620   2.903  17.701  0.00  0.00    +0.000 HD
ATOM     21  H   UNL     1       4.330   2.521  16.677  0.00  0.00    +0.000 HD
ENDBRANCH   2  19
TORSDOF 3
ENDMDL
MODEL 7
REMARK VINA RESULT:      -6.0      2.604      5.826
REMARK  Name = 
REMARK  4 active torsions:
REMARK  status: ('A' for Active; 'I' for Inactive)
REMARK    1  A    between atoms: C_1  and  C_2
REMARK    2  A    between atoms: C_5  and  N_6
REMARK    3  A    between atoms: C_7  and  N_8
REMARK    4  A    between atoms: C_9  and  C_10
REMARK                            x       y       z     vdW  Elec       q    Type
REMARK                         _______ _______ _______ _____ _____    ______ ____
ROOT
ATOM      1  N   UNL     1       3.952   5.068  18.234  0.00  0.00    +0.000 N 
ATOM      2  C   UNL     1       5.204   4.548  17.817  0.00  0.00    +0.000 A 
ATOM      3  C   UNL     1       5.818   5.348  16.915  0.00  0.00    +0.000 A 
ATOM      4  S   UNL     1       4.910   6.747  16.486  0.00  0.00    +0.000 S 
ATOM      5  C   UNL     1       3.676   6.351  17.685  0.00  0.00    +0.000 A 
ATOM      6  S   UNL     1       2.534   7.516  18.065  0.00  0.00    +0.000 S 
ENDROOT
BRANCH   1  11
ATOM      7  C   UNL     1       0.850   2.326  22.275  0.00  0.00    +0.000 C 
ATOM      8  C   UNL     1       1.545   3.096  21.192  0.00  0.00    +0.000 A 
ATOM      9  C   UNL     1       1.436   2.740  19.845  0.00  0.00    +0.000 A 
ATOM     10  C   UNL     1       2.195   3.403  18.862  0.00  0.00    +0.000 A 
ATOM     11  C   UNL     1       3.071   4.445  19.200  0.00  0.00    +0.000 A 
ATOM     12  C   UNL     1       3.077   4.856  20.542  0.00  0.00    +0.000 A 
ATOM     13  C   UNL     1       2.359   4.175  21.529  0.00  0.00    +0.000 A 
ENDBRANCH   1  11
BRANCH   3  14
ATOM     14  C   UNL     1       7.136   5.100  16.267  0.00  0.00    +0.000 C 
ATOM     15  N   UNL     1       7.297   5.630  15.020  0.00  0.00    +0.000 N 
ATOM     16  O   UNL     1       8.029   4.460  16.811  0.00  0.00    +0.000 OA
ATOM     17  H   UNL     1       6.559   6.152  14.562  0.00  0.00    +0.000 HD
ATOM     18  H   UNL     1       8.171   5.491  14.533  0.00  0.00    +0.000 HD
ENDBRANCH   3  14
BRANCH   2  19
ATOM     19  N   UNL     1       5.740   3.350  18.255  0.00  0.00    +0.000 N 
ATOM     20  H   UNL     1       5.721   2.626  17.543  0.00  0.00    +0.000 HD
ATOM     21  H   UNL     1       6.680   3.463  18.656  0.00  0.00    +0.000 HD
ENDBRANCH   2  19
TORSDOF 3
ENDMDL
MODEL 8
REMARK VINA RESULT:      -6.0      2.909      5.128
REMARK  Name = 
REMARK  4 active torsions:
REMARK  status: ('A' for Active; 'I' for Inactive)
REMARK    1  A    between atoms: C_1  and  C_2
REMARK    2  A    between atoms: C_5  and  N_6
REMARK    3  A    between atoms: C_7  and  N_8
REMARK    4  A    between atoms: C_9  and  C_10
REMARK                            x       y       z     vdW  Elec       q    Type
REMARK                         _______ _______ _______ _____ _____    ______ ____
ROOT
ATOM      1  N   UNL     1       2.999   5.771  18.345  0.00  0.00    +0.000 N 
ATOM      2  C   UNL     1       2.493   4.522  18.785  0.00  0.00    +0.000 A 
ATOM      3  C   UNL     1       3.230   3.481  18.335  0.00  0.00    +0.000 A 
ATOM      4  S   UNL     1       4.547   3.939  17.326  0.00  0.00    +0.000 S 
ATOM      5  C   UNL     1       4.215   5.649  17.617  0.00  0.00    +0.000 A 
ATOM      6  S   UNL     1       5.365   6.774  17.148  0.00  0.00    +0.000 S 
ENDROOT
BRANCH   1  11
ATOM      7  C   UNL     1       0.280  10.688  19.724  0.00  0.00    +0.000 C 
ATOM      8  C   UNL     1       1.094   9.483  19.355  0.00  0.00    +0.000 A 
ATOM      9  C   UNL     1       1.482   9.228  18.037  0.00  0.00    +0.000 A 
ATOM     10  C   UNL     1       2.139   8.029  17.700  0.00  0.00    +0.000 A 
ATOM     11  C   UNL     1       2.433   7.063  18.674  0.00  0.00    +0.000 A 
ATOM     12  C   UNL     1       2.132   7.394  20.004  0.00  0.00    +0.000 A 
ATOM     13  C   UNL     1       1.443   8.563  20.340  0.00  0.00    +0.000 A 
ENDBRANCH   1  11
BRANCH   3  14
ATOM     14  C   UNL     1       2.975   2.037  18.602  0.00  0.00    +0.000 C 
ATOM     15  N   UNL     1       4.020   1.193  18.359  0.00  0.00    +0.000 N 
ATOM     16  O   UNL     1       1.898   1.622  19.013  0.00  0.00    +0.000 OA
ATOM     17  H   UNL     1       4.910   1.530  18.009  0.00  0.00    +0.000 HD
ATOM     18  H   UNL     1       3.902   0.203  18.520  0.00  0.00    +0.000 HD
ENDBRANCH   3  14
BRANCH   2  19
ATOM     19  N   UNL     1       1.361   4.367  19.567  0.00  0.00    +0.000 N 
ATOM     20  H   UNL     1       0.621   5.019  19.323  0.00  0.00    +0.000 HD
ATOM     21  H   UNL     1       1.022   3.397  19.579  0.00  0.00    +0.000 HD
ENDBRANCH   2  19
TORSDOF 3
ENDMDL
MODEL 9
REMARK VINA RESULT:      -5.9      3.303      6.187
REMARK  Name = 
REMARK  4 active torsions:
REMARK  status: ('A' for Active; 'I' for Inactive)
REMARK    1  A    between atoms: C_1  and  C_2
REMARK    2  A    between atoms: C_5  and  N_6
REMARK    3  A    between atoms: C_7  and  N_8
REMARK    4  A    between atoms: C_9  and  C_10
REMARK                            x       y       z     vdW  Elec       q    Type
REMARK                         _______ _______ _______ _____ _____    ______ ____
ROOT
ATOM      1  N   UNL     1       5.415   4.650  18.013  0.00  0.00    +0.000 N 
ATOM      2  C   UNL     1       5.285   4.344  16.633  0.00  0.00    +0.000 A 
ATOM      3  C   UNL     1       6.311   4.833  15.900  0.00  0.00    +0.000 A 
ATOM      4  S   UNL     1       7.468   5.719  16.816  0.00  0.00    +0.000 S 
ATOM      5  C   UNL     1       6.637   5.310  18.319  0.00  0.00    +0.000 A 
ATOM      6  S   UNL     1       7.418   5.615  19.770  0.00  0.00    +0.000 S 
ENDROOT
BRANCH   1  11
ATOM      7  C   UNL     1       1.425   2.798  21.771  0.00  0.00    +0.000 C 
ATOM      8  C   UNL     1       2.518   3.337  20.896  0.00  0.00    +0.000 A 
ATOM      9  C   UNL     1       2.546   4.672  20.485  0.00  0.00    +0.000 A 
ATOM     10  C   UNL     1       3.513   5.121  19.566  0.00  0.00    +0.000 A 
ATOM     11  C   UNL     1       4.482   4.251  19.046  0.00  0.00    +0.000 A 
ATOM     12  C   UNL     1       4.500   2.945  19.560  0.00  0.00    +0.000 A 
ATOM     13  C   UNL     1       3.517   2.481  20.440  0.00  0.00    +0.000 A 
ENDBRANCH   1  11
BRANCH   3  14
ATOM     14  C   UNL     1       6.485   4.701  14.426  0.00  0.00    +0.000 C 
ATOM     15  N   UNL     1       7.543   5.375  13.888  0.00  0.00    +0.000 N 
ATOM     16  O   UNL     1       5.730   4.033  13.730  0.00  0.00    +0.000 OA
ATOM     17  H   UNL     1       8.164   5.937  14.458  0.00  0.00    +0.000 HD
ATOM     18  H   UNL     1       7.707   5.323  12.893  0.00  0.00    +0.000 HD
ENDBRANCH   3  14
BRANCH   2  19
ATOM     19  N   UNL     1       4.223   3.648  16.082  0.00  0.00    +0.000 N 
ATOM     20  H   UNL     1       3.445   4.251  15.831  0.00  0.00    +0.000 HD
ATOM     21  H   UNL     1       4.511   3.052  15.295  0.00  0.00    +0.000 HD
ENDBRANCH   2  19
TORSDOF 3
ENDMDL
