MODEL 1
REMARK VINA RESULT:      -7.0      0.000      0.000
REMARK  Name = 
REMARK  3 active torsions:
REMARK  status: ('A' for Active; 'I' for Inactive)
REMARK    1  A    between atoms: O_1  and  C_2
REMARK    2  A    between atoms: C_7  and  C_8
REMARK    3  A    between atoms: N_9  and  C_10
REMARK                            x       y       z     vdW  Elec       q    Type
REMARK                         _______ _______ _______ _____ _____    ______ ____
ROOT
ATOM      1  C   UNL     1       3.774   3.632  17.889  0.00  0.00    +0.000 C 
ATOM      2  N   UNL     1       4.916   4.245  17.899  0.00  0.00    +0.000 NA
ENDROOT
BRANCH   2   3
ATOM      3  C   UNL     1       5.607   4.480  16.701  0.00  0.00    +0.000 A 
ATOM      4  C   UNL     1       6.953   4.862  16.633  0.00  0.00    +0.000 A 
ATOM      5  C   UNL     1       7.589   5.027  15.397  0.00  0.00    +0.000 A 
ATOM      6  C   UNL     1       6.887   4.788  14.219  0.00  0.00    +0.000 A 
ATOM      7 CL   UNL     1       7.675   4.969  12.700  0.00  0.00    +0.000 Cl
ATOM      8  C   UNL     1       5.553   4.390  14.265  0.00  0.00    +0.000 A 
ATOM      9  C   UNL     1       4.923   4.238  15.504  0.00  0.00    +0.000 A 
ENDBRANCH   2   3
BRANCH   1  15
ATOM     10  C   UNL     1       3.613   2.646  20.183  0.00  0.00    +0.000 A 
ATOM     11  C   UNL     1       2.904   2.416  21.365  0.00  0.00    +0.000 A 
ATOM     12  C   UNL     1       1.609   2.916  21.507  0.00  0.00    +0.000 A 
ATOM     13  C   UNL     1       1.020   3.644  20.472  0.00  0.00    +0.000 A 
ATOM     14  C   UNL     1       1.728   3.872  19.291  0.00  0.00    +0.000 A 
ATOM     15  C   UNL     1       3.028   3.377  19.143  0.00  0.00    +0.000 A 
BRANCH  10  16
ATOM     16  O   UNL     1       4.880   2.147  20.046  0.00  0.00    +0.000 OA
ATOM     17  H   UNL     1       5.473   2.619  20.653  0.00  0.00    +0.000 HD
ENDBRANCH  10  16
ENDBRANCH   1  15
TORSDOF 3
ENDMDL
MODEL 2
REMARK VINA RESULT:      -7.0      0.192      1.216
REMARK  Name = 
REMARK  3 active torsions:
REMARK  status: ('A' for Active; 'I' for Inactive)
REMARK    1  A    between atoms: O_1  and  C_2
REMARK    2  A    between atoms: C_7  and  C_8
REMARK    3  A    between atoms: N_9  and  C_10
REMARK                            x       y       z     vdW  Elec       q    Type
REMARK                         _______ _______ _______ _____ _____    ______ ____
ROOT
ATOM      1  C   UNL     1       3.782   3.379  17.812  0.00  0.00    +0.000 C 
ATOM      2  N   UNL     1       4.808   4.168  17.748  0.00  0.00    +0.000 NA
ENDROOT
BRANCH   2   3
ATOM      3  C   UNL     1       5.506   4.332  16.540  0.00  0.00    +0.000 A 
ATOM      4  C   UNL     1       4.946   4.115  15.275  0.00  0.00    +0.000 A 
ATOM      5  C   UNL     1       5.691   4.350  14.113  0.00  0.00    +0.000 A 
ATOM      6  C   UNL     1       6.996   4.827  14.211  0.00  0.00    +0.000 A 
ATOM      7 CL   UNL     1       7.904   5.138  12.783  0.00  0.00    +0.000 Cl
ATOM      8  C   UNL     1       7.564   5.066  15.460  0.00  0.00    +0.000 A 
ATOM      9  C   UNL     1       6.817   4.817  16.615  0.00  0.00    +0.000 A 
ENDBRANCH   2   3
BRANCH   1  15
ATOM     10  C   UNL     1       3.641   2.601  20.185  0.00  0.00    +0.000 A 
ATOM     11  C   UNL     1       2.928   2.439  21.376  0.00  0.00    +0.000 A 
ATOM     12  C   UNL     1       1.603   2.871  21.456  0.00  0.00    +0.000 A 
ATOM     13  C   UNL     1       0.990   3.464  20.351  0.00  0.00    +0.000 A 
ATOM     14  C   UNL     1       1.703   3.625  19.162  0.00  0.00    +0.000 A 
ATOM     15  C   UNL     1       3.032   3.196  19.075  0.00  0.00    +0.000 A 
BRANCH  10  16
ATOM     16  O   UNL     1       4.937   2.169  20.110  0.00  0.00    +0.000 OA
ATOM     17  H   UNL     1       5.332   2.197  20.997  0.00  0.00    +0.000 HD
ENDBRANCH  10  16
ENDBRANCH   1  15
TORSDOF 3
ENDMDL
MODEL 3
REMARK VINA RESULT:      -6.7      3.391      6.914
REMARK  Name = 
REMARK  3 active torsions:
REMARK  status: ('A' for Active; 'I' for Inactive)
REMARK    1  A    between atoms: O_1  and  C_2
REMARK    2  A    between atoms: C_7  and  C_8
REMARK    3  A    between atoms: N_9  and  C_10
REMARK                            x       y       z     vdW  Elec       q    Type
REMARK                         _______ _______ _______ _____ _____    ______ ____
ROOT
ATOM      1  C   UNL     1       5.269   3.943  15.637  0.00  0.00    +0.000 C 
ATOM      2  N   UNL     1       4.717   4.931  16.270  0.00  0.00    +0.000 NA
ENDROOT
BRANCH   2   3
ATOM      3  C   UNL     1       3.994   4.704  17.452  0.00  0.00    +0.000 A 
ATOM      4  C   UNL     1       4.198   5.410  18.644  0.00  0.00    +0.000 A 
ATOM      5  C   UNL     1       3.400   5.163  19.768  0.00  0.00    +0.000 A 
ATOM      6  C   UNL     1       2.376   4.222  19.697  0.00  0.00    +0.000 A 
ATOM      7 CL   UNL     1       1.381   3.934  21.070  0.00  0.00    +0.000 Cl
ATOM      8  C   UNL     1       2.146   3.523  18.515  0.00  0.00    +0.000 A 
ATOM      9  C   UNL     1       2.955   3.768  17.401  0.00  0.00    +0.000 A 
ENDBRANCH   2   3
BRANCH   1  15
ATOM     10  C   UNL     1       7.127   5.040  14.372  0.00  0.00    +0.000 A 
ATOM     11  C   UNL     1       7.851   5.236  13.193  0.00  0.00    +0.000 A 
ATOM     12  C   UNL     1       7.484   4.555  12.031  0.00  0.00    +0.000 A 
ATOM     13  C   UNL     1       6.397   3.680  12.044  0.00  0.00    +0.000 A 
ATOM     14  C   UNL     1       5.673   3.485  13.222  0.00  0.00    +0.000 A 
ATOM     15  C   UNL     1       6.037   4.163  14.391  0.00  0.00    +0.000 A 
BRANCH  10  16
ATOM     16  O   UNL     1       7.486   5.716  15.506  0.00  0.00    +0.000 OA
ATOM     17  H   UNL     1       7.732   5.074  16.192  0.00  0.00    +0.000 HD
ENDBRANCH  10  16
ENDBRANCH   1  15
TORSDOF 3
ENDMDL
MODEL 4
REMARK VINA RESULT:      -6.6      1.340      1.807
REMARK  Name = 
REMARK  3 active torsions:
REMARK  status: ('A' for Active; 'I' for Inactive)
REMARK    1  A    between atoms: O_1  and  C_2
REMARK    2  A    between atoms: C_7  and  C_8
REMARK    3  A    between atoms: N_9  and  C_10
REMARK                            x       y       z     vdW  Elec       q    Type
REMARK                         _______ _______ _______ _____ _____    ______ ____
ROOT
ATOM      1  C   UNL     1       3.527   4.306  17.413  0.00  0.00    +0.000 C 
ATOM      2  N   UNL     1       4.657   3.701  17.224  0.00  0.00    +0.000 NA
ENDROOT
BRANCH   2   3
ATOM      3  C   UNL     1       5.469   4.037  16.129  0.00  0.00    +0.000 A 
ATOM      4  C   UNL     1       5.160   3.727  14.798  0.00  0.00    +0.000 A 
ATOM      5  C   UNL     1       5.995   4.142  13.754  0.00  0.00    +0.000 A 
ATOM      6  C   UNL     1       7.135   4.892  14.034  0.00  0.00    +0.000 A 
ATOM      7 CL   UNL     1       8.149   5.421  12.749  0.00  0.00    +0.000 Cl
ATOM      8  C   UNL     1       7.450   5.225  15.349  0.00  0.00    +0.000 A 
ATOM      9  C   UNL     1       6.617   4.796  16.386  0.00  0.00    +0.000 A 
ENDBRANCH   2   3
BRANCH   1  15
ATOM     10  C   UNL     1       2.108   2.688  18.688  0.00  0.00    +0.000 A 
ATOM     11  C   UNL     1       1.295   2.376  19.782  0.00  0.00    +0.000 A 
ATOM     12  C   UNL     1       1.032   3.345  20.750  0.00  0.00    +0.000 A 
ATOM     13  C   UNL     1       1.576   4.624  20.630  0.00  0.00    +0.000 A 
ATOM     14  C   UNL     1       2.388   4.936  19.537  0.00  0.00    +0.000 A 
ATOM     15  C   UNL     1       2.659   3.968  18.564  0.00  0.00    +0.000 A 
BRANCH  10  16
ATOM     16  O   UNL     1       2.358   1.736  17.738  0.00  0.00    +0.000 OA
ATOM     17  H   UNL     1       1.647   1.074  17.759  0.00  0.00    +0.000 HD
ENDBRANCH  10  16
ENDBRANCH   1  15
TORSDOF 3
ENDMDL
MODEL 5
REMARK VINA RESULT:      -6.6      3.364      6.966
REMARK  Name = 
REMARK  3 active torsions:
REMARK  status: ('A' for Active; 'I' for Inactive)
REMARK    1  A    between atoms: O_1  and  C_2
REMARK    2  A    between atoms: C_7  and  C_8
REMARK    3  A    between atoms: N_9  and  C_10
REMARK                            x       y       z     vdW  Elec       q    Type
REMARK                         _______ _______ _______ _____ _____    ______ ____
ROOT
ATOM      1  C   UNL     1       5.360   3.841  15.677  0.00  0.00    +0.000 C 
ATOM      2  N   UNL     1       4.843   4.804  16.372  0.00  0.00    +0.000 NA
ENDROOT
BRANCH   2   3
ATOM      3  C   UNL     1       4.160   4.532  17.568  0.00  0.00    +0.000 A 
ATOM      4  C   UNL     1       3.753   3.251  17.966  0.00  0.00    +0.000 A 
ATOM      5  C   UNL     1       3.122   3.052  19.200  0.00  0.00    +0.000 A 
ATOM      6  C   UNL     1       2.915   4.132  20.055  0.00  0.00    +0.000 A 
ATOM      7 CL   UNL     1       2.160   3.883  21.580  0.00  0.00    +0.000 Cl
ATOM      8  C   UNL     1       3.328   5.409  19.685  0.00  0.00    +0.000 A 
ATOM      9  C   UNL     1       3.947   5.601  18.446  0.00  0.00    +0.000 A 
ENDBRANCH   2   3
BRANCH   1  15
ATOM     10  C   UNL     1       7.134   5.035  14.380  0.00  0.00    +0.000 A 
ATOM     11  C   UNL     1       7.819   5.277  13.185  0.00  0.00    +0.000 A 
ATOM     12  C   UNL     1       7.455   4.592  12.025  0.00  0.00    +0.000 A 
ATOM     13  C   UNL     1       6.409   3.668  12.054  0.00  0.00    +0.000 A 
ATOM     14  C   UNL     1       5.725   3.428  13.247  0.00  0.00    +0.000 A 
ATOM     15  C   UNL     1       6.086   4.109  14.415  0.00  0.00    +0.000 A 
BRANCH  10  16
ATOM     16  O   UNL     1       7.490   5.715  15.513  0.00  0.00    +0.000 OA
ATOM     17  H   UNL     1       7.054   5.305  16.278  0.00  0.00    +0.000 HD
ENDBRANCH  10  16
ENDBRANCH   1  15
TORSDOF 3
ENDMDL
MODEL 6
REMARK VINA RESULT:      -6.6      1.291      1.332
REMARK  Name = 
REMARK  3 active torsions:
REMARK  status: ('A' for Active; 'I' for Inactive)
REMARK    1  A    between atoms: O_1  and  C_2
REMARK    2  A    between atoms: C_7  and  C_8
REMARK    3  A    between atoms: N_9  and  C_10
REMARK                            x       y       z     vdW  Elec       q    Type
REMARK                         _______ _______ _______ _____ _____    ______ ____
ROOT
ATOM      1  C   UNL     1       3.482   4.272  17.505  0.00  0.00    +0.000 C 
ATOM      2  N   UNL     1       4.759   4.047  17.508  0.00  0.00    +0.000 NA
ENDROOT
BRANCH   2   3
ATOM      3  C   UNL     1       5.543   4.381  16.393  0.00  0.00    +0.000 A 
ATOM      4  C   UNL     1       6.810   4.971  16.472  0.00  0.00    +0.000 A 
ATOM      5  C   UNL     1       7.555   5.226  15.314  0.00  0.00    +0.000 A 
ATOM      6  C   UNL     1       7.044   4.869  14.069  0.00  0.00    +0.000 A 
ATOM      7 CL   UNL     1       7.968   5.162  12.648  0.00  0.00    +0.000 Cl
ATOM      8  C   UNL     1       5.793   4.265  13.970  0.00  0.00    +0.000 A 
ATOM      9  C   UNL     1       5.052   4.025  15.131  0.00  0.00    +0.000 A 
ENDBRANCH   2   3
BRANCH   1  15
ATOM     10  C   UNL     1       2.803   4.600  19.890  0.00  0.00    +0.000 A 
ATOM     11  C   UNL     1       1.999   4.276  20.986  0.00  0.00    +0.000 A 
ATOM     12  C   UNL     1       1.031   3.277  20.865  0.00  0.00    +0.000 A 
ATOM     13  C   UNL     1       0.865   2.603  19.654  0.00  0.00    +0.000 A 
ATOM     14  C   UNL     1       1.669   2.928  18.561  0.00  0.00    +0.000 A 
ATOM     15  C   UNL     1       2.640   3.929  18.674  0.00  0.00    +0.000 A 
BRANCH  10  16
ATOM     16  O   UNL     1       3.756   5.575  20.016  0.00  0.00    +0.000 OA
ATOM     17  H   UNL     1       3.717   6.157  19.240  0.00  0.00    +0.000 HD
ENDBRANCH  10  16
ENDBRANCH   1  15
TORSDOF 3
ENDMDL
MODEL 7
REMARK VINA RESULT:      -6.5      1.280      2.079
REMARK  Name = 
REMARK  3 active torsions:
REMARK  status: ('A' for Active; 'I' for Inactive)
REMARK    1  A    between atoms: O_1  and  C_2
REMARK    2  A    between atoms: C_7  and  C_8
REMARK    3  A    between atoms: N_9  and  C_10
REMARK                            x       y       z     vdW  Elec       q    Type
REMARK                         _______ _______ _______ _____ _____    ______ ____
ROOT
ATOM      1  C   UNL     1       3.994   3.271  17.958  0.00  0.00    +0.000 C 
ATOM      2  N   UNL     1       4.249   4.428  17.432  0.00  0.00    +0.000 NA
ENDROOT
BRANCH   2   3
ATOM      3  C   UNL     1       5.150   4.539  16.361  0.00  0.00    +0.000 A 
ATOM      4  C   UNL     1       4.952   3.955  15.104  0.00  0.00    +0.000 A 
ATOM      5  C   UNL     1       5.872   4.156  14.068  0.00  0.00    +0.000 A 
ATOM      6  C   UNL     1       6.987   4.964  14.279  0.00  0.00    +0.000 A 
ATOM      7 CL   UNL     1       8.107   5.229  13.000  0.00  0.00    +0.000 Cl
ATOM      8  C   UNL     1       7.193   5.568  15.517  0.00  0.00    +0.000 A 
ATOM      9  C   UNL     1       6.275   5.353  16.548  0.00  0.00    +0.000 A 
ENDBRANCH   2   3
BRANCH   1  15
ATOM     10  C   UNL     1       1.680   3.379  18.901  0.00  0.00    +0.000 A 
ATOM     11  C   UNL     1       0.789   3.239  19.969  0.00  0.00    +0.000 A 
ATOM     12  C   UNL     1       1.264   2.855  21.224  0.00  0.00    +0.000 A 
ATOM     13  C   UNL     1       2.625   2.610  21.414  0.00  0.00    +0.000 A 
ATOM     14  C   UNL     1       3.514   2.751  20.347  0.00  0.00    +0.000 A 
ATOM     15  C   UNL     1       3.044   3.133  19.086  0.00  0.00    +0.000 A 
BRANCH  10  16
ATOM     16  O   UNL     1       1.209   3.763  17.674  0.00  0.00    +0.000 OA
ATOM     17  H   UNL     1       0.883   4.676  17.733  0.00  0.00    +0.000 HD
ENDBRANCH  10  16
ENDBRANCH   1  15
TORSDOF 3
ENDMDL
MODEL 8
REMARK VINA RESULT:      -6.5      1.246      1.325
REMARK  Name = 
REMARK  3 active torsions:
REMARK  status: ('A' for Active; 'I' for Inactive)
REMARK    1  A    between atoms: O_1  and  C_2
REMARK    2  A    between atoms: C_7  and  C_8
REMARK    3  A    between atoms: N_9  and  C_10
REMARK                            x       y       z     vdW  Elec       q    Type
REMARK                         _______ _______ _______ _____ _____    ______ ____
ROOT
ATOM      1  C   UNL     1       3.695   4.275  17.785  0.00  0.00    +0.000 C 
ATOM      2  N   UNL     1       4.709   3.577  17.380  0.00  0.00    +0.000 NA
ENDROOT
BRANCH   2   3
ATOM      3  C   UNL     1       5.503   4.029  16.314  0.00  0.00    +0.000 A 
ATOM      4  C   UNL     1       6.690   4.756  16.471  0.00  0.00    +0.000 A 
ATOM      5  C   UNL     1       7.456   5.126  15.360  0.00  0.00    +0.000 A 
ATOM      6  C   UNL     1       7.049   4.750  14.082  0.00  0.00    +0.000 A 
ATOM      7 CL   UNL     1       8.002   5.185  12.717  0.00  0.00    +0.000 Cl
ATOM      8  C   UNL     1       5.881   4.012  13.906  0.00  0.00    +0.000 A 
ATOM      9  C   UNL     1       5.117   3.656  15.020  0.00  0.00    +0.000 A 
ENDBRANCH   2   3
BRANCH   1  15
ATOM     10  C   UNL     1       2.163   2.599  18.835  0.00  0.00    +0.000 A 
ATOM     11  C   UNL     1       1.371   2.170  19.904  0.00  0.00    +0.000 A 
ATOM     12  C   UNL     1       1.263   2.962  21.049  0.00  0.00    +0.000 A 
ATOM     13  C   UNL     1       1.942   4.178  21.128  0.00  0.00    +0.000 A 
ATOM     14  C   UNL     1       2.732   4.606  20.059  0.00  0.00    +0.000 A 
ATOM     15  C   UNL     1       2.848   3.816  18.910  0.00  0.00    +0.000 A 
BRANCH  10  16
ATOM     16  O   UNL     1       2.260   1.822  17.712  0.00  0.00    +0.000 OA
ATOM     17  H   UNL     1       3.019   2.121  17.185  0.00  0.00    +0.000 HD
ENDBRANCH  10  16
ENDBRANCH   1  15
TORSDOF 3
ENDMDL
MODEL 9
REMARK VINA RESULT:      -6.5      1.247      1.709
REMARK  Name = 
REMARK  3 active torsions:
REMARK  status: ('A' for Active; 'I' for Inactive)
REMARK    1  A    between atoms: O_1  and  C_2
REMARK    2  A    between atoms: C_7  and  C_8
REMARK    3  A    between atoms: N_9  and  C_10
REMARK                            x       y       z     vdW  Elec       q    Type
REMARK                         _______ _______ _______ _____ _____    ______ ____
ROOT
ATOM      1  C   UNL     1       3.694   3.553  17.838  0.00  0.00    +0.000 C 
ATOM      2  N   UNL     1       4.796   4.231  17.907  0.00  0.00    +0.000 NA
ENDROOT
BRANCH   2   3
ATOM      3  C   UNL     1       5.549   4.486  16.750  0.00  0.00    +0.000 A 
ATOM      4  C   UNL     1       6.900   4.857  16.758  0.00  0.00    +0.000 A 
ATOM      5  C   UNL     1       7.598   5.043  15.559  0.00  0.00    +0.000 A 
ATOM      6  C   UNL     1       6.953   4.835  14.342  0.00  0.00    +0.000 A 
ATOM      7 CL   UNL     1       7.817   5.042  12.869  0.00  0.00    +0.000 Cl
ATOM      8  C   UNL     1       5.616   4.449  14.314  0.00  0.00    +0.000 A 
ATOM      9  C   UNL     1       4.923   4.277  15.515  0.00  0.00    +0.000 A 
ENDBRANCH   2   3
BRANCH   1  15
ATOM     10  C   UNL     1       1.490   3.359  19.004  0.00  0.00    +0.000 A 
ATOM     11  C   UNL     1       0.733   3.090  20.148  0.00  0.00    +0.000 A 
ATOM     12  C   UNL     1       1.374   2.738  21.337  0.00  0.00    +0.000 A 
ATOM     13  C   UNL     1       2.767   2.656  21.386  0.00  0.00    +0.000 A 
ATOM     14  C   UNL     1       3.521   2.926  20.243  0.00  0.00    +0.000 A 
ATOM     15  C   UNL     1       2.885   3.276  19.047  0.00  0.00    +0.000 A 
BRANCH  10  16
ATOM     16  O   UNL     1       0.856   3.710  17.842  0.00  0.00    +0.000 OA
ATOM     17  H   UNL     1       1.124   3.098  17.138  0.00  0.00    +0.000 HD
ENDBRANCH  10  16
ENDBRANCH   1  15
TORSDOF 3
ENDMDL
