MODEL 1
REMARK VINA RESULT:      -7.6      0.000      0.000
REMARK  Name = 
REMARK  8 active torsions:
REMARK  status: ('A' for Active; 'I' for Inactive)
REMARK    1  A    between atoms: C_1  and  C_2
REMARK    2  A    between atoms: C_2  and  O_3
REMARK    3  A    between atoms: O_3  and  C_4
REMARK    4  A    between atoms: C_4  and  C_6
REMARK    5  A    between atoms: C_9  and  N_10
REMARK    6  A    between atoms: N_10  and  C_11
REMARK    7  A    between atoms: C_11  and  N_13
REMARK    8  A    between atoms: C_17  and  C_18
REMARK                            x       y       z     vdW  Elec       q    Type
REMARK                         _______ _______ _______ _____ _____    ______ ____
ROOT
ATOM      1  C   UNL     1       2.338   4.964  19.751  0.00  0.00    +0.000 C 
ATOM      2  S   UNL     1       1.074   4.235  20.591  0.00  0.00    +0.000 S 
ENDROOT
BRANCH   1   3
ATOM      3  N   UNL     1       3.069   4.233  18.801  0.00  0.00    +0.000 N 
ATOM      4  C   UNL     1       3.467   2.837  19.038  0.00  0.00    +0.000 C 
ATOM      5  C   UNL     1       4.054   2.204  17.778  0.00  0.00    +0.000 C 
ATOM      6  S   UNL     1       4.015   3.469  16.489  0.00  0.00    +0.000 S 
ATOM      7  C   UNL     1       3.762   4.834  17.665  0.00  0.00    +0.000 C 
BRANCH   7   8
ATOM      8  C   UNL     1       5.059   5.546  18.003  0.00  0.00    +0.000 A 
ATOM      9  C   UNL     1       5.460   6.635  17.220  0.00  0.00    +0.000 A 
ATOM     10  F   UNL     1       4.651   7.090  16.252  0.00  0.00    +0.000 F 
ATOM     11  C   UNL     1       6.694   7.261  17.394  0.00  0.00    +0.000 A 
ATOM     12  C   UNL     1       7.556   6.798  18.373  0.00  0.00    +0.000 A 
ATOM     13  F   UNL     1       8.762   7.360  18.522  0.00  0.00    +0.000 F 
ATOM     14  C   UNL     1       7.190   5.751  19.196  0.00  0.00    +0.000 A 
ATOM     15  C   UNL     1       5.945   5.145  19.015  0.00  0.00    +0.000 A 
ATOM     16  F   UNL     1       5.647   4.138  19.842  0.00  0.00    +0.000 F 
ENDBRANCH   7   8
ENDBRANCH   1   3
BRANCH   1  17
ATOM     17  N   UNL     1       2.784   6.278  19.909  0.00  0.00    +0.000 N 
ATOM     18  H   UNL     1       3.747   6.391  20.198  0.00  0.00    +0.000 HD
BRANCH  17  22
ATOM     19  C   UNL     1       0.878  10.035  19.291  0.00  0.00    +0.000 A 
ATOM     20  C   UNL     1       1.524   9.366  18.246  0.00  0.00    +0.000 A 
ATOM     21  C   UNL     1       2.117   8.107  18.471  0.00  0.00    +0.000 A 
ATOM     22  C   UNL     1       2.107   7.516  19.746  0.00  0.00    +0.000 A 
ATOM     23  C   UNL     1       1.396   8.170  20.755  0.00  0.00    +0.000 A 
ATOM     24  C   UNL     1       0.801   9.417  20.538  0.00  0.00    +0.000 A 
BRANCH  19  25
ATOM     25  C   UNL     1       0.285  11.381  19.045  0.00  0.00    +0.000 C 
ATOM     26  O   UNL     1       0.627  12.396  19.635  0.00  0.00    +0.000 OA
BRANCH  25  27
ATOM     27  O   UNL     1      -0.689  11.296  18.102  0.00  0.00    +0.000 OA
BRANCH  27  29
ATOM     28  C   UNL     1      -2.519   9.922  17.295  0.00  0.00    +0.000 C 
ATOM     29  C   UNL     1      -1.908  10.640  18.483  0.00  0.00    +0.000 C 
ENDBRANCH  27  29
ENDBRANCH  25  27
ENDBRANCH  19  25
ENDBRANCH  17  22
ENDBRANCH   1  17
TORSDOF 7
ENDMDL
MODEL 2
REMARK VINA RESULT:      -7.5      3.935      6.179
REMARK  Name = 
REMARK  8 active torsions:
REMARK  status: ('A' for Active; 'I' for Inactive)
REMARK    1  A    between atoms: C_1  and  C_2
REMARK    2  A    between atoms: C_2  and  O_3
REMARK    3  A    between atoms: O_3  and  C_4
REMARK    4  A    between atoms: C_4  and  C_6
REMARK    5  A    between atoms: C_9  and  N_10
REMARK    6  A    between atoms: N_10  and  C_11
REMARK    7  A    between atoms: C_11  and  N_13
REMARK    8  A    between atoms: C_17  and  C_18
REMARK                            x       y       z     vdW  Elec       q    Type
REMARK                         _______ _______ _______ _____ _____    ______ ____
ROOT
ATOM      1  C   UNL     1       6.471   4.340  15.767  0.00  0.00    +0.000 C 
ATOM      2  S   UNL     1       6.742   4.858  14.187  0.00  0.00    +0.000 S 
ENDROOT
BRANCH   1   3
ATOM      3  N   UNL     1       6.928   5.108  16.850  0.00  0.00    +0.000 N 
ATOM      4  C   UNL     1       7.813   4.542  17.880  0.00  0.00    +0.000 C 
ATOM      5  C   UNL     1       8.338   5.626  18.818  0.00  0.00    +0.000 C 
ATOM      6  S   UNL     1       7.634   7.192  18.257  0.00  0.00    +0.000 S 
ATOM      7  C   UNL     1       6.355   6.392  17.240  0.00  0.00    +0.000 C 
BRANCH   7   8
ATOM      8  C   UNL     1       5.020   6.313  17.957  0.00  0.00    +0.000 A 
ATOM      9  C   UNL     1       3.935   7.042  17.455  0.00  0.00    +0.000 A 
ATOM     10  F   UNL     1       4.064   7.717  16.303  0.00  0.00    +0.000 F 
ATOM     11  C   UNL     1       2.714   7.114  18.126  0.00  0.00    +0.000 A 
ATOM     12  C   UNL     1       2.561   6.444  19.328  0.00  0.00    +0.000 A 
ATOM     13  F   UNL     1       1.411   6.542  20.005  0.00  0.00    +0.000 F 
ATOM     14  C   UNL     1       3.590   5.681  19.845  0.00  0.00    +0.000 A 
ATOM     15  C   UNL     1       4.800   5.611  19.152  0.00  0.00    +0.000 A 
ATOM     16  F   UNL     1       5.757   4.856  19.701  0.00  0.00    +0.000 F 
ENDBRANCH   7   8
ENDBRANCH   1   3
BRANCH   1  17
ATOM     17  N   UNL     1       5.824   3.163  16.150  0.00  0.00    +0.000 N 
ATOM     18  H   UNL     1       6.276   2.298  15.881  0.00  0.00    +0.000 HD
BRANCH  17  22
ATOM     19  C   UNL     1       2.127   2.718  18.215  0.00  0.00    +0.000 A 
ATOM     20  C   UNL     1       2.241   3.552  17.097  0.00  0.00    +0.000 A 
ATOM     21  C   UNL     1       3.469   3.654  16.412  0.00  0.00    +0.000 A 
ATOM     22  C   UNL     1       4.607   2.956  16.852  0.00  0.00    +0.000 A 
ATOM     23  C   UNL     1       4.450   2.078  17.926  0.00  0.00    +0.000 A 
ATOM     24  C   UNL     1       3.233   1.968  18.608  0.00  0.00    +0.000 A 
BRANCH  19  25
ATOM     25  C   UNL     1       0.830   2.649  18.948  0.00  0.00    +0.000 C 
ATOM     26  O   UNL     1      -0.131   1.993  18.574  0.00  0.00    +0.000 OA
BRANCH  25  27
ATOM     27  O   UNL     1       0.879   3.432  20.057  0.00  0.00    +0.000 OA
BRANCH  27  29
ATOM     28  C   UNL     1       2.340   3.153  21.974  0.00  0.00    +0.000 C 
ATOM     29  C   UNL     1       1.028   2.766  21.319  0.00  0.00    +0.000 C 
ENDBRANCH  27  29
ENDBRANCH  25  27
ENDBRANCH  19  25
ENDBRANCH  17  22
ENDBRANCH   1  17
TORSDOF 7
ENDMDL
MODEL 3
REMARK VINA RESULT:      -7.4      0.798      1.605
REMARK  Name = 
REMARK  8 active torsions:
REMARK  status: ('A' for Active; 'I' for Inactive)
REMARK    1  A    between atoms: C_1  and  C_2
REMARK    2  A    between atoms: C_2  and  O_3
REMARK    3  A    between atoms: O_3  and  C_4
REMARK    4  A    between atoms: C_4  and  C_6
REMARK    5  A    between atoms: C_9  and  N_10
REMARK    6  A    between atoms: N_10  and  C_11
REMARK    7  A    between atoms: C_11  and  N_13
REMARK    8  A    between atoms: C_17  and  C_18
REMARK                            x       y       z     vdW  Elec       q    Type
REMARK                         _______ _______ _______ _____ _____    ______ ____
ROOT
ATOM      1  C   UNL     1       2.347   5.019  19.728  0.00  0.00    +0.000 C 
ATOM      2  S   UNL     1       1.102   4.290  20.597  0.00  0.00    +0.000 S 
ENDROOT
BRANCH   1   3
ATOM      3  N   UNL     1       3.082   4.276  18.790  0.00  0.00    +0.000 N 
ATOM      4  C   UNL     1       3.474   2.881  19.043  0.00  0.00    +0.000 C 
ATOM      5  C   UNL     1       4.067   2.235  17.794  0.00  0.00    +0.000 C 
ATOM      6  S   UNL     1       4.041   3.487  16.492  0.00  0.00    +0.000 S 
ATOM      7  C   UNL     1       3.785   4.864  17.654  0.00  0.00    +0.000 C 
BRANCH   7   8
ATOM      8  C   UNL     1       5.081   5.575  17.994  0.00  0.00    +0.000 A 
ATOM      9  C   UNL     1       5.498   6.648  17.196  0.00  0.00    +0.000 A 
ATOM     10  F   UNL     1       4.703   7.090  16.210  0.00  0.00    +0.000 F 
ATOM     11  C   UNL     1       6.733   7.270  17.373  0.00  0.00    +0.000 A 
ATOM     12  C   UNL     1       7.581   6.820  18.370  0.00  0.00    +0.000 A 
ATOM     13  F   UNL     1       8.789   7.378  18.522  0.00  0.00    +0.000 F 
ATOM     14  C   UNL     1       7.200   5.790  19.207  0.00  0.00    +0.000 A 
ATOM     15  C   UNL     1       5.954   5.188  19.023  0.00  0.00    +0.000 A 
ATOM     16  F   UNL     1       5.640   4.198  19.864  0.00  0.00    +0.000 F 
ENDBRANCH   7   8
ENDBRANCH   1   3
BRANCH   1  17
ATOM     17  N   UNL     1       2.772   6.344  19.849  0.00  0.00    +0.000 N 
ATOM     18  H   UNL     1       3.736   6.479  20.128  0.00  0.00    +0.000 HD
BRANCH  17  22
ATOM     19  C   UNL     1       0.807  10.058  19.165  0.00  0.00    +0.000 A 
ATOM     20  C   UNL     1       1.521   9.414  18.148  0.00  0.00    +0.000 A 
ATOM     21  C   UNL     1       2.133   8.168  18.394  0.00  0.00    +0.000 A 
ATOM     22  C   UNL     1       2.073   7.566  19.663  0.00  0.00    +0.000 A 
ATOM     23  C   UNL     1       1.298   8.194  20.639  0.00  0.00    +0.000 A 
ATOM     24  C   UNL     1       0.683   9.428  20.402  0.00  0.00    +0.000 A 
BRANCH  19  25
ATOM     25  C   UNL     1       0.194  11.391  18.899  0.00  0.00    +0.000 C 
ATOM     26  O   UNL     1      -0.877  11.549  18.333  0.00  0.00    +0.000 OA
BRANCH  25  27
ATOM     27  O   UNL     1       1.010  12.378  19.352  0.00  0.00    +0.000 OA
BRANCH  27  29
ATOM     28  C   UNL     1       2.986  13.331  18.314  0.00  0.00    +0.000 C 
ATOM     29  C   UNL     1       1.471  13.336  18.387  0.00  0.00    +0.000 C 
ENDBRANCH  27  29
ENDBRANCH  25  27
ENDBRANCH  19  25
ENDBRANCH  17  22
ENDBRANCH   1  17
TORSDOF 7
ENDMDL
MODEL 4
REMARK VINA RESULT:      -7.4      3.288      4.970
REMARK  Name = 
REMARK  8 active torsions:
REMARK  status: ('A' for Active; 'I' for Inactive)
REMARK    1  A    between atoms: C_1  and  C_2
REMARK    2  A    between atoms: C_2  and  O_3
REMARK    3  A    between atoms: O_3  and  C_4
REMARK    4  A    between atoms: C_4  and  C_6
REMARK    5  A    between atoms: C_9  and  N_10
REMARK    6  A    between atoms: N_10  and  C_11
REMARK    7  A    between atoms: C_11  and  N_13
REMARK    8  A    between atoms: C_17  and  C_18
REMARK                            x       y       z     vdW  Elec       q    Type
REMARK                         _______ _______ _______ _____ _____    ______ ____
ROOT
ATOM      1  C   UNL     1       2.263   7.982  19.020  0.00  0.00    +0.000 C 
ATOM      2  S   UNL     1       1.498   8.775  17.746  0.00  0.00    +0.000 S 
ENDROOT
BRANCH   1   3
ATOM      3  N   UNL     1       3.317   7.091  18.765  0.00  0.00    +0.000 N 
ATOM      4  C   UNL     1       4.104   7.157  17.524  0.00  0.00    +0.000 C 
ATOM      5  C   UNL     1       5.318   6.234  17.584  0.00  0.00    +0.000 C 
ATOM      6  S   UNL     1       5.280   5.422  19.197  0.00  0.00    +0.000 S 
ATOM      7  C   UNL     1       3.540   5.855  19.510  0.00  0.00    +0.000 C 
BRANCH   7   8
ATOM      8  C   UNL     1       2.596   4.717  19.171  0.00  0.00    +0.000 A 
ATOM      9  C   UNL     1       1.620   4.343  20.103  0.00  0.00    +0.000 A 
ATOM     10  F   UNL     1       1.472   5.054  21.230  0.00  0.00    +0.000 F 
ATOM     11  C   UNL     1       0.799   3.232  19.913  0.00  0.00    +0.000 A 
ATOM     12  C   UNL     1       0.946   2.469  18.767  0.00  0.00    +0.000 A 
ATOM     13  F   UNL     1       0.195   1.374  18.594  0.00  0.00    +0.000 F 
ATOM     14  C   UNL     1       1.868   2.819  17.801  0.00  0.00    +0.000 A 
ATOM     15  C   UNL     1       2.673   3.942  18.003  0.00  0.00    +0.000 A 
ATOM     16  F   UNL     1       3.546   4.231  17.033  0.00  0.00    +0.000 F 
ENDBRANCH   7   8
ENDBRANCH   1   3
BRANCH   1  17
ATOM     17  N   UNL     1       1.943   8.097  20.375  0.00  0.00    +0.000 N 
ATOM     18  H   UNL     1       2.381   7.427  20.994  0.00  0.00    +0.000 HD
BRANCH  17  22
ATOM     19  C   UNL     1      -0.517  10.935  22.380  0.00  0.00    +0.000 A 
ATOM     20  C   UNL     1       0.311  11.312  21.317  0.00  0.00    +0.000 A 
ATOM     21  C   UNL     1       1.090  10.344  20.649  0.00  0.00    +0.000 A 
ATOM     22  C   UNL     1       1.081   8.999  21.054  0.00  0.00    +0.000 A 
ATOM     23  C   UNL     1       0.195   8.636  22.070  0.00  0.00    +0.000 A 
ATOM     24  C   UNL     1      -0.584   9.589  22.734  0.00  0.00    +0.000 A 
BRANCH  19  25
ATOM     25  C   UNL     1      -1.308  11.976  23.098  0.00  0.00    +0.000 C 
ATOM     26  O   UNL     1      -0.883  13.089  23.370  0.00  0.00    +0.000 OA
BRANCH  25  27
ATOM     27  O   UNL     1      -2.536  11.491  23.417  0.00  0.00    +0.000 OA
BRANCH  27  29
ATOM     28  C   UNL     1      -4.350  12.464  24.702  0.00  0.00    +0.000 C 
ATOM     29  C   UNL     1      -3.634  12.414  23.366  0.00  0.00    +0.000 C 
ENDBRANCH  27  29
ENDBRANCH  25  27
ENDBRANCH  19  25
ENDBRANCH  17  22
ENDBRANCH   1  17
TORSDOF 7
ENDMDL
MODEL 5
REMARK VINA RESULT:      -7.4      0.788      1.748
REMARK  Name = 
REMARK  8 active torsions:
REMARK  status: ('A' for Active; 'I' for Inactive)
REMARK    1  A    between atoms: C_1  and  C_2
REMARK    2  A    between atoms: C_2  and  O_3
REMARK    3  A    between atoms: O_3  and  C_4
REMARK    4  A    between atoms: C_4  and  C_6
REMARK    5  A    between atoms: C_9  and  N_10
REMARK    6  A    between atoms: N_10  and  C_11
REMARK    7  A    between atoms: C_11  and  N_13
REMARK    8  A    between atoms: C_17  and  C_18
REMARK                            x       y       z     vdW  Elec       q    Type
REMARK                         _______ _______ _______ _____ _____    ______ ____
ROOT
ATOM      1  C   UNL     1       2.351   4.939  19.753  0.00  0.00    +0.000 C 
ATOM      2  S   UNL     1       1.094   4.197  20.594  0.00  0.00    +0.000 S 
ENDROOT
BRANCH   1   3
ATOM      3  N   UNL     1       3.074   4.222  18.786  0.00  0.00    +0.000 N 
ATOM      4  C   UNL     1       3.470   2.822  18.998  0.00  0.00    +0.000 C 
ATOM      5  C   UNL     1       4.048   2.209  17.724  0.00  0.00    +0.000 C 
ATOM      6  S   UNL     1       4.004   3.495  16.456  0.00  0.00    +0.000 S 
ATOM      7  C   UNL     1       3.762   4.841  17.657  0.00  0.00    +0.000 C 
BRANCH   7   8
ATOM      8  C   UNL     1       5.062   5.545  17.999  0.00  0.00    +0.000 A 
ATOM      9  C   UNL     1       5.473   6.630  17.215  0.00  0.00    +0.000 A 
ATOM     10  F   UNL     1       4.672   7.089  16.243  0.00  0.00    +0.000 F 
ATOM     11  C   UNL     1       6.711   7.248  17.393  0.00  0.00    +0.000 A 
ATOM     12  C   UNL     1       7.566   6.780  18.376  0.00  0.00    +0.000 A 
ATOM     13  F   UNL     1       8.776   7.334  18.529  0.00  0.00    +0.000 F 
ATOM     14  C   UNL     1       7.190   5.736  19.200  0.00  0.00    +0.000 A 
ATOM     15  C   UNL     1       5.942   5.139  19.015  0.00  0.00    +0.000 A 
ATOM     16  F   UNL     1       5.633   4.136  19.842  0.00  0.00    +0.000 F 
ENDBRANCH   7   8
ENDBRANCH   1   3
BRANCH   1  17
ATOM     17  N   UNL     1       2.796   6.252  19.925  0.00  0.00    +0.000 N 
ATOM     18  H   UNL     1       3.716   6.361  20.333  0.00  0.00    +0.000 HD
BRANCH  17  22
ATOM     19  C   UNL     1       0.779   9.928  19.185  0.00  0.00    +0.000 A 
ATOM     20  C   UNL     1       0.745   9.319  20.444  0.00  0.00    +0.000 A 
ATOM     21  C   UNL     1       1.450   8.119  20.670  0.00  0.00    +0.000 A 
ATOM     22  C   UNL     1       2.168   7.493  19.637  0.00  0.00    +0.000 A 
ATOM     23  C   UNL     1       2.245   8.155  18.410  0.00  0.00    +0.000 A 
ATOM     24  C   UNL     1       1.552   9.349  18.180  0.00  0.00    +0.000 A 
BRANCH  19  25
ATOM     25  C   UNL     1       0.000  11.178  18.953  0.00  0.00    +0.000 C 
ATOM     26  O   UNL     1      -1.217  11.251  19.041  0.00  0.00    +0.000 OA
BRANCH  25  27
ATOM     27  O   UNL     1       0.837  12.193  18.610  0.00  0.00    +0.000 OA
BRANCH  27  29
ATOM     28  C   UNL     1       0.897  13.316  20.760  0.00  0.00    +0.000 C 
ATOM     29  C   UNL     1       1.705  12.696  19.637  0.00  0.00    +0.000 C 
ENDBRANCH  27  29
ENDBRANCH  25  27
ENDBRANCH  19  25
ENDBRANCH  17  22
ENDBRANCH   1  17
TORSDOF 7
ENDMDL
MODEL 6
REMARK VINA RESULT:      -7.3      0.847      1.356
REMARK  Name = 
REMARK  8 active torsions:
REMARK  status: ('A' for Active; 'I' for Inactive)
REMARK    1  A    between atoms: C_1  and  C_2
REMARK    2  A    between atoms: C_2  and  O_3
REMARK    3  A    between atoms: O_3  and  C_4
REMARK    4  A    between atoms: C_4  and  C_6
REMARK    5  A    between atoms: C_9  and  N_10
REMARK    6  A    between atoms: N_10  and  C_11
REMARK    7  A    between atoms: C_11  and  N_13
REMARK    8  A    between atoms: C_17  and  C_18
REMARK                            x       y       z     vdW  Elec       q    Type
REMARK                         _______ _______ _______ _____ _____    ______ ____
ROOT
ATOM      1  C   UNL     1       2.334   4.930  19.746  0.00  0.00    +0.000 C 
ATOM      2  S   UNL     1       1.064   4.194  20.572  0.00  0.00    +0.000 S 
ENDROOT
BRANCH   1   3
ATOM      3  N   UNL     1       3.062   4.209  18.785  0.00  0.00    +0.000 N 
ATOM      4  C   UNL     1       3.468   2.813  19.009  0.00  0.00    +0.000 C 
ATOM      5  C   UNL     1       4.051   2.194  17.741  0.00  0.00    +0.000 C 
ATOM      6  S   UNL     1       3.999   3.468  16.463  0.00  0.00    +0.000 S 
ATOM      7  C   UNL     1       3.747   4.823  17.651  0.00  0.00    +0.000 C 
BRANCH   7   8
ATOM      8  C   UNL     1       5.043   5.537  17.988  0.00  0.00    +0.000 A 
ATOM      9  C   UNL     1       5.439   6.630  17.208  0.00  0.00    +0.000 A 
ATOM     10  F   UNL     1       4.626   7.087  16.243  0.00  0.00    +0.000 F 
ATOM     11  C   UNL     1       6.671   7.259  17.381  0.00  0.00    +0.000 A 
ATOM     12  C   UNL     1       7.537   6.795  18.356  0.00  0.00    +0.000 A 
ATOM     13  F   UNL     1       8.742   7.360  18.503  0.00  0.00    +0.000 F 
ATOM     14  C   UNL     1       7.177   5.744  19.177  0.00  0.00    +0.000 A 
ATOM     15  C   UNL     1       5.933   5.135  18.996  0.00  0.00    +0.000 A 
ATOM     16  F   UNL     1       5.639   4.125  19.820  0.00  0.00    +0.000 F 
ENDBRANCH   7   8
ENDBRANCH   1   3
BRANCH   1  17
ATOM     17  N   UNL     1       2.786   6.239  19.924  0.00  0.00    +0.000 N 
ATOM     18  H   UNL     1       3.722   6.341  20.297  0.00  0.00    +0.000 HD
BRANCH  17  22
ATOM     19  C   UNL     1       0.740   9.926  19.332  0.00  0.00    +0.000 A 
ATOM     20  C   UNL     1       0.738   9.284  20.575  0.00  0.00    +0.000 A 
ATOM     21  C   UNL     1       1.452   8.081  20.751  0.00  0.00    +0.000 A 
ATOM     22  C   UNL     1       2.147   7.485  19.684  0.00  0.00    +0.000 A 
ATOM     23  C   UNL     1       2.192   8.180  18.475  0.00  0.00    +0.000 A 
ATOM     24  C   UNL     1       1.489   9.377  18.293  0.00  0.00    +0.000 A 
BRANCH  19  25
ATOM     25  C   UNL     1      -0.049  11.179  19.152  0.00  0.00    +0.000 C 
ATOM     26  O   UNL     1       0.360  12.163  18.555  0.00  0.00    +0.000 OA
BRANCH  25  27
ATOM     27  O   UNL     1      -1.255  11.063  19.767  0.00  0.00    +0.000 OA
BRANCH  27  29
ATOM     28  C   UNL     1      -2.906  12.788  20.198  0.00  0.00    +0.000 C 
ATOM     29  C   UNL     1      -1.630  12.115  20.668  0.00  0.00    +0.000 C 
ENDBRANCH  27  29
ENDBRANCH  25  27
ENDBRANCH  19  25
ENDBRANCH  17  22
ENDBRANCH   1  17
TORSDOF 7
ENDMDL
MODEL 7
REMARK VINA RESULT:      -7.3      4.636      8.312
REMARK  Name = 
REMARK  8 active torsions:
REMARK  status: ('A' for Active; 'I' for Inactive)
REMARK    1  A    between atoms: C_1  and  C_2
REMARK    2  A    between atoms: C_2  and  O_3
REMARK    3  A    between atoms: O_3  and  C_4
REMARK    4  A    between atoms: C_4  and  C_6
REMARK    5  A    between atoms: C_9  and  N_10
REMARK    6  A    between atoms: N_10  and  C_11
REMARK    7  A    between atoms: C_11  and  N_13
REMARK    8  A    between atoms: C_17  and  C_18
REMARK                            x       y       z     vdW  Elec       q    Type
REMARK                         _______ _______ _______ _____ _____    ______ ____
ROOT
ATOM      1  C   UNL     1       0.887   9.282  21.235  0.00  0.00    +0.000 C 
ATOM      2  S   UNL     1      -0.453   8.985  22.211  0.00  0.00    +0.000 S 
ENDROOT
BRANCH   1   3
ATOM      3  N   UNL     1       1.026  10.518  20.584  0.00  0.00    +0.000 N 
ATOM      4  C   UNL     1       1.135  11.779  21.332  0.00  0.00    +0.000 C 
ATOM      5  C   UNL     1       1.494  12.943  20.411  0.00  0.00    +0.000 C 
ATOM      6  S   UNL     1       1.635  12.267  18.742  0.00  0.00    +0.000 S 
ATOM      7  C   UNL     1       0.766  10.724  19.162  0.00  0.00    +0.000 C 
BRANCH   7   8
ATOM      8  C   UNL     1      -0.699  10.768  18.772  0.00  0.00    +0.000 A 
ATOM      9  C   UNL     1      -1.145   9.967  17.713  0.00  0.00    +0.000 A 
ATOM     10  F   UNL     1      -0.298   9.108  17.128  0.00  0.00    +0.000 F 
ATOM     11  C   UNL     1      -2.448  10.044  17.221  0.00  0.00    +0.000 A 
ATOM     12  C   UNL     1      -3.337  10.937  17.794  0.00  0.00    +0.000 A 
ATOM     13  F   UNL     1      -4.577  11.054  17.303  0.00  0.00    +0.000 F 
ATOM     14  C   UNL     1      -2.956  11.722  18.865  0.00  0.00    +0.000 A 
ATOM     15  C   UNL     1      -1.651  11.622  19.352  0.00  0.00    +0.000 A 
ATOM     16  F   UNL     1      -1.341  12.404  20.391  0.00  0.00    +0.000 F 
ENDBRANCH   7   8
ENDBRANCH   1   3
BRANCH   1  17
ATOM     17  N   UNL     1       1.927   8.389  20.968  0.00  0.00    +0.000 N 
ATOM     18  H   UNL     1       2.813   8.590  21.415  0.00  0.00    +0.000 HD
BRANCH  17  22
ATOM     19  C   UNL     1       2.091   4.811  18.665  0.00  0.00    +0.000 A 
ATOM     20  C   UNL     1       1.628   4.807  19.986  0.00  0.00    +0.000 A 
ATOM     21  C   UNL     1       1.552   6.012  20.713  0.00  0.00    +0.000 A 
ATOM     22  C   UNL     1       1.970   7.229  20.149  0.00  0.00    +0.000 A 
ATOM     23  C   UNL     1       2.362   7.218  18.809  0.00  0.00    +0.000 A 
ATOM     24  C   UNL     1       2.435   6.027  18.078  0.00  0.00    +0.000 A 
BRANCH  19  25
ATOM     25  C   UNL     1       2.197   3.523  17.921  0.00  0.00    +0.000 C 
ATOM     26  O   UNL     1       2.254   3.441  16.703  0.00  0.00    +0.000 OA
BRANCH  25  27
ATOM     27  O   UNL     1       2.192   2.480  18.791  0.00  0.00    +0.000 OA
BRANCH  27  29
ATOM     28  C   UNL     1       4.365   2.197  19.833  0.00  0.00    +0.000 C 
ATOM     29  C   UNL     1       3.368   1.657  18.826  0.00  0.00    +0.000 C 
ENDBRANCH  27  29
ENDBRANCH  25  27
ENDBRANCH  19  25
ENDBRANCH  17  22
ENDBRANCH   1  17
TORSDOF 7
ENDMDL
MODEL 8
REMARK VINA RESULT:      -7.2      3.175      5.000
REMARK  Name = 
REMARK  8 active torsions:
REMARK  status: ('A' for Active; 'I' for Inactive)
REMARK    1  A    between atoms: C_1  and  C_2
REMARK    2  A    between atoms: C_2  and  O_3
REMARK    3  A    between atoms: O_3  and  C_4
REMARK    4  A    between atoms: C_4  and  C_6
REMARK    5  A    between atoms: C_9  and  N_10
REMARK    6  A    between atoms: N_10  and  C_11
REMARK    7  A    between atoms: C_11  and  N_13
REMARK    8  A    between atoms: C_17  and  C_18
REMARK                            x       y       z     vdW  Elec       q    Type
REMARK                         _______ _______ _______ _____ _____    ______ ____
ROOT
ATOM      1  C   UNL     1       2.316   7.980  18.846  0.00  0.00    +0.000 C 
ATOM      2  S   UNL     1       1.861   9.075  17.650  0.00  0.00    +0.000 S 
ENDROOT
BRANCH   1   3
ATOM      3  N   UNL     1       3.368   7.080  18.615  0.00  0.00    +0.000 N 
ATOM      4  C   UNL     1       4.153   7.108  17.371  0.00  0.00    +0.000 C 
ATOM      5  C   UNL     1       5.365   6.183  17.457  0.00  0.00    +0.000 C 
ATOM      6  S   UNL     1       5.327   5.419  19.093  0.00  0.00    +0.000 S 
ATOM      7  C   UNL     1       3.590   5.866  19.396  0.00  0.00    +0.000 C 
BRANCH   7   8
ATOM      8  C   UNL     1       2.642   4.720  19.092  0.00  0.00    +0.000 A 
ATOM      9  C   UNL     1       1.712   4.332  20.064  0.00  0.00    +0.000 A 
ATOM     10  F   UNL     1       1.608   5.034  21.202  0.00  0.00    +0.000 F 
ATOM     11  C   UNL     1       0.894   3.214  19.904  0.00  0.00    +0.000 A 
ATOM     12  C   UNL     1       0.996   2.459  18.748  0.00  0.00    +0.000 A 
ATOM     13  F   UNL     1       0.249   1.358  18.600  0.00  0.00    +0.000 F 
ATOM     14  C   UNL     1       1.872   2.824  17.744  0.00  0.00    +0.000 A 
ATOM     15  C   UNL     1       2.674   3.953  17.917  0.00  0.00    +0.000 A 
ATOM     16  F   UNL     1       3.500   4.257  16.911  0.00  0.00    +0.000 F 
ENDBRANCH   7   8
ENDBRANCH   1   3
BRANCH   1  17
ATOM     17  N   UNL     1       1.728   7.842  20.105  0.00  0.00    +0.000 N 
ATOM     18  H   UNL     1       1.845   6.943  20.556  0.00  0.00    +0.000 HD
BRANCH  17  22
ATOM     19  C   UNL     1      -0.552  10.700  22.288  0.00  0.00    +0.000 A 
ATOM     20  C   UNL     1      -0.586  10.656  20.890  0.00  0.00    +0.000 A 
ATOM     21  C   UNL     1       0.153   9.677  20.194  0.00  0.00    +0.000 A 
ATOM     22  C   UNL     1       0.962   8.754  20.880  0.00  0.00    +0.000 A 
ATOM     23  C   UNL     1       0.924   8.773  22.275  0.00  0.00    +0.000 A 
ATOM     24  C   UNL     1       0.190   9.739  22.973  0.00  0.00    +0.000 A 
BRANCH  19  25
ATOM     25  C   UNL     1      -1.311  11.763  23.007  0.00  0.00    +0.000 C 
ATOM     26  O   UNL     1      -2.496  11.681  23.293  0.00  0.00    +0.000 OA
BRANCH  25  27
ATOM     27  O   UNL     1      -0.500  12.823  23.263  0.00  0.00    +0.000 OA
BRANCH  27  29
ATOM     28  C   UNL     1      -1.211  14.982  24.113  0.00  0.00    +0.000 C 
ATOM     29  C   UNL     1      -0.986  14.120  22.886  0.00  0.00    +0.000 C 
ENDBRANCH  27  29
ENDBRANCH  25  27
ENDBRANCH  19  25
ENDBRANCH  17  22
ENDBRANCH   1  17
TORSDOF 7
ENDMDL
MODEL 9
REMARK VINA RESULT:      -7.2      4.566      8.387
REMARK  Name = 
REMARK  8 active torsions:
REMARK  status: ('A' for Active; 'I' for Inactive)
REMARK    1  A    between atoms: C_1  and  C_2
REMARK    2  A    between atoms: C_2  and  O_3
REMARK    3  A    between atoms: O_3  and  C_4
REMARK    4  A    between atoms: C_4  and  C_6
REMARK    5  A    between atoms: C_9  and  N_10
REMARK    6  A    between atoms: N_10  and  C_11
REMARK    7  A    between atoms: C_11  and  N_13
REMARK    8  A    between atoms: C_17  and  C_18
REMARK                            x       y       z     vdW  Elec       q    Type
REMARK                         _______ _______ _______ _____ _____    ______ ____
ROOT
ATOM      1  C   UNL     1       0.722   9.422  21.026  0.00  0.00    +0.000 C 
ATOM      2  S   UNL     1      -0.500   8.808  22.009  0.00  0.00    +0.000 S 
ENDROOT
BRANCH   1   3
ATOM      3  N   UNL     1       0.673  10.755  20.588  0.00  0.00    +0.000 N 
ATOM      4  C   UNL     1       0.411  11.865  21.517  0.00  0.00    +0.000 C 
ATOM      5  C   UNL     1       0.625  13.218  20.842  0.00  0.00    +0.000 C 
ATOM      6  S   UNL     1       1.122  12.881  19.139  0.00  0.00    +0.000 S 
ATOM      7  C   UNL     1       0.560  11.151  19.188  0.00  0.00    +0.000 C 
BRANCH   7   8
ATOM      8  C   UNL     1      -0.818  10.979  18.577  0.00  0.00    +0.000 A 
ATOM      9  C   UNL     1      -1.014   9.983  17.612  0.00  0.00    +0.000 A 
ATOM     10  F   UNL     1      -0.014   9.140  17.315  0.00  0.00    +0.000 F 
ATOM     11  C   UNL     1      -2.217   9.845  16.920  0.00  0.00    +0.000 A 
ATOM     12  C   UNL     1      -3.258  10.716  17.193  0.00  0.00    +0.000 A 
ATOM     13  F   UNL     1      -4.403  10.624  16.505  0.00  0.00    +0.000 F 
ATOM     14  C   UNL     1      -3.127  11.691  18.162  0.00  0.00    +0.000 A 
ATOM     15  C   UNL     1      -1.919  11.805  18.853  0.00  0.00    +0.000 A 
ATOM     16  F   UNL     1      -1.851  12.765  19.780  0.00  0.00    +0.000 F 
ENDBRANCH   7   8
ENDBRANCH   1   3
BRANCH   1  17
ATOM     17  N   UNL     1       1.832   8.718  20.552  0.00  0.00    +0.000 N 
ATOM     18  H   UNL     1       2.716   9.210  20.582  0.00  0.00    +0.000 HD
BRANCH  17  22
ATOM     19  C   UNL     1       2.124   4.870  18.756  0.00  0.00    +0.000 A 
ATOM     20  C   UNL     1       2.475   6.029  18.055  0.00  0.00    +0.000 A 
ATOM     21  C   UNL     1       2.400   7.287  18.686  0.00  0.00    +0.000 A 
ATOM     22  C   UNL     1       1.942   7.411  20.009  0.00  0.00    +0.000 A 
ATOM     23  C   UNL     1       1.666   6.235  20.709  0.00  0.00    +0.000 A 
ATOM     24  C   UNL     1       1.742   4.982  20.091  0.00  0.00    +0.000 A 
BRANCH  19  25
ATOM     25  C   UNL     1       2.175   3.550  18.063  0.00  0.00    +0.000 C 
ATOM     26  O   UNL     1       2.031   3.406  16.858  0.00  0.00    +0.000 OA
BRANCH  25  27
ATOM     27  O   UNL     1       2.376   2.556  18.967  0.00  0.00    +0.000 OA
BRANCH  27  29
ATOM     28  C   UNL     1       4.462   2.207  20.156  0.00  0.00    +0.000 C 
ATOM     29  C   UNL     1       3.642   1.882  18.922  0.00  0.00    +0.000 C 
ENDBRANCH  27  29
ENDBRANCH  25  27
ENDBRANCH  19  25
ENDBRANCH  17  22
ENDBRANCH   1  17
TORSDOF 7
ENDMDL
