MODEL 1
REMARK VINA RESULT:      -6.7      0.000      0.000
REMARK  Name = 
REMARK  6 active torsions:
REMARK  status: ('A' for Active; 'I' for Inactive)
REMARK    1  A    between atoms: C_1  and  C_2
REMARK    2  A    between atoms: C_2  and  C_3
REMARK    3  A    between atoms: N_5  and  C_6
REMARK    4  A    between atoms: C_11  and  C_13
REMARK    5  A    between atoms: C_15  and  C_16
REMARK    6  A    between atoms: N_17  and  C_18
REMARK                            x       y       z     vdW  Elec       q    Type
REMARK                         _______ _______ _______ _____ _____    ______ ____
ROOT
ATOM      1  C   UNL     1       4.762   6.113  17.112  0.00  0.00    +0.000 A 
ATOM      2  C   UNL     1       5.719   5.305  17.786  0.00  0.00    +0.000 A 
ATOM      3  C   UNL     1       6.607   4.896  16.819  0.00  0.00    +0.000 A 
ATOM      4  C   UNL     1       7.985   4.360  16.974  0.00  0.00    +0.000 C 
ATOM      5  N   UNL     1       6.005   5.204  15.611  0.00  0.00    +0.000 N 
ATOM      6  N   UNL     1       4.941   6.042  15.780  0.00  0.00    +0.000 NA
ENDROOT
BRANCH   1  15
ATOM      7  C   UNL     1       2.388   4.785  18.618  0.00  0.00    +0.000 C 
ATOM      8  C   UNL     1       2.974   4.320  19.972  0.00  0.00    +0.000 C 
ATOM      9  N   UNL     1       2.006   4.336  21.092  0.00  0.00    +0.000 NA
ATOM     10  C   UNL     1       1.298   3.058  21.203  0.00  0.00    +0.000 C 
ATOM     11  C   UNL     1       1.044   5.454  21.088  0.00  0.00    +0.000 C 
ATOM     12  C   UNL     1       1.590   6.832  20.680  0.00  0.00    +0.000 C 
ATOM     13  C   UNL     1       1.674   7.083  19.164  0.00  0.00    +0.000 C 
ATOM     14  N   UNL     1       2.628   6.232  18.442  0.00  0.00    +0.000 N 
ATOM     15  C   UNL     1       3.707   6.877  17.807  0.00  0.00    +0.000 C 
ATOM     16  O   UNL     1       3.748   8.107  17.741  0.00  0.00    +0.000 OA
BRANCH   7  18
ATOM     17  C   UNL     1       3.269   2.530  17.872  0.00  0.00    +0.000 C 
ATOM     18  C   UNL     1       2.599   3.831  17.432  0.00  0.00    +0.000 C 
ENDBRANCH   7  18
ENDBRANCH   1  15
BRANCH   5  19
ATOM     19  C   UNL     1       6.388   4.772  14.314  0.00  0.00    +0.000 A 
ATOM     20  C   UNL     1       7.460   5.393  13.656  0.00  0.00    +0.000 A 
ATOM     21  C   UNL     1       7.850   4.952  12.387  0.00  0.00    +0.000 A 
ATOM     22  C   UNL     1       7.147   3.926  11.757  0.00  0.00    +0.000 A 
ATOM     23  C   UNL     1       6.064   3.340  12.403  0.00  0.00    +0.000 A 
ATOM     24  F   UNL     1       5.369   2.374  11.787  0.00  0.00    +0.000 F 
ATOM     25  C   UNL     1       5.681   3.746  13.675  0.00  0.00    +0.000 A 
ENDBRANCH   5  19
TORSDOF 3
ENDMDL
MODEL 2
REMARK VINA RESULT:      -6.6      4.187      8.232
REMARK  Name = 
REMARK  6 active torsions:
REMARK  status: ('A' for Active; 'I' for Inactive)
REMARK    1  A    between atoms: C_1  and  C_2
REMARK    2  A    between atoms: C_2  and  C_3
REMARK    3  A    between atoms: N_5  and  C_6
REMARK    4  A    between atoms: C_11  and  C_13
REMARK    5  A    between atoms: C_15  and  C_16
REMARK    6  A    between atoms: N_17  and  C_18
REMARK                            x       y       z     vdW  Elec       q    Type
REMARK                         _______ _______ _______ _____ _____    ______ ____
ROOT
ATOM      1  C   UNL     1       2.379   8.092  18.327  0.00  0.00    +0.000 A 
ATOM      2  C   UNL     1       1.273   8.442  17.506  0.00  0.00    +0.000 A 
ATOM      3  C   UNL     1       0.497   9.286  18.266  0.00  0.00    +0.000 A 
ATOM      4  C   UNL     1      -0.556  10.241  17.833  0.00  0.00    +0.000 C 
ATOM      5  N   UNL     1       0.984   9.169  19.557  0.00  0.00    +0.000 N 
ATOM      6  N   UNL     1       2.193   8.537  19.583  0.00  0.00    +0.000 NA
ENDROOT
BRANCH   1  15
ATOM      7  C   UNL     1       2.748   5.053  18.869  0.00  0.00    +0.000 C 
ATOM      8  C   UNL     1       1.820   4.343  17.856  0.00  0.00    +0.000 C 
ATOM      9  N   UNL     1       2.307   3.018  17.409  0.00  0.00    +0.000 NA
ATOM     10  C   UNL     1       1.817   1.948  18.281  0.00  0.00    +0.000 C 
ATOM     11  C   UNL     1       3.765   2.902  17.229  0.00  0.00    +0.000 C 
ATOM     12  C   UNL     1       4.480   4.106  16.593  0.00  0.00    +0.000 C 
ATOM     13  C   UNL     1       4.832   5.248  17.562  0.00  0.00    +0.000 C 
ATOM     14  N   UNL     1       3.682   5.944  18.151  0.00  0.00    +0.000 N 
ATOM     15  C   UNL     1       3.538   7.311  17.846  0.00  0.00    +0.000 C 
ATOM     16  O   UNL     1       4.426   7.913  17.240  0.00  0.00    +0.000 OA
BRANCH   7  18
ATOM     17  C   UNL     1       1.085   4.511  20.701  0.00  0.00    +0.000 C 
ATOM     18  C   UNL     1       2.081   5.539  20.166  0.00  0.00    +0.000 C 
ENDBRANCH   7  18
ENDBRANCH   1  15
BRANCH   5  19
ATOM     19  C   UNL     1       0.385   9.638  20.757  0.00  0.00    +0.000 A 
ATOM     20  C   UNL     1      -0.074   8.723  21.715  0.00  0.00    +0.000 A 
ATOM     21  C   UNL     1      -0.644   9.186  22.906  0.00  0.00    +0.000 A 
ATOM     22  C   UNL     1      -0.798  10.554  23.121  0.00  0.00    +0.000 A 
ATOM     23  C   UNL     1      -0.372  11.453  22.150  0.00  0.00    +0.000 A 
ATOM     24  F   UNL     1      -0.545  12.768  22.342  0.00  0.00    +0.000 F 
ATOM     25  C   UNL     1       0.223  11.011  20.974  0.00  0.00    +0.000 A 
ENDBRANCH   5  19
TORSDOF 3
ENDMDL
MODEL 3
REMARK VINA RESULT:      -6.6      3.353      7.506
REMARK  Name = 
REMARK  6 active torsions:
REMARK  status: ('A' for Active; 'I' for Inactive)
REMARK    1  A    between atoms: C_1  and  C_2
REMARK    2  A    between atoms: C_2  and  C_3
REMARK    3  A    between atoms: N_5  and  C_6
REMARK    4  A    between atoms: C_11  and  C_13
REMARK    5  A    between atoms: C_15  and  C_16
REMARK    6  A    between atoms: N_17  and  C_18
REMARK                            x       y       z     vdW  Elec       q    Type
REMARK                         _______ _______ _______ _____ _____    ______ ____
ROOT
ATOM      1  C   UNL     1       4.293   5.556  19.458  0.00  0.00    +0.000 A 
ATOM      2  C   UNL     1       3.418   4.683  20.159  0.00  0.00    +0.000 A 
ATOM      3  C   UNL     1       2.211   5.340  20.224  0.00  0.00    +0.000 A 
ATOM      4  C   UNL     1       0.856   4.792  20.497  0.00  0.00    +0.000 C 
ATOM      5  N   UNL     1       2.482   6.644  19.850  0.00  0.00    +0.000 N 
ATOM      6  N   UNL     1       3.714   6.757  19.276  0.00  0.00    +0.000 NA
ENDROOT
BRANCH   1  15
ATOM      7  C   UNL     1       4.929   4.111  16.779  0.00  0.00    +0.000 C 
ATOM      8  C   UNL     1       4.879   5.216  15.699  0.00  0.00    +0.000 C 
ATOM      9  N   UNL     1       5.794   4.993  14.556  0.00  0.00    +0.000 NA
ATOM     10  C   UNL     1       5.142   4.223  13.494  0.00  0.00    +0.000 C 
ATOM     11  C   UNL     1       7.099   4.396  14.892  0.00  0.00    +0.000 C 
ATOM     12  C   UNL     1       7.776   4.895  16.180  0.00  0.00    +0.000 C 
ATOM     13  C   UNL     1       7.293   4.225  17.478  0.00  0.00    +0.000 C 
ATOM     14  N   UNL     1       5.893   4.487  17.833  0.00  0.00    +0.000 N 
ATOM     15  C   UNL     1       5.658   5.178  19.038  0.00  0.00    +0.000 C 
ATOM     16  O   UNL     1       6.585   5.406  19.818  0.00  0.00    +0.000 OA
BRANCH   7  18
ATOM     17  C   UNL     1       3.754   2.102  17.781  0.00  0.00    +0.000 C 
ATOM     18  C   UNL     1       3.578   3.493  17.173  0.00  0.00    +0.000 C 
ENDBRANCH   7  18
ENDBRANCH   1  15
BRANCH   5  19
ATOM     19  C   UNL     1       1.638   7.779  19.983  0.00  0.00    +0.000 A 
ATOM     20  C   UNL     1       1.506   8.683  18.919  0.00  0.00    +0.000 A 
ATOM     21  C   UNL     1       0.657   9.789  19.044  0.00  0.00    +0.000 A 
ATOM     22  C   UNL     1      -0.022  10.017  20.240  0.00  0.00    +0.000 A 
ATOM     23  C   UNL     1       0.143   9.134  21.301  0.00  0.00    +0.000 A 
ATOM     24  F   UNL     1      -0.486   9.367  22.461  0.00  0.00    +0.000 F 
ATOM     25  C   UNL     1       0.959   8.015  21.184  0.00  0.00    +0.000 A 
ENDBRANCH   5  19
TORSDOF 3
ENDMDL
MODEL 4
REMARK VINA RESULT:      -6.5      4.142      8.228
REMARK  Name = 
REMARK  6 active torsions:
REMARK  status: ('A' for Active; 'I' for Inactive)
REMARK    1  A    between atoms: C_1  and  C_2
REMARK    2  A    between atoms: C_2  and  C_3
REMARK    3  A    between atoms: N_5  and  C_6
REMARK    4  A    between atoms: C_11  and  C_13
REMARK    5  A    between atoms: C_15  and  C_16
REMARK    6  A    between atoms: N_17  and  C_18
REMARK                            x       y       z     vdW  Elec       q    Type
REMARK                         _______ _______ _______ _____ _____    ______ ____
ROOT
ATOM      1  C   UNL     1       2.240   8.269  18.308  0.00  0.00    +0.000 A 
ATOM      2  C   UNL     1       1.097   8.512  17.499  0.00  0.00    +0.000 A 
ATOM      3  C   UNL     1       0.304   9.372  18.223  0.00  0.00    +0.000 A 
ATOM      4  C   UNL     1      -0.803  10.248  17.757  0.00  0.00    +0.000 C 
ATOM      5  N   UNL     1       0.831   9.368  19.503  0.00  0.00    +0.000 N 
ATOM      6  N   UNL     1       2.067   8.793  19.536  0.00  0.00    +0.000 NA
ENDROOT
BRANCH   1  15
ATOM      7  C   UNL     1       2.662   5.242  18.876  0.00  0.00    +0.000 C 
ATOM      8  C   UNL     1       1.761   4.507  17.857  0.00  0.00    +0.000 C 
ATOM      9  N   UNL     1       2.279   3.189  17.426  0.00  0.00    +0.000 NA
ATOM     10  C   UNL     1       1.800   2.115  18.299  0.00  0.00    +0.000 C 
ATOM     11  C   UNL     1       3.742   3.101  17.264  0.00  0.00    +0.000 C 
ATOM     12  C   UNL     1       4.440   4.314  16.628  0.00  0.00    +0.000 C 
ATOM     13  C   UNL     1       4.758   5.470  17.593  0.00  0.00    +0.000 C 
ATOM     14  N   UNL     1       3.587   6.147  18.163  0.00  0.00    +0.000 N 
ATOM     15  C   UNL     1       3.419   7.509  17.846  0.00  0.00    +0.000 C 
ATOM     16  O   UNL     1       4.303   8.124  17.247  0.00  0.00    +0.000 OA
BRANCH   7  18
ATOM     17  C   UNL     1       1.861   4.601  21.193  0.00  0.00    +0.000 C 
ATOM     18  C   UNL     1       1.970   5.724  20.161  0.00  0.00    +0.000 C 
ENDBRANCH   7  18
ENDBRANCH   1  15
BRANCH   5  19
ATOM     19  C   UNL     1       0.243   9.892  20.686  0.00  0.00    +0.000 A 
ATOM     20  C   UNL     1      -0.490  11.086  20.634  0.00  0.00    +0.000 A 
ATOM     21  C   UNL     1      -1.086  11.590  21.795  0.00  0.00    +0.000 A 
ATOM     22  C   UNL     1      -0.914  10.931  23.011  0.00  0.00    +0.000 A 
ATOM     23  C   UNL     1      -0.156   9.766  23.059  0.00  0.00    +0.000 A 
ATOM     24  F   UNL     1       0.034   9.147  24.232  0.00  0.00    +0.000 F 
ATOM     25  C   UNL     1       0.418   9.236  21.910  0.00  0.00    +0.000 A 
ENDBRANCH   5  19
TORSDOF 3
ENDMDL
MODEL 5
REMARK VINA RESULT:      -6.5      2.941      7.367
REMARK  Name = 
REMARK  6 active torsions:
REMARK  status: ('A' for Active; 'I' for Inactive)
REMARK    1  A    between atoms: C_1  and  C_2
REMARK    2  A    between atoms: C_2  and  C_3
REMARK    3  A    between atoms: N_5  and  C_6
REMARK    4  A    between atoms: C_11  and  C_13
REMARK    5  A    between atoms: C_15  and  C_16
REMARK    6  A    between atoms: N_17  and  C_18
REMARK                            x       y       z     vdW  Elec       q    Type
REMARK                         _______ _______ _______ _____ _____    ______ ____
ROOT
ATOM      1  C   UNL     1       4.305   5.551  19.471  0.00  0.00    +0.000 A 
ATOM      2  C   UNL     1       3.422   4.671  20.154  0.00  0.00    +0.000 A 
ATOM      3  C   UNL     1       2.220   5.336  20.231  0.00  0.00    +0.000 A 
ATOM      4  C   UNL     1       0.861   4.794  20.492  0.00  0.00    +0.000 C 
ATOM      5  N   UNL     1       2.502   6.646  19.883  0.00  0.00    +0.000 N 
ATOM      6  N   UNL     1       3.735   6.761  19.312  0.00  0.00    +0.000 NA
ENDROOT
BRANCH   1  15
ATOM      7  C   UNL     1       4.927   4.118  16.783  0.00  0.00    +0.000 C 
ATOM      8  C   UNL     1       4.876   5.229  15.708  0.00  0.00    +0.000 C 
ATOM      9  N   UNL     1       5.787   5.009  14.561  0.00  0.00    +0.000 NA
ATOM     10  C   UNL     1       5.129   4.247  13.497  0.00  0.00    +0.000 C 
ATOM     11  C   UNL     1       7.091   4.406  14.890  0.00  0.00    +0.000 C 
ATOM     12  C   UNL     1       7.774   4.896  16.177  0.00  0.00    +0.000 C 
ATOM     13  C   UNL     1       7.294   4.221  17.474  0.00  0.00    +0.000 C 
ATOM     14  N   UNL     1       5.896   4.486  17.835  0.00  0.00    +0.000 N 
ATOM     15  C   UNL     1       5.667   5.171  19.045  0.00  0.00    +0.000 C 
ATOM     16  O   UNL     1       6.597   5.392  19.823  0.00  0.00    +0.000 OA
BRANCH   7  18
ATOM     17  C   UNL     1       3.749   2.110  17.780  0.00  0.00    +0.000 C 
ATOM     18  C   UNL     1       3.575   3.503  17.177  0.00  0.00    +0.000 C 
ENDBRANCH   7  18
ENDBRANCH   1  15
BRANCH   5  19
ATOM     19  C   UNL     1       1.667   7.785  20.038  0.00  0.00    +0.000 A 
ATOM     20  C   UNL     1       1.010   8.012  21.257  0.00  0.00    +0.000 A 
ATOM     21  C   UNL     1       0.206   9.145  21.416  0.00  0.00    +0.000 A 
ATOM     22  C   UNL     1       0.019  10.024  20.350  0.00  0.00    +0.000 A 
ATOM     23  C   UNL     1       0.646   9.772  19.135  0.00  0.00    +0.000 A 
ATOM     24  F   UNL     1       0.445  10.601  18.101  0.00  0.00    +0.000 F 
ATOM     25  C   UNL     1       1.472   8.667  18.969  0.00  0.00    +0.000 A 
ENDBRANCH   5  19
TORSDOF 3
ENDMDL
MODEL 6
REMARK VINA RESULT:      -6.3      3.914      7.376
REMARK  Name = 
REMARK  6 active torsions:
REMARK  status: ('A' for Active; 'I' for Inactive)
REMARK    1  A    between atoms: C_1  and  C_2
REMARK    2  A    between atoms: C_2  and  C_3
REMARK    3  A    between atoms: N_5  and  C_6
REMARK    4  A    between atoms: C_11  and  C_13
REMARK    5  A    between atoms: C_15  and  C_16
REMARK    6  A    between atoms: N_17  and  C_18
REMARK                            x       y       z     vdW  Elec       q    Type
REMARK                         _______ _______ _______ _____ _____    ______ ____
ROOT
ATOM      1  C   UNL     1       2.410   7.824  18.563  0.00  0.00    +0.000 A 
ATOM      2  C   UNL     1       2.247   8.137  19.940  0.00  0.00    +0.000 A 
ATOM      3  C   UNL     1       1.061   8.829  20.026  0.00  0.00    +0.000 A 
ATOM      4  C   UNL     1       0.205   9.083  21.215  0.00  0.00    +0.000 C 
ATOM      5  N   UNL     1       0.730   9.156  18.722  0.00  0.00    +0.000 N 
ATOM      6  N   UNL     1       1.480   8.455  17.823  0.00  0.00    +0.000 NA
ENDROOT
BRANCH   1  15
ATOM      7  C   UNL     1       2.565   4.767  19.112  0.00  0.00    +0.000 C 
ATOM      8  C   UNL     1       1.549   4.127  18.137  0.00  0.00    +0.000 C 
ATOM      9  N   UNL     1       1.917   2.767  17.683  0.00  0.00    +0.000 NA
ATOM     10  C   UNL     1       1.378   1.741  18.579  0.00  0.00    +0.000 C 
ATOM     11  C   UNL     1       3.355   2.539  17.452  0.00  0.00    +0.000 C 
ATOM     12  C   UNL     1       4.137   3.681  16.783  0.00  0.00    +0.000 C 
ATOM     13  C   UNL     1       4.610   4.797  17.731  0.00  0.00    +0.000 C 
ATOM     14  N   UNL     1       3.537   5.582  18.356  0.00  0.00    +0.000 N 
ATOM     15  C   UNL     1       3.487   6.955  18.046  0.00  0.00    +0.000 C 
ATOM     16  O   UNL     1       4.397   7.485  17.406  0.00  0.00    +0.000 OA
BRANCH   7  18
ATOM     17  C   UNL     1       2.089   4.278  21.552  0.00  0.00    +0.000 C 
ATOM     18  C   UNL     1       1.983   5.308  20.428  0.00  0.00    +0.000 C 
ENDBRANCH   7  18
ENDBRANCH   1  15
BRANCH   5  19
ATOM     19  C   UNL     1      -0.263  10.071  18.281  0.00  0.00    +0.000 A 
ATOM     20  C   UNL     1      -0.202  11.415  18.677  0.00  0.00    +0.000 A 
ATOM     21  C   UNL     1      -1.169  12.320  18.224  0.00  0.00    +0.000 A 
ATOM     22  C   UNL     1      -2.216  11.878  17.418  0.00  0.00    +0.000 A 
ATOM     23  C   UNL     1      -2.287  10.536  17.060  0.00  0.00    +0.000 A 
ATOM     24  F   UNL     1      -3.309  10.104  16.309  0.00  0.00    +0.000 F 
ATOM     25  C   UNL     1      -1.320   9.630  17.476  0.00  0.00    +0.000 A 
ENDBRANCH   5  19
TORSDOF 3
ENDMDL
MODEL 7
REMARK VINA RESULT:      -6.3      3.728      6.338
REMARK  Name = 
REMARK  6 active torsions:
REMARK  status: ('A' for Active; 'I' for Inactive)
REMARK    1  A    between atoms: C_1  and  C_2
REMARK    2  A    between atoms: C_2  and  C_3
REMARK    3  A    between atoms: N_5  and  C_6
REMARK    4  A    between atoms: C_11  and  C_13
REMARK    5  A    between atoms: C_15  and  C_16
REMARK    6  A    between atoms: N_17  and  C_18
REMARK                            x       y       z     vdW  Elec       q    Type
REMARK                         _______ _______ _______ _____ _____    ______ ____
ROOT
ATOM      1  C   UNL     1       1.545   7.790  20.743  0.00  0.00    +0.000 A 
ATOM      2  C   UNL     1       0.656   6.690  20.889  0.00  0.00    +0.000 A 
ATOM      3  C   UNL     1       1.336   5.596  20.407  0.00  0.00    +0.000 A 
ATOM      4  C   UNL     1       1.074   4.150  20.636  0.00  0.00    +0.000 C 
ATOM      5  N   UNL     1       2.435   6.110  19.740  0.00  0.00    +0.000 N 
ATOM      6  N   UNL     1       2.631   7.427  20.035  0.00  0.00    +0.000 NA
ENDROOT
BRANCH   1  15
ATOM      7  C   UNL     1       0.348  10.094  19.033  0.00  0.00    +0.000 C 
ATOM      8  C   UNL     1      -1.166   9.790  18.945  0.00  0.00    +0.000 C 
ATOM      9  N   UNL     1      -2.023  10.994  18.848  0.00  0.00    +0.000 NA
ATOM     10  C   UNL     1      -2.238  11.385  17.453  0.00  0.00    +0.000 C 
ATOM     11  C   UNL     1      -1.583  12.156  19.641  0.00  0.00    +0.000 C 
ATOM     12  C   UNL     1      -1.030  11.863  21.046  0.00  0.00    +0.000 C 
ATOM     13  C   UNL     1       0.451  11.446  21.095  0.00  0.00    +0.000 C 
ATOM     14  N   UNL     1       0.760  10.164  20.450  0.00  0.00    +0.000 N 
ATOM     15  C   UNL     1       1.266   9.140  21.274  0.00  0.00    +0.000 C 
ATOM     16  O   UNL     1       1.572   9.373  22.444  0.00  0.00    +0.000 OA
BRANCH   7  18
ATOM     17  C   UNL     1       2.511  10.154  17.716  0.00  0.00    +0.000 C 
ATOM     18  C   UNL     1       1.240   9.362  18.018  0.00  0.00    +0.000 C 
ENDBRANCH   7  18
ENDBRANCH   1  15
BRANCH   5  19
ATOM     19  C   UNL     1       3.317   5.424  18.863  0.00  0.00    +0.000 A 
ATOM     20  C   UNL     1       2.808   4.742  17.748  0.00  0.00    +0.000 A 
ATOM     21  C   UNL     1       3.680   4.086  16.873  0.00  0.00    +0.000 A 
ATOM     22  C   UNL     1       5.050   4.071  17.132  0.00  0.00    +0.000 A 
ATOM     23  C   UNL     1       5.541   4.721  18.258  0.00  0.00    +0.000 A 
ATOM     24  F   UNL     1       6.854   4.683  18.525  0.00  0.00    +0.000 F 
ATOM     25  C   UNL     1       4.693   5.402  19.122  0.00  0.00    +0.000 A 
ENDBRANCH   5  19
TORSDOF 3
ENDMDL
MODEL 8
REMARK VINA RESULT:      -6.3      7.153     10.161
REMARK  Name = 
REMARK  6 active torsions:
REMARK  status: ('A' for Active; 'I' for Inactive)
REMARK    1  A    between atoms: C_1  and  C_2
REMARK    2  A    between atoms: C_2  and  C_3
REMARK    3  A    between atoms: N_5  and  C_6
REMARK    4  A    between atoms: C_11  and  C_13
REMARK    5  A    between atoms: C_15  and  C_16
REMARK    6  A    between atoms: N_17  and  C_18
REMARK                            x       y       z     vdW  Elec       q    Type
REMARK                         _______ _______ _______ _____ _____    ______ ____
ROOT
ATOM      1  C   UNL     1      -0.415  13.105  19.056  0.00  0.00    +0.000 A 
ATOM      2  C   UNL     1      -1.324  12.497  18.148  0.00  0.00    +0.000 A 
ATOM      3  C   UNL     1      -1.161  11.141  18.311  0.00  0.00    +0.000 A 
ATOM      4  C   UNL     1      -2.071  10.031  17.920  0.00  0.00    +0.000 C 
ATOM      5  N   UNL     1      -0.000  10.996  19.050  0.00  0.00    +0.000 N 
ATOM      6  N   UNL     1       0.395  12.179  19.602  0.00  0.00    +0.000 NA
ENDROOT
BRANCH   1  15
ATOM      7  C   UNL     1      -1.599  14.444  21.600  0.00  0.00    +0.000 C 
ATOM      8  C   UNL     1      -0.556  14.191  22.715  0.00  0.00    +0.000 C 
ATOM      9  N   UNL     1      -0.494  15.256  23.742  0.00  0.00    +0.000 NA
ATOM     10  C   UNL     1      -1.420  14.989  24.845  0.00  0.00    +0.000 C 
ATOM     11  C   UNL     1      -0.674  16.632  23.246  0.00  0.00    +0.000 C 
ATOM     12  C   UNL     1       0.002  16.978  21.908  0.00  0.00    +0.000 C 
ATOM     13  C   UNL     1      -0.785  16.571  20.650  0.00  0.00    +0.000 C 
ATOM     14  N   UNL     1      -0.953  15.125  20.460  0.00  0.00    +0.000 N 
ATOM     15  C   UNL     1      -0.367  14.559  19.311  0.00  0.00    +0.000 C 
ATOM     16  O   UNL     1       0.125  15.280  18.441  0.00  0.00    +0.000 OA
BRANCH   7  18
ATOM     17  C   UNL     1      -2.589  12.284  22.479  0.00  0.00    +0.000 C 
ATOM     18  C   UNL     1      -2.593  13.301  21.338  0.00  0.00    +0.000 C 
ENDBRANCH   7  18
ENDBRANCH   1  15
BRANCH   5  19
ATOM     19  C   UNL     1       0.739   9.805  19.282  0.00  0.00    +0.000 A 
ATOM     20  C   UNL     1       0.712   9.197  20.545  0.00  0.00    +0.000 A 
ATOM     21  C   UNL     1       1.423   8.013  20.766  0.00  0.00    +0.000 A 
ATOM     22  C   UNL     1       2.195   7.461  19.744  0.00  0.00    +0.000 A 
ATOM     23  C   UNL     1       2.244   8.091  18.506  0.00  0.00    +0.000 A 
ATOM     24  F   UNL     1       3.008   7.578  17.532  0.00  0.00    +0.000 F 
ATOM     25  C   UNL     1       1.521   9.251  18.261  0.00  0.00    +0.000 A 
ENDBRANCH   5  19
TORSDOF 3
ENDMDL
MODEL 9
REMARK VINA RESULT:      -6.2      3.795      6.436
REMARK  Name = 
REMARK  6 active torsions:
REMARK  status: ('A' for Active; 'I' for Inactive)
REMARK    1  A    between atoms: C_1  and  C_2
REMARK    2  A    between atoms: C_2  and  C_3
REMARK    3  A    between atoms: N_5  and  C_6
REMARK    4  A    between atoms: C_11  and  C_13
REMARK    5  A    between atoms: C_15  and  C_16
REMARK    6  A    between atoms: N_17  and  C_18
REMARK                            x       y       z     vdW  Elec       q    Type
REMARK                         _______ _______ _______ _____ _____    ______ ____
ROOT
ATOM      1  C   UNL     1       1.443   8.092  20.842  0.00  0.00    +0.000 A 
ATOM      2  C   UNL     1       0.642   6.920  20.908  0.00  0.00    +0.000 A 
ATOM      3  C   UNL     1       1.428   5.904  20.415  0.00  0.00    +0.000 A 
ATOM      4  C   UNL     1       1.276   4.434  20.577  0.00  0.00    +0.000 C 
ATOM      5  N   UNL     1       2.507   6.532  19.816  0.00  0.00    +0.000 N 
ATOM      6  N   UNL     1       2.582   7.848  20.168  0.00  0.00    +0.000 NA
ENDROOT
BRANCH   1  15
ATOM      7  C   UNL     1       0.202  10.391  19.156  0.00  0.00    +0.000 C 
ATOM      8  C   UNL     1      -1.277   9.990  18.948  0.00  0.00    +0.000 C 
ATOM      9  N   UNL     1      -2.210  11.135  18.844  0.00  0.00    +0.000 NA
ATOM     10  C   UNL     1      -2.358  11.578  17.456  0.00  0.00    +0.000 C 
ATOM     11  C   UNL     1      -1.908  12.284  19.718  0.00  0.00    +0.000 C 
ATOM     12  C   UNL     1      -1.430  11.961  21.143  0.00  0.00    +0.000 C 
ATOM     13  C   UNL     1       0.070  11.644  21.278  0.00  0.00    +0.000 C 
ATOM     14  N   UNL     1       0.513  10.419  20.600  0.00  0.00    +0.000 N 
ATOM     15  C   UNL     1       1.033   9.393  21.411  0.00  0.00    +0.000 C 
ATOM     16  O   UNL     1       1.243   9.589  22.610  0.00  0.00    +0.000 OA
BRANCH   7  18
ATOM     17  C   UNL     1       2.371  10.724  17.890  0.00  0.00    +0.000 C 
ATOM     18  C   UNL     1       1.210   9.772  18.175  0.00  0.00    +0.000 C 
ENDBRANCH   7  18
ENDBRANCH   1  15
BRANCH   5  19
ATOM     19  C   UNL     1       3.477   5.956  18.952  0.00  0.00    +0.000 A 
ATOM     20  C   UNL     1       4.251   4.873  19.391  0.00  0.00    +0.000 A 
ATOM     21  C   UNL     1       5.190   4.293  18.531  0.00  0.00    +0.000 A 
ATOM     22  C   UNL     1       5.389   4.819  17.256  0.00  0.00    +0.000 A 
ATOM     23  C   UNL     1       4.641   5.916  16.843  0.00  0.00    +0.000 A 
ATOM     24  F   UNL     1       4.852   6.441  15.628  0.00  0.00    +0.000 F 
ATOM     25  C   UNL     1       3.684   6.486  17.673  0.00  0.00    +0.000 A 
ENDBRANCH   5  19
TORSDOF 3
ENDMDL
