MODEL 1
REMARK VINA RESULT:      -8.8      0.000      0.000
REMARK  Name = 
REMARK  10 active torsions:
REMARK  status: ('A' for Active; 'I' for Inactive)
REMARK    1  A    between atoms: C_1  and  C_2
REMARK    2  A    between atoms: C_2  and  C_3
REMARK    3  A    between atoms: C_2  and  C_4
REMARK    4  A    between atoms: C_4  and  N_5
REMARK    5  A    between atoms: C_4  and  C_31
REMARK    6  A    between atoms: N_5  and  S_6
REMARK    7  A    between atoms: S_6  and  C_9
REMARK    8  A    between atoms: C_19  and  N_20
REMARK    9  A    between atoms: N_23  and  C_24
REMARK   10  A    between atoms: C_31  and  O_33
REMARK                            x       y       z     vdW  Elec       q    Type
REMARK                         _______ _______ _______ _____ _____    ______ ____
ROOT
ATOM      1  C   UNL     1       3.615   5.588  18.676  0.00  0.00    +0.000 A 
ATOM      2  C   UNL     1       3.562   6.502  17.614  0.00  0.00    +0.000 A 
ATOM      3  C   UNL     1       2.828   7.692  17.726  0.00  0.00    +0.000 A 
ATOM      4  C   UNL     1       2.136   7.957  18.921  0.00  0.00    +0.000 A 
ATOM      5  C   UNL     1       2.207   7.020  19.949  0.00  0.00    +0.000 A 
ATOM      6  C   UNL     1       2.928   5.824  19.877  0.00  0.00    +0.000 A 
ATOM      7  O   UNL     1       1.460   7.436  21.013  0.00  0.00    +0.000 OA
ATOM      8  C   UNL     1       0.910   8.637  20.675  0.00  0.00    +0.000 A 
ATOM      9  C   UNL     1       0.076   9.404  21.481  0.00  0.00    +0.000 A 
ATOM     10  C   UNL     1      -0.377  10.620  20.945  0.00  0.00    +0.000 A 
ATOM     11  C   UNL     1      -0.019  11.047  19.658  0.00  0.00    +0.000 A 
ATOM     12  C   UNL     1       0.831  10.243  18.879  0.00  0.00    +0.000 A 
ATOM     13  C   UNL     1       1.300   9.012  19.395  0.00  0.00    +0.000 A 
ENDROOT
BRANCH  11  14
ATOM     14  N   UNL     1      -0.446  12.284  19.112  0.00  0.00    +0.000 N 
ATOM     15  C   UNL     1      -0.165  13.536  19.617  0.00  0.00    +0.000 C 
ATOM     16  O   UNL     1       0.382  13.770  20.687  0.00  0.00    +0.000 OA
ATOM     17  N   UNL     1      -0.533  14.550  18.754  0.00  0.00    +0.000 N 
ATOM     18  H   UNL     1      -1.082  12.243  18.331  0.00  0.00    +0.000 HD
ATOM     19  H   UNL     1      -1.232  14.358  18.054  0.00  0.00    +0.000 HD
BRANCH  17  20
ATOM     20  C   UNL     1      -0.312  15.932  19.138  0.00  0.00    +0.000 C 
ATOM     21  C   UNL     1      -0.205  16.884  17.955  0.00  0.00    +0.000 C 
ATOM     22  C   UNL     1      -0.389  18.254  18.595  0.00  0.00    +0.000 C 
ATOM     23  C   UNL     1      -1.332  18.034  19.778  0.00  0.00    +0.000 C 
ATOM     24  C   UNL     1      -1.463  16.521  19.951  0.00  0.00    +0.000 C 
ENDBRANCH  17  20
ENDBRANCH  11  14
BRANCH   1  25
ATOM     25  S   UNL     1       4.380   4.004  18.405  0.00  0.00    +0.000 S 
ATOM     26  O   UNL     1       3.794   3.403  17.230  0.00  0.00    +0.000 OA
ATOM     27  O   UNL     1       4.408   3.310  19.671  0.00  0.00    +0.000 OA
BRANCH  25  28
ATOM     28  N   UNL     1       5.986   4.305  18.041  0.00  0.00    +0.000 NA
ATOM     29  H   UNL     1       6.671   3.683  18.470  0.00  0.00    +0.000 HD
BRANCH  28  30
ATOM     30  C   UNL     1       6.371   5.312  17.032  0.00  0.00    +0.000 C 
BRANCH  30  32
ATOM     31  C   UNL     1       7.893   5.971  19.027  0.00  0.00    +0.000 C 
ATOM     32  C   UNL     1       7.482   6.252  17.574  0.00  0.00    +0.000 C 
ATOM     33  C   UNL     1       7.106   7.729  17.426  0.00  0.00    +0.000 C 
ENDBRANCH  30  32
BRANCH  30  34
ATOM     34  C   UNL     1       6.848   4.706  15.708  0.00  0.00    +0.000 C 
ATOM     35  O   UNL     1       6.381   3.683  15.226  0.00  0.00    +0.000 OA
BRANCH  34  36
ATOM     36  O   UNL     1       7.749   5.470  15.045  0.00  0.00    +0.000 OA
ATOM     37  H   UNL     1       7.577   6.422  15.187  0.00  0.00    +0.000 HD
ENDBRANCH  34  36
ENDBRANCH  30  34
ENDBRANCH  28  30
ENDBRANCH  25  28
ENDBRANCH   1  25
TORSDOF 8
ENDMDL
MODEL 2
REMARK VINA RESULT:      -8.7      3.551      5.038
REMARK  Name = 
REMARK  10 active torsions:
REMARK  status: ('A' for Active; 'I' for Inactive)
REMARK    1  A    between atoms: C_1  and  C_2
REMARK    2  A    between atoms: C_2  and  C_3
REMARK    3  A    between atoms: C_2  and  C_4
REMARK    4  A    between atoms: C_4  and  N_5
REMARK    5  A    between atoms: C_4  and  C_31
REMARK    6  A    between atoms: N_5  and  S_6
REMARK    7  A    between atoms: S_6  and  C_9
REMARK    8  A    between atoms: C_19  and  N_20
REMARK    9  A    between atoms: N_23  and  C_24
REMARK   10  A    between atoms: C_31  and  O_33
REMARK                            x       y       z     vdW  Elec       q    Type
REMARK                         _______ _______ _______ _____ _____    ______ ____
ROOT
ATOM      1  C   UNL     1       2.758   6.989  18.881  0.00  0.00    +0.000 A 
ATOM      2  C   UNL     1       2.174   6.849  20.148  0.00  0.00    +0.000 A 
ATOM      3  C   UNL     1       1.323   7.838  20.662  0.00  0.00    +0.000 A 
ATOM      4  C   UNL     1       1.064   8.984  19.888  0.00  0.00    +0.000 A 
ATOM      5  C   UNL     1       1.670   9.090  18.639  0.00  0.00    +0.000 A 
ATOM      6  C   UNL     1       2.522   8.125  18.091  0.00  0.00    +0.000 A 
ATOM      7  O   UNL     1       1.322  10.270  18.049  0.00  0.00    +0.000 OA
ATOM      8  C   UNL     1       0.494  10.924  18.913  0.00  0.00    +0.000 A 
ATOM      9  C   UNL     1      -0.088  12.168  18.697  0.00  0.00    +0.000 A 
ATOM     10  C   UNL     1      -0.920  12.662  19.713  0.00  0.00    +0.000 A 
ATOM     11  C   UNL     1      -1.154  11.948  20.898  0.00  0.00    +0.000 A 
ATOM     12  C   UNL     1      -0.551  10.691  21.073  0.00  0.00    +0.000 A 
ATOM     13  C   UNL     1       0.293  10.172  20.064  0.00  0.00    +0.000 A 
ENDROOT
BRANCH  11  14
ATOM     14  N   UNL     1      -2.013  12.422  21.923  0.00  0.00    +0.000 N 
ATOM     15  C   UNL     1      -3.351  12.724  21.787  0.00  0.00    +0.000 C 
ATOM     16  O   UNL     1      -3.974  12.761  20.733  0.00  0.00    +0.000 OA
ATOM     17  N   UNL     1      -3.968  12.952  23.002  0.00  0.00    +0.000 N 
ATOM     18  H   UNL     1      -1.588  12.634  22.812  0.00  0.00    +0.000 HD
ATOM     19  H   UNL     1      -3.399  13.214  23.791  0.00  0.00    +0.000 HD
BRANCH  17  20
ATOM     20  C   UNL     1      -5.379  13.291  23.035  0.00  0.00    +0.000 C 
ATOM     21  C   UNL     1      -6.148  12.592  24.148  0.00  0.00    +0.000 C 
ATOM     22  C   UNL     1      -7.441  13.394  24.231  0.00  0.00    +0.000 C 
ATOM     23  C   UNL     1      -7.065  14.827  23.854  0.00  0.00    +0.000 C 
ATOM     24  C   UNL     1      -5.636  14.771  23.316  0.00  0.00    +0.000 C 
ENDBRANCH  17  20
ENDBRANCH  11  14
BRANCH   1  25
ATOM     25  S   UNL     1       3.991   5.812  18.371  0.00  0.00    +0.000 S 
ATOM     26  O   UNL     1       5.071   5.829  19.329  0.00  0.00    +0.000 OA
ATOM     27  O   UNL     1       4.233   6.015  16.962  0.00  0.00    +0.000 OA
BRANCH  25  28
ATOM     28  N   UNL     1       3.280   4.300  18.474  0.00  0.00    +0.000 NA
ATOM     29  H   UNL     1       2.845   3.946  17.622  0.00  0.00    +0.000 HD
BRANCH  28  30
ATOM     30  C   UNL     1       3.418   3.465  19.684  0.00  0.00    +0.000 C 
BRANCH  30  32
ATOM     31  C   UNL     1       2.104   2.418  21.661  0.00  0.00    +0.000 C 
ATOM     32  C   UNL     1       2.071   3.360  20.449  0.00  0.00    +0.000 C 
ATOM     33  C   UNL     1       0.917   2.963  19.524  0.00  0.00    +0.000 C 
ENDBRANCH  30  32
BRANCH  30  34
ATOM     34  C   UNL     1       3.931   2.050  19.400  0.00  0.00    +0.000 C 
ATOM     35  O   UNL     1       3.455   1.318  18.543  0.00  0.00    +0.000 OA
BRANCH  34  36
ATOM     36  O   UNL     1       5.046   1.717  20.095  0.00  0.00    +0.000 OA
ATOM     37  H   UNL     1       4.850   1.609  21.046  0.00  0.00    +0.000 HD
ENDBRANCH  34  36
ENDBRANCH  30  34
ENDBRANCH  28  30
ENDBRANCH  25  28
ENDBRANCH   1  25
TORSDOF 8
ENDMDL
MODEL 3
REMARK VINA RESULT:      -8.4      3.111      4.499
REMARK  Name = 
REMARK  10 active torsions:
REMARK  status: ('A' for Active; 'I' for Inactive)
REMARK    1  A    between atoms: C_1  and  C_2
REMARK    2  A    between atoms: C_2  and  C_3
REMARK    3  A    between atoms: C_2  and  C_4
REMARK    4  A    between atoms: C_4  and  N_5
REMARK    5  A    between atoms: C_4  and  C_31
REMARK    6  A    between atoms: N_5  and  S_6
REMARK    7  A    between atoms: S_6  and  C_9
REMARK    8  A    between atoms: C_19  and  N_20
REMARK    9  A    between atoms: N_23  and  C_24
REMARK   10  A    between atoms: C_31  and  O_33
REMARK                            x       y       z     vdW  Elec       q    Type
REMARK                         _______ _______ _______ _____ _____    ______ ____
ROOT
ATOM      1  C   UNL     1       3.112   6.479  18.731  0.00  0.00    +0.000 A 
ATOM      2  C   UNL     1       2.558   6.359  20.013  0.00  0.00    +0.000 A 
ATOM      3  C   UNL     1       1.714   7.353  20.529  0.00  0.00    +0.000 A 
ATOM      4  C   UNL     1       1.432   8.484  19.742  0.00  0.00    +0.000 A 
ATOM      5  C   UNL     1       2.008   8.570  18.477  0.00  0.00    +0.000 A 
ATOM      6  C   UNL     1       2.852   7.600  17.927  0.00  0.00    +0.000 A 
ATOM      7  O   UNL     1       1.640   9.738  17.875  0.00  0.00    +0.000 OA
ATOM      8  C   UNL     1       0.830  10.404  18.746  0.00  0.00    +0.000 A 
ATOM      9  C   UNL     1       0.237  11.641  18.522  0.00  0.00    +0.000 A 
ATOM     10  C   UNL     1      -0.574  12.149  19.548  0.00  0.00    +0.000 A 
ATOM     11  C   UNL     1      -0.778  11.455  20.750  0.00  0.00    +0.000 A 
ATOM     12  C   UNL     1      -0.164  10.204  20.934  0.00  0.00    +0.000 A 
ATOM     13  C   UNL     1       0.659   9.671  19.914  0.00  0.00    +0.000 A 
ENDROOT
BRANCH  11  14
ATOM     14  N   UNL     1      -1.615  11.942  21.786  0.00  0.00    +0.000 N 
ATOM     15  C   UNL     1      -2.023  13.248  21.956  0.00  0.00    +0.000 C 
ATOM     16  O   UNL     1      -1.617  14.214  21.320  0.00  0.00    +0.000 OA
ATOM     17  N   UNL     1      -3.002  13.376  22.921  0.00  0.00    +0.000 N 
ATOM     18  H   UNL     1      -1.870  11.291  22.512  0.00  0.00    +0.000 HD
ATOM     19  H   UNL     1      -3.091  12.654  23.618  0.00  0.00    +0.000 HD
BRANCH  17  20
ATOM     20  C   UNL     1      -3.536  14.691  23.228  0.00  0.00    +0.000 C 
ATOM     21  C   UNL     1      -5.041  14.698  23.460  0.00  0.00    +0.000 C 
ATOM     22  C   UNL     1      -5.279  16.039  24.144  0.00  0.00    +0.000 C 
ATOM     23  C   UNL     1      -4.016  16.317  24.959  0.00  0.00    +0.000 C 
ATOM     24  C   UNL     1      -2.985  15.275  24.528  0.00  0.00    +0.000 C 
ENDBRANCH  17  20
ENDBRANCH  11  14
BRANCH   1  25
ATOM     25  S   UNL     1       4.339   5.299  18.213  0.00  0.00    +0.000 S 
ATOM     26  O   UNL     1       5.389   5.259  19.203  0.00  0.00    +0.000 OA
ATOM     27  O   UNL     1       4.627   5.550  16.821  0.00  0.00    +0.000 OA
BRANCH  25  28
ATOM     28  N   UNL     1       3.598   3.797  18.237  0.00  0.00    +0.000 NA
ATOM     29  H   UNL     1       3.358   3.398  17.330  0.00  0.00    +0.000 HD
BRANCH  28  30
ATOM     30  C   UNL     1       3.450   3.032  19.491  0.00  0.00    +0.000 C 
BRANCH  30  32
ATOM     31  C   UNL     1       1.000   3.082  18.638  0.00  0.00    +0.000 C 
ATOM     32  C   UNL     1       1.993   2.524  19.669  0.00  0.00    +0.000 C 
ATOM     33  C   UNL     1       1.464   2.784  21.082  0.00  0.00    +0.000 C 
ENDBRANCH  30  32
BRANCH  30  34
ATOM     34  C   UNL     1       4.401   1.836  19.598  0.00  0.00    +0.000 C 
ATOM     35  O   UNL     1       5.180   1.671  20.526  0.00  0.00    +0.000 OA
BRANCH  34  36
ATOM     36  O   UNL     1       4.218   0.899  18.635  0.00  0.00    +0.000 OA
ATOM     37  H   UNL     1       3.626   0.186  18.944  0.00  0.00    +0.000 HD
ENDBRANCH  34  36
ENDBRANCH  30  34
ENDBRANCH  28  30
ENDBRANCH  25  28
ENDBRANCH   1  25
TORSDOF 8
ENDMDL
MODEL 4
REMARK VINA RESULT:      -8.3      2.692      3.234
REMARK  Name = 
REMARK  10 active torsions:
REMARK  status: ('A' for Active; 'I' for Inactive)
REMARK    1  A    between atoms: C_1  and  C_2
REMARK    2  A    between atoms: C_2  and  C_3
REMARK    3  A    between atoms: C_2  and  C_4
REMARK    4  A    between atoms: C_4  and  N_5
REMARK    5  A    between atoms: C_4  and  C_31
REMARK    6  A    between atoms: N_5  and  S_6
REMARK    7  A    between atoms: S_6  and  C_9
REMARK    8  A    between atoms: C_19  and  N_20
REMARK    9  A    between atoms: N_23  and  C_24
REMARK   10  A    between atoms: C_31  and  O_33
REMARK                            x       y       z     vdW  Elec       q    Type
REMARK                         _______ _______ _______ _____ _____    ______ ____
ROOT
ATOM      1  C   UNL     1       3.281   4.760  19.124  0.00  0.00    +0.000 A 
ATOM      2  C   UNL     1       2.739   4.740  20.417  0.00  0.00    +0.000 A 
ATOM      3  C   UNL     1       2.050   5.850  20.926  0.00  0.00    +0.000 A 
ATOM      4  C   UNL     1       1.913   6.995  20.121  0.00  0.00    +0.000 A 
ATOM      5  C   UNL     1       2.473   6.979  18.846  0.00  0.00    +0.000 A 
ATOM      6  C   UNL     1       3.166   5.893  18.303  0.00  0.00    +0.000 A 
ATOM      7  O   UNL     1       2.260   8.177  18.227  0.00  0.00    +0.000 OA
ATOM      8  C   UNL     1       1.565   8.963  19.098  0.00  0.00    +0.000 A 
ATOM      9  C   UNL     1       1.145  10.266  18.858  0.00  0.00    +0.000 A 
ATOM     10  C   UNL     1       0.430  10.899  19.887  0.00  0.00    +0.000 A 
ATOM     11  C   UNL     1       0.153  10.261  21.105  0.00  0.00    +0.000 A 
ATOM     12  C   UNL     1       0.591   8.941  21.303  0.00  0.00    +0.000 A 
ATOM     13  C   UNL     1       1.315   8.281  20.283  0.00  0.00    +0.000 A 
ENDROOT
BRANCH  11  14
ATOM     14  N   UNL     1      -0.590  10.877  22.144  0.00  0.00    +0.000 N 
ATOM     15  C   UNL     1      -1.183  12.121  22.092  0.00  0.00    +0.000 C 
ATOM     16  O   UNL     1      -1.048  12.942  21.193  0.00  0.00    +0.000 OA
ATOM     17  N   UNL     1      -2.015  12.356  23.169  0.00  0.00    +0.000 N 
ATOM     18  H   UNL     1      -0.619  10.398  23.030  0.00  0.00    +0.000 HD
ATOM     19  H   UNL     1      -1.875  11.823  24.013  0.00  0.00    +0.000 HD
BRANCH  17  20
ATOM     20  C   UNL     1      -2.713  13.625  23.271  0.00  0.00    +0.000 C 
ATOM     21  C   UNL     1      -4.178  13.485  23.660  0.00  0.00    +0.000 C 
ATOM     22  C   UNL     1      -4.557  14.897  24.091  0.00  0.00    +0.000 C 
ATOM     23  C   UNL     1      -3.288  15.501  24.692  0.00  0.00    +0.000 C 
ATOM     24  C   UNL     1      -2.151  14.534  24.363  0.00  0.00    +0.000 C 
ENDBRANCH  17  20
ENDBRANCH  11  14
BRANCH   1  25
ATOM     25  S   UNL     1       4.324   3.413  18.611  0.00  0.00    +0.000 S 
ATOM     26  O   UNL     1       3.914   2.986  17.294  0.00  0.00    +0.000 OA
ATOM     27  O   UNL     1       4.410   2.482  19.711  0.00  0.00    +0.000 OA
BRANCH  25  28
ATOM     28  N   UNL     1       5.870   4.039  18.453  0.00  0.00    +0.000 NA
ATOM     29  H   UNL     1       6.622   3.496  18.876  0.00  0.00    +0.000 HD
BRANCH  28  30
ATOM     30  C   UNL     1       6.139   5.222  17.612  0.00  0.00    +0.000 C 
BRANCH  30  32
ATOM     31  C   UNL     1       7.580   7.378  17.521  0.00  0.00    +0.000 C 
ATOM     32  C   UNL     1       6.925   6.304  18.402  0.00  0.00    +0.000 C 
ATOM     33  C   UNL     1       7.979   5.686  19.325  0.00  0.00    +0.000 C 
ENDBRANCH  30  32
BRANCH  30  34
ATOM     34  C   UNL     1       6.908   4.901  16.326  0.00  0.00    +0.000 C 
ATOM     35  O   UNL     1       7.977   4.307  16.309  0.00  0.00    +0.000 OA
BRANCH  34  36
ATOM     36  O   UNL     1       6.240   5.218  15.191  0.00  0.00    +0.000 OA
ATOM     37  H   UNL     1       5.855   4.422  14.773  0.00  0.00    +0.000 HD
ENDBRANCH  34  36
ENDBRANCH  30  34
ENDBRANCH  28  30
ENDBRANCH  25  28
ENDBRANCH   1  25
TORSDOF 8
ENDMDL
MODEL 5
REMARK VINA RESULT:      -8.3      0.821      1.103
REMARK  Name = 
REMARK  10 active torsions:
REMARK  status: ('A' for Active; 'I' for Inactive)
REMARK    1  A    between atoms: C_1  and  C_2
REMARK    2  A    between atoms: C_2  and  C_3
REMARK    3  A    between atoms: C_2  and  C_4
REMARK    4  A    between atoms: C_4  and  N_5
REMARK    5  A    between atoms: C_4  and  C_31
REMARK    6  A    between atoms: N_5  and  S_6
REMARK    7  A    between atoms: S_6  and  C_9
REMARK    8  A    between atoms: C_19  and  N_20
REMARK    9  A    between atoms: N_23  and  C_24
REMARK   10  A    between atoms: C_31  and  O_33
REMARK                            x       y       z     vdW  Elec       q    Type
REMARK                         _______ _______ _______ _____ _____    ______ ____
ROOT
ATOM      1  C   UNL     1       3.617   5.509  18.667  0.00  0.00    +0.000 A 
ATOM      2  C   UNL     1       3.539   6.431  17.614  0.00  0.00    +0.000 A 
ATOM      3  C   UNL     1       2.799   7.615  17.747  0.00  0.00    +0.000 A 
ATOM      4  C   UNL     1       2.126   7.866  18.957  0.00  0.00    +0.000 A 
ATOM      5  C   UNL     1       2.222   6.922  19.976  0.00  0.00    +0.000 A 
ATOM      6  C   UNL     1       2.950   5.731  19.882  0.00  0.00    +0.000 A 
ATOM      7  O   UNL     1       1.491   7.325  21.056  0.00  0.00    +0.000 OA
ATOM      8  C   UNL     1       0.926   8.524  20.736  0.00  0.00    +0.000 A 
ATOM      9  C   UNL     1       0.102   9.280  21.562  0.00  0.00    +0.000 A 
ATOM     10  C   UNL     1      -0.368  10.496  21.044  0.00  0.00    +0.000 A 
ATOM     11  C   UNL     1      -0.036  10.935  19.753  0.00  0.00    +0.000 A 
ATOM     12  C   UNL     1       0.806  10.143  18.954  0.00  0.00    +0.000 A 
ATOM     13  C   UNL     1       1.292   8.912  19.453  0.00  0.00    +0.000 A 
ENDROOT
BRANCH  11  14
ATOM     14  N   UNL     1      -0.482  12.174  19.224  0.00  0.00    +0.000 N 
ATOM     15  C   UNL     1       0.094  13.406  19.446  0.00  0.00    +0.000 C 
ATOM     16  O   UNL     1       0.997  13.644  20.240  0.00  0.00    +0.000 OA
ATOM     17  N   UNL     1      -0.428  14.390  18.629  0.00  0.00    +0.000 N 
ATOM     18  H   UNL     1      -1.346  12.164  18.706  0.00  0.00    +0.000 HD
ATOM     19  H   UNL     1      -1.341  14.248  18.226  0.00  0.00    +0.000 HD
BRANCH  17  20
ATOM     20  C   UNL     1       0.065  15.750  18.741  0.00  0.00    +0.000 C 
ATOM     21  C   UNL     1      -0.224  16.394  20.090  0.00  0.00    +0.000 C 
ATOM     22  C   UNL     1       0.712  17.596  20.107  0.00  0.00    +0.000 C 
ATOM     23  C   UNL     1       1.943  17.174  19.305  0.00  0.00    +0.000 C 
ATOM     24  C   UNL     1       1.585  15.850  18.630  0.00  0.00    +0.000 C 
ENDBRANCH  17  20
ENDBRANCH  11  14
BRANCH   1  25
ATOM     25  S   UNL     1       4.387   3.932  18.371  0.00  0.00    +0.000 S 
ATOM     26  O   UNL     1       3.772   3.326  17.215  0.00  0.00    +0.000 OA
ATOM     27  O   UNL     1       4.461   3.237  19.635  0.00  0.00    +0.000 OA
BRANCH  25  28
ATOM     28  N   UNL     1       5.979   4.248  17.958  0.00  0.00    +0.000 NA
ATOM     29  H   UNL     1       6.643   3.489  18.106  0.00  0.00    +0.000 HD
BRANCH  28  30
ATOM     30  C   UNL     1       6.362   5.499  17.273  0.00  0.00    +0.000 C 
BRANCH  30  32
ATOM     31  C   UNL     1       7.772   5.812  19.429  0.00  0.00    +0.000 C 
ATOM     32  C   UNL     1       7.611   6.141  17.937  0.00  0.00    +0.000 C 
ATOM     33  C   UNL     1       7.646   7.660  17.741  0.00  0.00    +0.000 C 
ENDBRANCH  30  32
BRANCH  30  34
ATOM     34  C   UNL     1       6.643   5.319  15.778  0.00  0.00    +0.000 C 
ATOM     35  O   UNL     1       5.951   5.809  14.896  0.00  0.00    +0.000 OA
BRANCH  34  36
ATOM     36  O   UNL     1       7.803   4.673  15.508  0.00  0.00    +0.000 OA
ATOM     37  H   UNL     1       8.568   5.279  15.570  0.00  0.00    +0.000 HD
ENDBRANCH  34  36
ENDBRANCH  30  34
ENDBRANCH  28  30
ENDBRANCH  25  28
ENDBRANCH   1  25
TORSDOF 8
ENDMDL
MODEL 6
REMARK VINA RESULT:      -8.2      2.344      2.919
REMARK  Name = 
REMARK  10 active torsions:
REMARK  status: ('A' for Active; 'I' for Inactive)
REMARK    1  A    between atoms: C_1  and  C_2
REMARK    2  A    between atoms: C_2  and  C_3
REMARK    3  A    between atoms: C_2  and  C_4
REMARK    4  A    between atoms: C_4  and  N_5
REMARK    5  A    between atoms: C_4  and  C_31
REMARK    6  A    between atoms: N_5  and  S_6
REMARK    7  A    between atoms: S_6  and  C_9
REMARK    8  A    between atoms: C_19  and  N_20
REMARK    9  A    between atoms: N_23  and  C_24
REMARK   10  A    between atoms: C_31  and  O_33
REMARK                            x       y       z     vdW  Elec       q    Type
REMARK                         _______ _______ _______ _____ _____    ______ ____
ROOT
ATOM      1  C   UNL     1       3.120   5.915  18.670  0.00  0.00    +0.000 A 
ATOM      2  C   UNL     1       2.563   5.877  19.956  0.00  0.00    +0.000 A 
ATOM      3  C   UNL     1       1.857   6.976  20.468  0.00  0.00    +0.000 A 
ATOM      4  C   UNL     1       1.718   8.127  19.672  0.00  0.00    +0.000 A 
ATOM      5  C   UNL     1       2.293   8.129  18.404  0.00  0.00    +0.000 A 
ATOM      6  C   UNL     1       3.003   7.054  17.858  0.00  0.00    +0.000 A 
ATOM      7  O   UNL     1       2.076   9.330  17.794  0.00  0.00    +0.000 OA
ATOM      8  C   UNL     1       1.363  10.101  18.664  0.00  0.00    +0.000 A 
ATOM      9  C   UNL     1       0.933  11.403  18.432  0.00  0.00    +0.000 A 
ATOM     10  C   UNL     1       0.201  12.019  19.457  0.00  0.00    +0.000 A 
ATOM     11  C   UNL     1      -0.084  11.366  20.666  0.00  0.00    +0.000 A 
ATOM     12  C   UNL     1       0.365  10.048  20.857  0.00  0.00    +0.000 A 
ATOM     13  C   UNL     1       1.106   9.405  19.839  0.00  0.00    +0.000 A 
ENDROOT
BRANCH  11  14
ATOM     14  N   UNL     1      -0.846  11.966  21.702  0.00  0.00    +0.000 N 
ATOM     15  C   UNL     1      -0.522  13.118  22.387  0.00  0.00    +0.000 C 
ATOM     16  O   UNL     1       0.537  13.728  22.302  0.00  0.00    +0.000 OA
ATOM     17  N   UNL     1      -1.557  13.569  23.182  0.00  0.00    +0.000 N 
ATOM     18  H   UNL     1      -1.655  11.459  22.024  0.00  0.00    +0.000 HD
ATOM     19  H   UNL     1      -2.268  12.914  23.467  0.00  0.00    +0.000 HD
BRANCH  17  20
ATOM     20  C   UNL     1      -1.377  14.770  23.978  0.00  0.00    +0.000 C 
ATOM     21  C   UNL     1      -1.635  16.056  23.206  0.00  0.00    +0.000 C 
ATOM     22  C   UNL     1      -1.786  17.097  24.308  0.00  0.00    +0.000 C 
ATOM     23  C   UNL     1      -2.403  16.356  25.495  0.00  0.00    +0.000 C 
ATOM     24  C   UNL     1      -2.354  14.868  25.148  0.00  0.00    +0.000 C 
ENDBRANCH  17  20
ENDBRANCH  11  14
BRANCH   1  25
ATOM     25  S   UNL     1       4.182   4.583  18.157  0.00  0.00    +0.000 S 
ATOM     26  O   UNL     1       3.943   4.314  16.758  0.00  0.00    +0.000 OA
ATOM     27  O   UNL     1       4.087   3.540  19.150  0.00  0.00    +0.000 OA
BRANCH  25  28
ATOM     28  N   UNL     1       5.753   5.151  18.275  0.00  0.00    +0.000 NA
ATOM     29  H   UNL     1       6.327   4.741  19.012  0.00  0.00    +0.000 HD
BRANCH  28  30
ATOM     30  C   UNL     1       6.315   6.074  17.269  0.00  0.00    +0.000 C 
BRANCH  30  32
ATOM     31  C   UNL     1       8.058   6.269  19.182  0.00  0.00    +0.000 C 
ATOM     32  C   UNL     1       7.650   6.695  17.764  0.00  0.00    +0.000 C 
ATOM     33  C   UNL     1       7.641   8.223  17.671  0.00  0.00    +0.000 C 
ENDBRANCH  30  32
BRANCH  30  34
ATOM     34  C   UNL     1       6.556   5.422  15.904  0.00  0.00    +0.000 C 
ATOM     35  O   UNL     1       7.390   4.549  15.708  0.00  0.00    +0.000 OA
BRANCH  34  36
ATOM     36  O   UNL     1       5.674   5.805  14.948  0.00  0.00    +0.000 OA
ATOM     37  H   UNL     1       5.419   5.051  14.381  0.00  0.00    +0.000 HD
ENDBRANCH  34  36
ENDBRANCH  30  34
ENDBRANCH  28  30
ENDBRANCH  25  28
ENDBRANCH   1  25
TORSDOF 8
ENDMDL
MODEL 7
REMARK VINA RESULT:      -8.1      2.542      3.788
REMARK  Name = 
REMARK  10 active torsions:
REMARK  status: ('A' for Active; 'I' for Inactive)
REMARK    1  A    between atoms: C_1  and  C_2
REMARK    2  A    between atoms: C_2  and  C_3
REMARK    3  A    between atoms: C_2  and  C_4
REMARK    4  A    between atoms: C_4  and  N_5
REMARK    5  A    between atoms: C_4  and  C_31
REMARK    6  A    between atoms: N_5  and  S_6
REMARK    7  A    between atoms: S_6  and  C_9
REMARK    8  A    between atoms: C_19  and  N_20
REMARK    9  A    between atoms: N_23  and  C_24
REMARK   10  A    between atoms: C_31  and  O_33
REMARK                            x       y       z     vdW  Elec       q    Type
REMARK                         _______ _______ _______ _____ _____    ______ ____
ROOT
ATOM      1  C   UNL     1       3.510   6.374  18.391  0.00  0.00    +0.000 A 
ATOM      2  C   UNL     1       3.221   7.393  17.473  0.00  0.00    +0.000 A 
ATOM      3  C   UNL     1       2.369   8.453  17.817  0.00  0.00    +0.000 A 
ATOM      4  C   UNL     1       1.798   8.478  19.102  0.00  0.00    +0.000 A 
ATOM      5  C   UNL     1       2.103   7.443  19.983  0.00  0.00    +0.000 A 
ATOM      6  C   UNL     1       2.948   6.371  19.678  0.00  0.00    +0.000 A 
ATOM      7  O   UNL     1       1.444   7.625  21.164  0.00  0.00    +0.000 OA
ATOM      8  C   UNL     1       0.717   8.773  21.048  0.00  0.00    +0.000 A 
ATOM      9  C   UNL     1      -0.100   9.320  22.030  0.00  0.00    +0.000 A 
ATOM     10  C   UNL     1      -0.756  10.519  21.712  0.00  0.00    +0.000 A 
ATOM     11  C   UNL     1      -0.608  11.141  20.463  0.00  0.00    +0.000 A 
ATOM     12  C   UNL     1       0.233  10.557  19.500  0.00  0.00    +0.000 A 
ATOM     13  C   UNL     1       0.904   9.347  19.797  0.00  0.00    +0.000 A 
ENDROOT
BRANCH  11  14
ATOM     14  N   UNL     1      -1.243  12.366  20.134  0.00  0.00    +0.000 N 
ATOM     15  C   UNL     1      -2.255  12.974  20.846  0.00  0.00    +0.000 C 
ATOM     16  O   UNL     1      -2.856  12.486  21.796  0.00  0.00    +0.000 OA
ATOM     17  N   UNL     1      -2.518  14.255  20.404  0.00  0.00    +0.000 N 
ATOM     18  H   UNL     1      -0.989  12.790  19.256  0.00  0.00    +0.000 HD
ATOM     19  H   UNL     1      -2.245  14.508  19.467  0.00  0.00    +0.000 HD
BRANCH  17  20
ATOM     20  C   UNL     1      -3.564  15.033  21.043  0.00  0.00    +0.000 C 
ATOM     21  C   UNL     1      -3.388  16.537  20.885  0.00  0.00    +0.000 C 
ATOM     22  C   UNL     1      -4.759  17.086  21.257  0.00  0.00    +0.000 C 
ATOM     23  C   UNL     1      -5.765  16.021  20.820  0.00  0.00    +0.000 C 
ATOM     24  C   UNL     1      -4.948  14.783  20.448  0.00  0.00    +0.000 C 
ENDBRANCH  17  20
ENDBRANCH  11  14
BRANCH   1  25
ATOM     25  S   UNL     1       4.421   4.951  17.834  0.00  0.00    +0.000 S 
ATOM     26  O   UNL     1       5.590   4.795  18.666  0.00  0.00    +0.000 OA
ATOM     27  O   UNL     1       4.527   5.035  16.396  0.00  0.00    +0.000 OA
BRANCH  25  28
ATOM     28  N   UNL     1       3.447   3.619  18.119  0.00  0.00    +0.000 NA
ATOM     29  H   UNL     1       2.981   3.218  17.305  0.00  0.00    +0.000 HD
BRANCH  28  30
ATOM     30  C   UNL     1       3.398   2.971  19.445  0.00  0.00    +0.000 C 
BRANCH  30  32
ATOM     31  C   UNL     1       0.901   2.871  18.746  0.00  0.00    +0.000 C 
ATOM     32  C   UNL     1       1.976   2.426  19.749  0.00  0.00    +0.000 C 
ATOM     33  C   UNL     1       1.522   2.768  21.171  0.00  0.00    +0.000 C 
ENDBRANCH  30  32
BRANCH  30  34
ATOM     34  C   UNL     1       4.405   1.829  19.609  0.00  0.00    +0.000 C 
ATOM     35  O   UNL     1       5.174   1.736  20.556  0.00  0.00    +0.000 OA
BRANCH  34  36
ATOM     36  O   UNL     1       4.287   0.852  18.677  0.00  0.00    +0.000 OA
ATOM     37  H   UNL     1       3.381   0.484  18.664  0.00  0.00    +0.000 HD
ENDBRANCH  34  36
ENDBRANCH  30  34
ENDBRANCH  28  30
ENDBRANCH  25  28
ENDBRANCH   1  25
TORSDOF 8
ENDMDL
MODEL 8
REMARK VINA RESULT:      -8.1      2.719      3.729
REMARK  Name = 
REMARK  10 active torsions:
REMARK  status: ('A' for Active; 'I' for Inactive)
REMARK    1  A    between atoms: C_1  and  C_2
REMARK    2  A    between atoms: C_2  and  C_3
REMARK    3  A    between atoms: C_2  and  C_4
REMARK    4  A    between atoms: C_4  and  N_5
REMARK    5  A    between atoms: C_4  and  C_31
REMARK    6  A    between atoms: N_5  and  S_6
REMARK    7  A    between atoms: S_6  and  C_9
REMARK    8  A    between atoms: C_19  and  N_20
REMARK    9  A    between atoms: N_23  and  C_24
REMARK   10  A    between atoms: C_31  and  O_33
REMARK                            x       y       z     vdW  Elec       q    Type
REMARK                         _______ _______ _______ _____ _____    ______ ____
ROOT
ATOM      1  C   UNL     1       3.266   5.132  18.415  0.00  0.00    +0.000 A 
ATOM      2  C   UNL     1       2.720   5.161  19.705  0.00  0.00    +0.000 A 
ATOM      3  C   UNL     1       2.134   6.331  20.212  0.00  0.00    +0.000 A 
ATOM      4  C   UNL     1       2.107   7.484  19.408  0.00  0.00    +0.000 A 
ATOM      5  C   UNL     1       2.668   7.416  18.135  0.00  0.00    +0.000 A 
ATOM      6  C   UNL     1       3.259   6.270  17.593  0.00  0.00    +0.000 A 
ATOM      7  O   UNL     1       2.569   8.628  17.515  0.00  0.00    +0.000 OA
ATOM      8  C   UNL     1       1.947   9.475  18.384  0.00  0.00    +0.000 A 
ATOM      9  C   UNL     1       1.650  10.812  18.143  0.00  0.00    +0.000 A 
ATOM     10  C   UNL     1       0.994  11.509  19.169  0.00  0.00    +0.000 A 
ATOM     11  C   UNL     1       0.655  10.899  20.386  0.00  0.00    +0.000 A 
ATOM     12  C   UNL     1       0.968   9.543  20.586  0.00  0.00    +0.000 A 
ATOM     13  C   UNL     1       1.631   8.819  19.567  0.00  0.00    +0.000 A 
ENDROOT
BRANCH  11  14
ATOM     14  N   UNL     1      -0.032  11.582  21.423  0.00  0.00    +0.000 N 
ATOM     15  C   UNL     1      -1.362  11.942  21.416  0.00  0.00    +0.000 C 
ATOM     16  O   UNL     1      -2.125  11.851  20.461  0.00  0.00    +0.000 OA
ATOM     17  N   UNL     1      -1.794  12.398  22.646  0.00  0.00    +0.000 N 
ATOM     18  H   UNL     1       0.521  11.906  22.200  0.00  0.00    +0.000 HD
ATOM     19  H   UNL     1      -1.109  12.746  23.299  0.00  0.00    +0.000 HD
BRANCH  17  20
ATOM     20  C   UNL     1      -3.171  12.827  22.808  0.00  0.00    +0.000 C 
ATOM     21  C   UNL     1      -3.848  12.247  24.042  0.00  0.00    +0.000 C 
ATOM     22  C   UNL     1      -5.078  13.131  24.209  0.00  0.00    +0.000 C 
ATOM     23  C   UNL     1      -4.667  14.512  23.698  0.00  0.00    +0.000 C 
ATOM     24  C   UNL     1      -3.312  14.334  23.014  0.00  0.00    +0.000 C 
ENDBRANCH  17  20
ENDBRANCH  11  14
BRANCH   1  25
ATOM     25  S   UNL     1       4.181   3.693  17.905  0.00  0.00    +0.000 S 
ATOM     26  O   UNL     1       3.275   2.572  17.826  0.00  0.00    +0.000 OA
ATOM     27  O   UNL     1       5.383   3.634  18.702  0.00  0.00    +0.000 OA
BRANCH  25  28
ATOM     28  N   UNL     1       4.712   3.993  16.345  0.00  0.00    +0.000 NA
ATOM     29  H   UNL     1       3.988   4.155  15.645  0.00  0.00    +0.000 HD
BRANCH  28  30
ATOM     30  C   UNL     1       6.146   4.169  16.040  0.00  0.00    +0.000 C 
BRANCH  30  32
ATOM     31  C   UNL     1       7.406   4.990  13.926  0.00  0.00    +0.000 C 
ATOM     32  C   UNL     1       6.425   3.972  14.525  0.00  0.00    +0.000 C 
ATOM     33  C   UNL     1       5.134   3.959  13.701  0.00  0.00    +0.000 C 
ENDBRANCH  30  32
BRANCH  30  34
ATOM     34  C   UNL     1       6.702   5.532  16.466  0.00  0.00    +0.000 C 
ATOM     35  O   UNL     1       6.227   6.599  16.102  0.00  0.00    +0.000 OA
BRANCH  34  36
ATOM     36  O   UNL     1       7.693   5.459  17.387  0.00  0.00    +0.000 OA
ATOM     37  H   UNL     1       8.101   4.571  17.397  0.00  0.00    +0.000 HD
ENDBRANCH  34  36
ENDBRANCH  30  34
ENDBRANCH  28  30
ENDBRANCH  25  28
ENDBRANCH   1  25
TORSDOF 8
ENDMDL
MODEL 9
REMARK VINA RESULT:      -8.1      3.506      4.666
REMARK  Name = 
REMARK  10 active torsions:
REMARK  status: ('A' for Active; 'I' for Inactive)
REMARK    1  A    between atoms: C_1  and  C_2
REMARK    2  A    between atoms: C_2  and  C_3
REMARK    3  A    between atoms: C_2  and  C_4
REMARK    4  A    between atoms: C_4  and  N_5
REMARK    5  A    between atoms: C_4  and  C_31
REMARK    6  A    between atoms: N_5  and  S_6
REMARK    7  A    between atoms: S_6  and  C_9
REMARK    8  A    between atoms: C_19  and  N_20
REMARK    9  A    between atoms: N_23  and  C_24
REMARK   10  A    between atoms: C_31  and  O_33
REMARK                            x       y       z     vdW  Elec       q    Type
REMARK                         _______ _______ _______ _____ _____    ______ ____
ROOT
ATOM      1  C   UNL     1       2.551   7.198  19.074  0.00  0.00    +0.000 A 
ATOM      2  C   UNL     1       2.096   8.204  18.210  0.00  0.00    +0.000 A 
ATOM      3  C   UNL     1       1.264   9.232  18.678  0.00  0.00    +0.000 A 
ATOM      4  C   UNL     1       0.883   9.239  20.031  0.00  0.00    +0.000 A 
ATOM      5  C   UNL     1       1.349   8.217  20.855  0.00  0.00    +0.000 A 
ATOM      6  C   UNL     1       2.180   7.176  20.428  0.00  0.00    +0.000 A 
ATOM      7  O   UNL     1       0.861   8.376  22.120  0.00  0.00    +0.000 OA
ATOM      8  C   UNL     1       0.083   9.497  22.113  0.00  0.00    +0.000 A 
ATOM      9  C   UNL     1      -0.604  10.016  23.205  0.00  0.00    +0.000 A 
ATOM     10  C   UNL     1      -1.342  11.189  22.988  0.00  0.00    +0.000 A 
ATOM     11  C   UNL     1      -1.398  11.814  21.733  0.00  0.00    +0.000 A 
ATOM     12  C   UNL     1      -0.683  11.259  20.657  0.00  0.00    +0.000 A 
ATOM     13  C   UNL     1       0.068  10.076  20.850  0.00  0.00    +0.000 A 
ENDROOT
BRANCH  11  14
ATOM     14  N   UNL     1      -2.118  13.014  21.504  0.00  0.00    +0.000 N 
ATOM     15  C   UNL     1      -3.449  13.231  21.789  0.00  0.00    +0.000 C 
ATOM     16  O   UNL     1      -4.250  12.382  22.159  0.00  0.00    +0.000 OA
ATOM     17  N   UNL     1      -3.809  14.558  21.657  0.00  0.00    +0.000 N 
ATOM     18  H   UNL     1      -1.634  13.749  21.012  0.00  0.00    +0.000 HD
ATOM     19  H   UNL     1      -3.243  15.157  21.076  0.00  0.00    +0.000 HD
BRANCH  17  20
ATOM     20  C   UNL     1      -5.181  14.956  21.914  0.00  0.00    +0.000 C 
ATOM     21  C   UNL     1      -5.398  15.529  23.307  0.00  0.00    +0.000 C 
ATOM     22  C   UNL     1      -6.749  16.224  23.189  0.00  0.00    +0.000 C 
ATOM     23  C   UNL     1      -6.834  16.719  21.745  0.00  0.00    +0.000 C 
ATOM     24  C   UNL     1      -5.662  16.082  21.000  0.00  0.00    +0.000 C 
ENDBRANCH  17  20
ENDBRANCH  11  14
BRANCH   1  25
ATOM     25  S   UNL     1       3.423   5.808  18.386  0.00  0.00    +0.000 S 
ATOM     26  O   UNL     1       4.782   6.207  18.108  0.00  0.00    +0.000 OA
ATOM     27  O   UNL     1       2.585   5.228  17.363  0.00  0.00    +0.000 OA
BRANCH  25  28
ATOM     28  N   UNL     1       3.500   4.648  19.592  0.00  0.00    +0.000 NA
ATOM     29  H   UNL     1       4.142   4.837  20.360  0.00  0.00    +0.000 HD
BRANCH  28  30
ATOM     30  C   UNL     1       2.572   3.499  19.614  0.00  0.00    +0.000 C 
BRANCH  30  32
ATOM     31  C   UNL     1       4.712   2.158  20.211  0.00  0.00    +0.000 C 
ATOM     32  C   UNL     1       3.343   2.155  19.514  0.00  0.00    +0.000 C 
ATOM     33  C   UNL     1       3.509   1.696  18.063  0.00  0.00    +0.000 C 
ENDBRANCH  30  32
BRANCH  30  34
ATOM     34  C   UNL     1       1.676   3.457  20.856  0.00  0.00    +0.000 C 
ATOM     35  O   UNL     1       2.106   3.368  21.998  0.00  0.00    +0.000 OA
BRANCH  34  36
ATOM     36  O   UNL     1       0.361   3.656  20.594  0.00  0.00    +0.000 OA
ATOM     37  H   UNL     1       0.216   3.854  19.648  0.00  0.00    +0.000 HD
ENDBRANCH  34  36
ENDBRANCH  30  34
ENDBRANCH  28  30
ENDBRANCH  25  28
ENDBRANCH   1  25
TORSDOF 8
ENDMDL
