MODEL 1
REMARK VINA RESULT:      -7.6      0.000      0.000
REMARK  Name = 
REMARK  4 active torsions:
REMARK  status: ('A' for Active; 'I' for Inactive)
REMARK    1  A    between atoms: C_1  and  C_2
REMARK    2  A    between atoms: N_11  and  C_12
REMARK    3  A    between atoms: C_12  and  C_13
REMARK    4  A    between atoms: C_13  and  N_14
REMARK                            x       y       z     vdW  Elec       q    Type
REMARK                         _______ _______ _______ _____ _____    ______ ____
ROOT
ATOM      1  C   UNL     1       8.178   7.589  18.456  0.00  0.00    +0.000 C 
ATOM      2  C   UNL     1       7.414   6.694  17.547  0.00  0.00    +0.000 A 
ATOM      3  N   UNL     1       7.781   6.420  16.305  0.00  0.00    +0.000 NA
ATOM      4  C   UNL     1       6.838   5.591  15.787  0.00  0.00    +0.000 A 
ATOM      5  C   UNL     1       6.712   4.967  14.546  0.00  0.00    +0.000 A 
ATOM      6  C   UNL     1       7.497   4.949  13.378  0.00  0.00    +0.000 A 
ATOM      7  C   UNL     1       7.086   4.179  12.291  0.00  0.00    +0.000 A 
ATOM      8  C   UNL     1       5.908   3.439  12.364  0.00  0.00    +0.000 A 
ATOM      9  C   UNL     1       5.101   3.446  13.514  0.00  0.00    +0.000 A 
ATOM     10  C   UNL     1       5.515   4.218  14.614  0.00  0.00    +0.000 A 
ATOM     11  N   UNL     1       4.958   4.423  15.889  0.00  0.00    +0.000 N 
ATOM     12  C   UNL     1       5.807   5.244  16.571  0.00  0.00    +0.000 A 
ATOM     13  S   UNL     1       5.937   5.927  18.092  0.00  0.00    +0.000 S 
ENDROOT
BRANCH  11  14
ATOM     14  C   UNL     1       3.738   3.816  16.418  0.00  0.00    +0.000 C 
BRANCH  14  15
ATOM     15  C   UNL     1       3.983   2.926  17.656  0.00  0.00    +0.000 C 
BRANCH  15  16
ATOM     16  N   UNL     1       3.349   3.358  18.931  0.00  0.00    +0.000 NA
ATOM     17  C   UNL     1       2.533   4.577  18.773  0.00  0.00    +0.000 C 
ATOM     18  C   UNL     1       1.854   4.986  20.088  0.00  0.00    +0.000 C 
ATOM     19  C   UNL     1       0.997   3.861  20.653  0.00  0.00    +0.000 C 
ATOM     20  C   UNL     1       1.819   2.586  20.765  0.00  0.00    +0.000 C 
ATOM     21  C   UNL     1       2.508   2.250  19.439  0.00  0.00    +0.000 C 
ENDBRANCH  15  16
ENDBRANCH  14  15
ENDBRANCH  11  14
TORSDOF 3
ENDMDL
MODEL 2
REMARK VINA RESULT:      -7.5      1.957      4.219
REMARK  Name = 
REMARK  4 active torsions:
REMARK  status: ('A' for Active; 'I' for Inactive)
REMARK    1  A    between atoms: C_1  and  C_2
REMARK    2  A    between atoms: N_11  and  C_12
REMARK    3  A    between atoms: C_12  and  C_13
REMARK    4  A    between atoms: C_13  and  N_14
REMARK                            x       y       z     vdW  Elec       q    Type
REMARK                         _______ _______ _______ _____ _____    ______ ____
ROOT
ATOM      1  C   UNL     1       7.149   5.168  13.744  0.00  0.00    +0.000 C 
ATOM      2  C   UNL     1       6.387   5.245  15.019  0.00  0.00    +0.000 A 
ATOM      3  N   UNL     1       5.507   6.194  15.293  0.00  0.00    +0.000 NA
ATOM      4  C   UNL     1       5.033   5.947  16.542  0.00  0.00    +0.000 A 
ATOM      5  C   UNL     1       4.083   6.591  17.334  0.00  0.00    +0.000 A 
ATOM      6  C   UNL     1       3.259   7.717  17.148  0.00  0.00    +0.000 A 
ATOM      7  C   UNL     1       2.376   8.090  18.159  0.00  0.00    +0.000 A 
ATOM      8  C   UNL     1       2.313   7.354  19.341  0.00  0.00    +0.000 A 
ATOM      9  C   UNL     1       3.130   6.231  19.556  0.00  0.00    +0.000 A 
ATOM     10  C   UNL     1       4.020   5.849  18.535  0.00  0.00    +0.000 A 
ATOM     11  N   UNL     1       4.940   4.791  18.430  0.00  0.00    +0.000 N 
ATOM     12  C   UNL     1       5.513   4.878  17.196  0.00  0.00    +0.000 A 
ATOM     13  S   UNL     1       6.623   4.040  16.268  0.00  0.00    +0.000 S 
ENDROOT
BRANCH  11  14
ATOM     14  C   UNL     1       5.188   3.745  19.421  0.00  0.00    +0.000 C 
BRANCH  14  15
ATOM     15  C   UNL     1       4.512   2.400  19.077  0.00  0.00    +0.000 C 
BRANCH  15  16
ATOM     16  N   UNL     1       3.109   2.216  19.537  0.00  0.00    +0.000 NA
ATOM     17  C   UNL     1       2.827   2.932  20.795  0.00  0.00    +0.000 C 
ATOM     18  C   UNL     1       1.365   2.764  21.234  0.00  0.00    +0.000 C 
ATOM     19  C   UNL     1       0.396   3.220  20.152  0.00  0.00    +0.000 C 
ATOM     20  C   UNL     1       0.719   2.526  18.838  0.00  0.00    +0.000 C 
ATOM     21  C   UNL     1       2.197   2.689  18.471  0.00  0.00    +0.000 C 
ENDBRANCH  15  16
ENDBRANCH  14  15
ENDBRANCH  11  14
TORSDOF 3
ENDMDL
MODEL 3
REMARK VINA RESULT:      -7.5      1.662      3.789
REMARK  Name = 
REMARK  4 active torsions:
REMARK  status: ('A' for Active; 'I' for Inactive)
REMARK    1  A    between atoms: C_1  and  C_2
REMARK    2  A    between atoms: N_11  and  C_12
REMARK    3  A    between atoms: C_12  and  C_13
REMARK    4  A    between atoms: C_13  and  N_14
REMARK                            x       y       z     vdW  Elec       q    Type
REMARK                         _______ _______ _______ _____ _____    ______ ____
ROOT
ATOM      1  C   UNL     1       7.447   4.725  12.119  0.00  0.00    +0.000 C 
ATOM      2  C   UNL     1       6.910   4.667  13.504  0.00  0.00    +0.000 A 
ATOM      3  N   UNL     1       7.546   5.149  14.560  0.00  0.00    +0.000 NA
ATOM      4  C   UNL     1       6.762   4.901  15.641  0.00  0.00    +0.000 A 
ATOM      5  C   UNL     1       6.906   5.197  16.997  0.00  0.00    +0.000 A 
ATOM      6  C   UNL     1       7.893   5.858  17.752  0.00  0.00    +0.000 A 
ATOM      7  C   UNL     1       7.712   6.011  19.126  0.00  0.00    +0.000 A 
ATOM      8  C   UNL     1       6.566   5.511  19.741  0.00  0.00    +0.000 A 
ATOM      9  C   UNL     1       5.570   4.840  19.012  0.00  0.00    +0.000 A 
ATOM     10  C   UNL     1       5.747   4.688  17.625  0.00  0.00    +0.000 A 
ATOM     11  N   UNL     1       4.950   4.095  16.629  0.00  0.00    +0.000 N 
ATOM     12  C   UNL     1       5.596   4.269  15.441  0.00  0.00    +0.000 A 
ATOM     13  S   UNL     1       5.351   3.935  13.821  0.00  0.00    +0.000 S 
ENDROOT
BRANCH  11  14
ATOM     14  C   UNL     1       3.640   3.473  16.812  0.00  0.00    +0.000 C 
BRANCH  14  15
ATOM     15  C   UNL     1       3.662   2.261  17.769  0.00  0.00    +0.000 C 
BRANCH  15  16
ATOM     16  N   UNL     1       2.781   2.334  18.966  0.00  0.00    +0.000 NA
ATOM     17  C   UNL     1       3.540   2.484  20.221  0.00  0.00    +0.000 C 
ATOM     18  C   UNL     1       2.615   2.597  21.441  0.00  0.00    +0.000 C 
ATOM     19  C   UNL     1       1.628   3.749  21.294  0.00  0.00    +0.000 C 
ATOM     20  C   UNL     1       0.882   3.630  19.974  0.00  0.00    +0.000 C 
ATOM     21  C   UNL     1       1.852   3.475  18.798  0.00  0.00    +0.000 C 
ENDBRANCH  15  16
ENDBRANCH  14  15
ENDBRANCH  11  14
TORSDOF 3
ENDMDL
MODEL 4
REMARK VINA RESULT:      -7.3      0.642      1.245
REMARK  Name = 
REMARK  4 active torsions:
REMARK  status: ('A' for Active; 'I' for Inactive)
REMARK    1  A    between atoms: C_1  and  C_2
REMARK    2  A    between atoms: N_11  and  C_12
REMARK    3  A    between atoms: C_12  and  C_13
REMARK    4  A    between atoms: C_13  and  N_14
REMARK                            x       y       z     vdW  Elec       q    Type
REMARK                         _______ _______ _______ _____ _____    ______ ____
ROOT
ATOM      1  C   UNL     1       8.265   7.751  18.534  0.00  0.00    +0.000 C 
ATOM      2  C   UNL     1       7.512   6.789  17.686  0.00  0.00    +0.000 A 
ATOM      3  N   UNL     1       7.794   6.554  16.414  0.00  0.00    +0.000 NA
ATOM      4  C   UNL     1       6.892   5.640  15.972  0.00  0.00    +0.000 A 
ATOM      5  C   UNL     1       6.717   5.009  14.740  0.00  0.00    +0.000 A 
ATOM      6  C   UNL     1       7.395   5.068  13.508  0.00  0.00    +0.000 A 
ATOM      7  C   UNL     1       6.965   4.264  12.454  0.00  0.00    +0.000 A 
ATOM      8  C   UNL     1       5.873   3.415  12.621  0.00  0.00    +0.000 A 
ATOM      9  C   UNL     1       5.172   3.344  13.837  0.00  0.00    +0.000 A 
ATOM     10  C   UNL     1       5.606   4.150  14.905  0.00  0.00    +0.000 A 
ATOM     11  N   UNL     1       5.146   4.299  16.225  0.00  0.00    +0.000 N 
ATOM     12  C   UNL     1       5.970   5.195  16.839  0.00  0.00    +0.000 A 
ATOM     13  S   UNL     1       6.167   5.885  18.350  0.00  0.00    +0.000 S 
ENDROOT
BRANCH  11  14
ATOM     14  C   UNL     1       4.040   3.578  16.852  0.00  0.00    +0.000 C 
BRANCH  14  15
ATOM     15  C   UNL     1       2.888   4.499  17.312  0.00  0.00    +0.000 C 
BRANCH  15  16
ATOM     16  N   UNL     1       2.180   4.115  18.563  0.00  0.00    +0.000 NA
ATOM     17  C   UNL     1       2.526   2.755  19.016  0.00  0.00    +0.000 C 
ATOM     18  C   UNL     1       1.818   2.390  20.329  0.00  0.00    +0.000 C 
ATOM     19  C   UNL     1       2.126   3.395  21.432  0.00  0.00    +0.000 C 
ATOM     20  C   UNL     1       1.824   4.805  20.950  0.00  0.00    +0.000 C 
ATOM     21  C   UNL     1       2.519   5.099  19.617  0.00  0.00    +0.000 C 
ENDBRANCH  15  16
ENDBRANCH  14  15
ENDBRANCH  11  14
TORSDOF 3
ENDMDL
MODEL 5
REMARK VINA RESULT:      -7.1      1.084      1.285
REMARK  Name = 
REMARK  4 active torsions:
REMARK  status: ('A' for Active; 'I' for Inactive)
REMARK    1  A    between atoms: C_1  and  C_2
REMARK    2  A    between atoms: N_11  and  C_12
REMARK    3  A    between atoms: C_12  and  C_13
REMARK    4  A    between atoms: C_13  and  N_14
REMARK                            x       y       z     vdW  Elec       q    Type
REMARK                         _______ _______ _______ _____ _____    ______ ____
ROOT
ATOM      1  C   UNL     1       8.249   6.322  19.621  0.00  0.00    +0.000 C 
ATOM      2  C   UNL     1       7.424   5.717  18.541  0.00  0.00    +0.000 A 
ATOM      3  N   UNL     1       7.796   5.667  17.272  0.00  0.00    +0.000 NA
ATOM      4  C   UNL     1       6.790   5.065  16.587  0.00  0.00    +0.000 A 
ATOM      5  C   UNL     1       6.636   4.726  15.243  0.00  0.00    +0.000 A 
ATOM      6  C   UNL     1       7.448   4.866  14.101  0.00  0.00    +0.000 A 
ATOM      7  C   UNL     1       6.992   4.383  12.876  0.00  0.00    +0.000 A 
ATOM      8  C   UNL     1       5.744   3.770  12.786  0.00  0.00    +0.000 A 
ATOM      9  C   UNL     1       4.910   3.625  13.908  0.00  0.00    +0.000 A 
ATOM     10  C   UNL     1       5.369   4.107  15.147  0.00  0.00    +0.000 A 
ATOM     11  N   UNL     1       4.799   4.104  16.433  0.00  0.00    +0.000 N 
ATOM     12  C   UNL     1       5.707   4.674  17.276  0.00  0.00    +0.000 A 
ATOM     13  S   UNL     1       5.863   5.013  18.906  0.00  0.00    +0.000 S 
ENDROOT
BRANCH  11  14
ATOM     14  C   UNL     1       3.511   3.532  16.817  0.00  0.00    +0.000 C 
BRANCH  14  15
ATOM     15  C   UNL     1       3.637   2.279  17.711  0.00  0.00    +0.000 C 
BRANCH  15  16
ATOM     16  N   UNL     1       2.787   2.237  18.932  0.00  0.00    +0.000 NA
ATOM     17  C   UNL     1       3.531   2.600  20.152  0.00  0.00    +0.000 C 
ATOM     18  C   UNL     1       2.631   2.591  21.396  0.00  0.00    +0.000 C 
ATOM     19  C   UNL     1       1.430   3.514  21.230  0.00  0.00    +0.000 C 
ATOM     20  C   UNL     1       0.692   3.179  19.943  0.00  0.00    +0.000 C 
ATOM     21  C   UNL     1       1.644   3.160  18.743  0.00  0.00    +0.000 C 
ENDBRANCH  15  16
ENDBRANCH  14  15
ENDBRANCH  11  14
TORSDOF 3
ENDMDL
MODEL 6
REMARK VINA RESULT:      -7.1      3.461      5.901
REMARK  Name = 
REMARK  4 active torsions:
REMARK  status: ('A' for Active; 'I' for Inactive)
REMARK    1  A    between atoms: C_1  and  C_2
REMARK    2  A    between atoms: N_11  and  C_12
REMARK    3  A    between atoms: C_12  and  C_13
REMARK    4  A    between atoms: C_13  and  N_14
REMARK                            x       y       z     vdW  Elec       q    Type
REMARK                         _______ _______ _______ _____ _____    ______ ____
ROOT
ATOM      1  C   UNL     1       7.093   5.028  15.720  0.00  0.00    +0.000 C 
ATOM      2  C   UNL     1       5.869   5.046  16.565  0.00  0.00    +0.000 A 
ATOM      3  N   UNL     1       5.121   3.979  16.799  0.00  0.00    +0.000 NA
ATOM      4  C   UNL     1       4.092   4.382  17.589  0.00  0.00    +0.000 A 
ATOM      5  C   UNL     1       3.021   3.698  18.162  0.00  0.00    +0.000 A 
ATOM      6  C   UNL     1       2.603   2.354  18.152  0.00  0.00    +0.000 A 
ATOM      7  C   UNL     1       1.468   1.987  18.872  0.00  0.00    +0.000 A 
ATOM      8  C   UNL     1       0.755   2.945  19.591  0.00  0.00    +0.000 A 
ATOM      9  C   UNL     1       1.145   4.295  19.611  0.00  0.00    +0.000 A 
ATOM     10  C   UNL     1       2.293   4.667  18.890  0.00  0.00    +0.000 A 
ATOM     11  N   UNL     1       2.944   5.902  18.721  0.00  0.00    +0.000 N 
ATOM     12  C   UNL     1       4.042   5.675  17.944  0.00  0.00    +0.000 A 
ATOM     13  S   UNL     1       5.336   6.532  17.321  0.00  0.00    +0.000 S 
ENDROOT
BRANCH  11  14
ATOM     14  C   UNL     1       2.567   7.180  19.323  0.00  0.00    +0.000 C 
BRANCH  14  15
ATOM     15  C   UNL     1       1.913   8.160  18.325  0.00  0.00    +0.000 C 
BRANCH  15  16
ATOM     16  N   UNL     1       1.343   9.413  18.891  0.00  0.00    +0.000 NA
ATOM     17  C   UNL     1       0.141   9.866  18.168  0.00  0.00    +0.000 C 
ATOM     18  C   UNL     1      -0.457  11.137  18.788  0.00  0.00    +0.000 C 
ATOM     19  C   UNL     1      -0.784  10.943  20.263  0.00  0.00    +0.000 C 
ATOM     20  C   UNL     1       0.438  10.422  21.003  0.00  0.00    +0.000 C 
ATOM     21  C   UNL     1       1.017   9.181  20.317  0.00  0.00    +0.000 C 
ENDBRANCH  15  16
ENDBRANCH  14  15
ENDBRANCH  11  14
TORSDOF 3
ENDMDL
MODEL 7
REMARK VINA RESULT:      -7.1      3.442      6.164
REMARK  Name = 
REMARK  4 active torsions:
REMARK  status: ('A' for Active; 'I' for Inactive)
REMARK    1  A    between atoms: C_1  and  C_2
REMARK    2  A    between atoms: N_11  and  C_12
REMARK    3  A    between atoms: C_12  and  C_13
REMARK    4  A    between atoms: C_13  and  N_14
REMARK                            x       y       z     vdW  Elec       q    Type
REMARK                         _______ _______ _______ _____ _____    ______ ____
ROOT
ATOM      1  C   UNL     1       6.258   4.180  14.731  0.00  0.00    +0.000 C 
ATOM      2  C   UNL     1       5.277   4.452  15.816  0.00  0.00    +0.000 A 
ATOM      3  N   UNL     1       4.510   3.523  16.363  0.00  0.00    +0.000 NA
ATOM      4  C   UNL     1       3.741   4.142  17.295  0.00  0.00    +0.000 A 
ATOM      5  C   UNL     1       2.777   3.670  18.186  0.00  0.00    +0.000 A 
ATOM      6  C   UNL     1       2.245   2.398  18.464  0.00  0.00    +0.000 A 
ATOM      7  C   UNL     1       1.284   2.264  19.465  0.00  0.00    +0.000 A 
ATOM      8  C   UNL     1       0.855   3.382  20.177  0.00  0.00    +0.000 A 
ATOM      9  C   UNL     1       1.363   4.665  19.914  0.00  0.00    +0.000 A 
ATOM     10  C   UNL     1       2.337   4.803  18.908  0.00  0.00    +0.000 A 
ATOM     11  N   UNL     1       3.042   5.918  18.421  0.00  0.00    +0.000 N 
ATOM     12  C   UNL     1       3.898   5.464  17.461  0.00  0.00    +0.000 A 
ATOM     13  S   UNL     1       5.081   6.073  16.448  0.00  0.00    +0.000 S 
ENDROOT
BRANCH  11  14
ATOM     14  C   UNL     1       2.940   7.295  18.900  0.00  0.00    +0.000 C 
BRANCH  14  15
ATOM     15  C   UNL     1       2.040   8.188  18.018  0.00  0.00    +0.000 C 
BRANCH  15  16
ATOM     16  N   UNL     1       1.152   9.151  18.722  0.00  0.00    +0.000 NA
ATOM     17  C   UNL     1       1.109   8.922  20.178  0.00  0.00    +0.000 C 
ATOM     18  C   UNL     1       0.221   9.950  20.894  0.00  0.00    +0.000 C 
ATOM     19  C   UNL     1       0.670  11.378  20.610  0.00  0.00    +0.000 C 
ATOM     20  C   UNL     1       0.770  11.602  19.109  0.00  0.00    +0.000 C 
ATOM     21  C   UNL     1       1.630  10.525  18.441  0.00  0.00    +0.000 C 
ENDBRANCH  15  16
ENDBRANCH  14  15
ENDBRANCH  11  14
TORSDOF 3
ENDMDL
MODEL 8
REMARK VINA RESULT:      -7.0      3.296      6.113
REMARK  Name = 
REMARK  4 active torsions:
REMARK  status: ('A' for Active; 'I' for Inactive)
REMARK    1  A    between atoms: C_1  and  C_2
REMARK    2  A    between atoms: N_11  and  C_12
REMARK    3  A    between atoms: C_12  and  C_13
REMARK    4  A    between atoms: C_13  and  N_14
REMARK                            x       y       z     vdW  Elec       q    Type
REMARK                         _______ _______ _______ _____ _____    ______ ____
ROOT
ATOM      1  C   UNL     1       7.914   4.790  18.084  0.00  0.00    +0.000 C 
ATOM      2  C   UNL     1       6.462   4.865  18.396  0.00  0.00    +0.000 A 
ATOM      3  N   UNL     1       5.831   3.997  19.171  0.00  0.00    +0.000 NA
ATOM      4  C   UNL     1       4.527   4.375  19.208  0.00  0.00    +0.000 A 
ATOM      5  C   UNL     1       3.415   3.857  19.872  0.00  0.00    +0.000 A 
ATOM      6  C   UNL     1       3.218   2.773  20.748  0.00  0.00    +0.000 A 
ATOM      7  C   UNL     1       1.947   2.539  21.270  0.00  0.00    +0.000 A 
ATOM      8  C   UNL     1       0.884   3.372  20.924  0.00  0.00    +0.000 A 
ATOM      9  C   UNL     1       1.052   4.456  20.046  0.00  0.00    +0.000 A 
ATOM     10  C   UNL     1       2.334   4.697  19.521  0.00  0.00    +0.000 A 
ATOM     11  N   UNL     1       2.829   5.685  18.650  0.00  0.00    +0.000 N 
ATOM     12  C   UNL     1       4.167   5.462  18.509  0.00  0.00    +0.000 A 
ATOM     13  S   UNL     1       5.477   6.151  17.731  0.00  0.00    +0.000 S 
ENDROOT
BRANCH  11  14
ATOM     14  C   UNL     1       2.075   6.791  18.063  0.00  0.00    +0.000 C 
BRANCH  14  15
ATOM     15  C   UNL     1       2.242   8.122  18.827  0.00  0.00    +0.000 C 
BRANCH  15  16
ATOM     16  N   UNL     1       1.095   8.563  19.667  0.00  0.00    +0.000 NA
ATOM     17  C   UNL     1       1.284   8.248  21.094  0.00  0.00    +0.000 C 
ATOM     18  C   UNL     1       0.111   8.745  21.951  0.00  0.00    +0.000 C 
ATOM     19  C   UNL     1      -0.119  10.241  21.779  0.00  0.00    +0.000 C 
ATOM     20  C   UNL     1      -0.258  10.579  20.302  0.00  0.00    +0.000 C 
ATOM     21  C   UNL     1       0.916  10.023  19.491  0.00  0.00    +0.000 C 
ENDBRANCH  15  16
ENDBRANCH  14  15
ENDBRANCH  11  14
TORSDOF 3
ENDMDL
MODEL 9
REMARK VINA RESULT:      -7.0      3.766      5.594
REMARK  Name = 
REMARK  4 active torsions:
REMARK  status: ('A' for Active; 'I' for Inactive)
REMARK    1  A    between atoms: C_1  and  C_2
REMARK    2  A    between atoms: N_11  and  C_12
REMARK    3  A    between atoms: C_12  and  C_13
REMARK    4  A    between atoms: C_13  and  N_14
REMARK                            x       y       z     vdW  Elec       q    Type
REMARK                         _______ _______ _______ _____ _____    ______ ____
ROOT
ATOM      1  C   UNL     1       1.713   3.041  21.337  0.00  0.00    +0.000 C 
ATOM      2  C   UNL     1       2.321   3.895  20.282  0.00  0.00    +0.000 A 
ATOM      3  N   UNL     1       3.107   3.432  19.324  0.00  0.00    +0.000 NA
ATOM      4  C   UNL     1       3.480   4.497  18.568  0.00  0.00    +0.000 A 
ATOM      5  C   UNL     1       4.274   4.611  17.427  0.00  0.00    +0.000 A 
ATOM      6  C   UNL     1       4.974   3.687  16.629  0.00  0.00    +0.000 A 
ATOM      7  C   UNL     1       5.668   4.141  15.509  0.00  0.00    +0.000 A 
ATOM      8  C   UNL     1       5.669   5.497  15.188  0.00  0.00    +0.000 A 
ATOM      9  C   UNL     1       4.986   6.442  15.973  0.00  0.00    +0.000 A 
ATOM     10  C   UNL     1       4.280   5.986  17.100  0.00  0.00    +0.000 A 
ATOM     11  N   UNL     1       3.499   6.654  18.061  0.00  0.00    +0.000 N 
ATOM     12  C   UNL     1       3.017   5.707  18.916  0.00  0.00    +0.000 A 
ATOM     13  S   UNL     1       2.017   5.619  20.253  0.00  0.00    +0.000 S 
ENDROOT
BRANCH  11  14
ATOM     14  C   UNL     1       3.194   8.083  18.100  0.00  0.00    +0.000 C 
BRANCH  14  15
ATOM     15  C   UNL     1       1.703   8.400  17.848  0.00  0.00    +0.000 C 
BRANCH  15  16
ATOM     16  N   UNL     1       1.149   9.603  18.525  0.00  0.00    +0.000 NA
ATOM     17  C   UNL     1      -0.171   9.993  17.996  0.00  0.00    +0.000 C 
ATOM     18  C   UNL     1      -0.746  11.212  18.733  0.00  0.00    +0.000 C 
ATOM     19  C   UNL     1      -0.842  10.969  20.233  0.00  0.00    +0.000 C 
ATOM     20  C   UNL     1       0.504  10.512  20.774  0.00  0.00    +0.000 C 
ATOM     21  C   UNL     1       1.050   9.324  19.976  0.00  0.00    +0.000 C 
ENDBRANCH  15  16
ENDBRANCH  14  15
ENDBRANCH  11  14
TORSDOF 3
ENDMDL
