MODEL 1
REMARK VINA RESULT:      -6.9      0.000      0.000
REMARK  Name = 
REMARK  7 active torsions:
REMARK  status: ('A' for Active; 'I' for Inactive)
REMARK    1  A    between atoms: N_1  and  C_2
REMARK    2  A    between atoms: C_12  and  O_13
REMARK    3  A    between atoms: N_16  and  C1*_17
REMARK    4  A    between atoms: C4*_19  and  C5*_20
REMARK    5  A    between atoms: C5*_20  and  O5*_21
REMARK    6  A    between atoms: C3*_22  and  O3*_23
REMARK    7  A    between atoms: C2*_24  and  O2*_25
REMARK                            x       y       z     vdW  Elec       q    Type
REMARK                         _______ _______ _______ _____ _____    ______ ____
ROOT
ATOM      1  C   UNL     1       5.713   5.043  17.706  0.00  0.00    +0.000 A 
ATOM      2  N   UNL     1       6.013   6.057  16.872  0.00  0.00    +0.000 NA
ATOM      3  C   UNL     1       5.182   7.114  16.823  0.00  0.00    +0.000 A 
ATOM      4  N   UNL     1       4.059   7.313  17.528  0.00  0.00    +0.000 NA
ATOM      5  C   UNL     1       3.800   6.287  18.357  0.00  0.00    +0.000 A 
ATOM      6  C   UNL     1       4.559   5.131  18.498  0.00  0.00    +0.000 A 
ATOM      7  C   UNL     1       3.903   4.314  19.466  0.00  0.00    +0.000 A 
ATOM      8  C   UNL     1       4.098   3.049  20.044  0.00  0.00    +0.000 A 
ATOM      9  N   UNL     1       5.166   2.211  19.736  0.00  0.00    +0.000 N 
ATOM     10  N   UNL     1       3.214   2.597  20.957  0.00  0.00    +0.000 NA
ATOM     11  C   UNL     1       2.185   3.393  21.265  0.00  0.00    +0.000 A 
ATOM     12  N   UNL     1       1.882   4.599  20.791  0.00  0.00    +0.000 NA
ATOM     13  C   UNL     1       2.780   5.016  19.886  0.00  0.00    +0.000 A 
ATOM     14  N   UNL     1       2.723   6.201  19.203  0.00  0.00    +0.000 N 
ATOM     15  H   UNL     1       6.041   2.725  19.650  0.00  0.00    +0.000 HD
ATOM     16  H   UNL     1       5.198   1.447  20.405  0.00  0.00    +0.000 HD
ENDROOT
BRANCH  14  17
ATOM     17  C1* UNL     1       1.662   7.187  19.305  0.00  0.00    +0.000 C 
ATOM     18  O4* UNL     1       1.539   7.899  18.049  0.00  0.00    +0.000 OA
ATOM     19  C4* UNL     1       1.317   9.304  18.334  0.00  0.00    +0.000 C 
ATOM     20  C3* UNL     1       1.117   9.422  19.843  0.00  0.00    +0.000 C 
ATOM     21  C2* UNL     1       1.880   8.232  20.401  0.00  0.00    +0.000 C 
BRANCH  20  22
ATOM     22  O3* UNL     1      -0.268   9.267  20.209  0.00  0.00    +0.000 OA
ATOM     23  H3* UNL     1      -0.457   9.827  20.985  0.00  0.00    +0.000 HD
ENDBRANCH  20  22
BRANCH  21  24
ATOM     24  O2* UNL     1       1.362   7.828  21.669  0.00  0.00    +0.000 OA
ATOM     25  H2* UNL     1       1.053   8.648  22.109  0.00  0.00    +0.000 HD
ENDBRANCH  21  24
BRANCH  19  26
ATOM     26  C5* UNL     1       2.497  10.129  17.815  0.00  0.00    +0.000 C 
BRANCH  26  27
ATOM     27  O5* UNL     1       2.142  11.510  17.787  0.00  0.00    +0.000 OA
ATOM     28  H5* UNL     1       1.169  11.532  17.872  0.00  0.00    +0.000 HD
ENDBRANCH  26  27
ENDBRANCH  19  26
ENDBRANCH  14  17
BRANCH   1  29
ATOM     29  N   UNL     1       6.577   3.950  17.702  0.00  0.00    +0.000 N 
ATOM     30  H   UNL     1       7.438   4.234  18.163  0.00  0.00    +0.000 HD
ATOM     31  H   UNL     1       6.726   3.601  16.757  0.00  0.00    +0.000 HD
ENDBRANCH   1  29
BRANCH  11  32
ATOM     32  O   UNL     1       1.341   2.884  22.203  0.00  0.00    +0.000 OA
ATOM     33  H   UNL     1       1.956   2.834  22.952  0.00  0.00    +0.000 HD
ENDBRANCH  11  32
TORSDOF 7
ENDMDL
MODEL 2
REMARK VINA RESULT:      -6.7      7.186      9.685
REMARK  Name = 
REMARK  7 active torsions:
REMARK  status: ('A' for Active; 'I' for Inactive)
REMARK    1  A    between atoms: N_1  and  C_2
REMARK    2  A    between atoms: C_12  and  O_13
REMARK    3  A    between atoms: N_16  and  C1*_17
REMARK    4  A    between atoms: C4*_19  and  C5*_20
REMARK    5  A    between atoms: C5*_20  and  O5*_21
REMARK    6  A    between atoms: C3*_22  and  O3*_23
REMARK    7  A    between atoms: C2*_24  and  O2*_25
REMARK                            x       y       z     vdW  Elec       q    Type
REMARK                         _______ _______ _______ _____ _____    ______ ____
ROOT
ATOM      1  C   UNL     1      -0.236  11.014  18.971  0.00  0.00    +0.000 A 
ATOM      2  N   UNL     1       0.632  11.187  19.984  0.00  0.00    +0.000 NA
ATOM      3  C   UNL     1       0.200  11.801  21.101  0.00  0.00    +0.000 A 
ATOM      4  N   UNL     1      -1.029  12.270  21.360  0.00  0.00    +0.000 NA
ATOM      5  C   UNL     1      -1.870  12.068  20.331  0.00  0.00    +0.000 A 
ATOM      6  C   UNL     1      -1.556  11.464  19.118  0.00  0.00    +0.000 A 
ATOM      7  C   UNL     1      -2.739  11.482  18.322  0.00  0.00    +0.000 A 
ATOM      8  C   UNL     1      -3.114  11.083  17.029  0.00  0.00    +0.000 A 
ATOM      9  N   UNL     1      -2.249  10.472  16.125  0.00  0.00    +0.000 N 
ATOM     10  N   UNL     1      -4.381  11.287  16.616  0.00  0.00    +0.000 NA
ATOM     11  C   UNL     1      -5.223  11.869  17.475  0.00  0.00    +0.000 A 
ATOM     12  N   UNL     1      -4.998  12.299  18.715  0.00  0.00    +0.000 NA
ATOM     13  C   UNL     1      -3.730  12.081  19.092  0.00  0.00    +0.000 A 
ATOM     14  N   UNL     1      -3.190  12.439  20.299  0.00  0.00    +0.000 N 
ATOM     15  H   UNL     1      -1.652   9.781  16.575  0.00  0.00    +0.000 HD
ATOM     16  H   UNL     1      -2.783  10.110  15.341  0.00  0.00    +0.000 HD
ENDROOT
BRANCH  14  17
ATOM     17  C1* UNL     1      -3.882  13.154  21.356  0.00  0.00    +0.000 C 
ATOM     18  O4* UNL     1      -4.817  12.263  22.013  0.00  0.00    +0.000 OA
ATOM     19  C4* UNL     1      -6.042  12.993  22.277  0.00  0.00    +0.000 C 
ATOM     20  C3* UNL     1      -5.771  14.453  21.924  0.00  0.00    +0.000 C 
ATOM     21  C2* UNL     1      -4.674  14.372  20.877  0.00  0.00    +0.000 C 
BRANCH  20  22
ATOM     22  O3* UNL     1      -5.250  15.185  23.051  0.00  0.00    +0.000 OA
ATOM     23  H3* UNL     1      -5.990  15.451  23.628  0.00  0.00    +0.000 HD
ENDBRANCH  20  22
BRANCH  21  24
ATOM     24  O2* UNL     1      -3.893  15.568  20.844  0.00  0.00    +0.000 OA
ATOM     25  H2* UNL     1      -4.171  16.093  21.623  0.00  0.00    +0.000 HD
ENDBRANCH  21  24
BRANCH  19  26
ATOM     26  C5* UNL     1      -7.192  12.380  21.474  0.00  0.00    +0.000 C 
BRANCH  26  27
ATOM     27  O5* UNL     1      -6.787  11.121  20.940  0.00  0.00    +0.000 OA
ATOM     28  H5* UNL     1      -7.264  10.449  21.464  0.00  0.00    +0.000 HD
ENDBRANCH  26  27
ENDBRANCH  19  26
ENDBRANCH  14  17
BRANCH   1  29
ATOM     29  N   UNL     1       0.258  10.407  17.817  0.00  0.00    +0.000 N 
ATOM     30  H   UNL     1       0.986  11.007  17.439  0.00  0.00    +0.000 HD
ATOM     31  H   UNL     1      -0.489  10.218  17.152  0.00  0.00    +0.000 HD
ENDBRANCH   1  29
BRANCH  11  32
ATOM     32  O   UNL     1      -6.488  12.032  17.001  0.00  0.00    +0.000 OA
ATOM     33  H   UNL     1      -6.292  12.077  16.051  0.00  0.00    +0.000 HD
ENDBRANCH  11  32
TORSDOF 7
ENDMDL
MODEL 3
REMARK VINA RESULT:      -6.6      3.294      5.096
REMARK  Name = 
REMARK  7 active torsions:
REMARK  status: ('A' for Active; 'I' for Inactive)
REMARK    1  A    between atoms: N_1  and  C_2
REMARK    2  A    between atoms: C_12  and  O_13
REMARK    3  A    between atoms: N_16  and  C1*_17
REMARK    4  A    between atoms: C4*_19  and  C5*_20
REMARK    5  A    between atoms: C5*_20  and  O5*_21
REMARK    6  A    between atoms: C3*_22  and  O3*_23
REMARK    7  A    between atoms: C2*_24  and  O2*_25
REMARK                            x       y       z     vdW  Elec       q    Type
REMARK                         _______ _______ _______ _____ _____    ______ ____
ROOT
ATOM      1  C   UNL     1       1.997   6.387  19.944  0.00  0.00    +0.000 A 
ATOM      2  N   UNL     1       1.929   7.543  19.259  0.00  0.00    +0.000 NA
ATOM      3  C   UNL     1       2.849   7.780  18.306  0.00  0.00    +0.000 A 
ATOM      4  N   UNL     1       3.857   6.984  17.919  0.00  0.00    +0.000 NA
ATOM      5  C   UNL     1       3.885   5.836  18.617  0.00  0.00    +0.000 A 
ATOM      6  C   UNL     1       3.011   5.469  19.634  0.00  0.00    +0.000 A 
ATOM      7  C   UNL     1       3.426   4.187  20.101  0.00  0.00    +0.000 A 
ATOM      8  C   UNL     1       3.027   3.276  21.093  0.00  0.00    +0.000 A 
ATOM      9  N   UNL     1       1.950   3.486  21.950  0.00  0.00    +0.000 N 
ATOM     10  N   UNL     1       3.707   2.121  21.241  0.00  0.00    +0.000 NA
ATOM     11  C   UNL     1       4.741   1.905  20.422  0.00  0.00    +0.000 A 
ATOM     12  N   UNL     1       5.225   2.680  19.454  0.00  0.00    +0.000 NA
ATOM     13  C   UNL     1       4.526   3.819  19.335  0.00  0.00    +0.000 A 
ATOM     14  N   UNL     1       4.800   4.827  18.449  0.00  0.00    +0.000 N 
ATOM     15  H   UNL     1       1.151   3.891  21.467  0.00  0.00    +0.000 HD
ATOM     16  H   UNL     1       1.742   2.623  22.445  0.00  0.00    +0.000 HD
ENDROOT
BRANCH  14  17
ATOM     17  C1* UNL     1       5.915   4.858  17.521  0.00  0.00    +0.000 C 
ATOM     18  O4* UNL     1       7.000   5.630  18.092  0.00  0.00    +0.000 OA
ATOM     19  C4* UNL     1       7.585   6.447  17.046  0.00  0.00    +0.000 C 
ATOM     20  C3* UNL     1       6.937   6.015  15.732  0.00  0.00    +0.000 C 
ATOM     21  C2* UNL     1       5.583   5.475  16.161  0.00  0.00    +0.000 C 
BRANCH  20  22
ATOM     22  O3* UNL     1       7.664   4.937  15.111  0.00  0.00    +0.000 OA
ATOM     23  H3* UNL     1       8.587   5.216  14.968  0.00  0.00    +0.000 HD
ENDBRANCH  20  22
BRANCH  21  24
ATOM     24  O2* UNL     1       5.080   4.522  15.223  0.00  0.00    +0.000 OA
ATOM     25  H2* UNL     1       4.650   3.820  15.755  0.00  0.00    +0.000 HD
ENDBRANCH  21  24
BRANCH  19  26
ATOM     26  C5* UNL     1       7.370   7.929  17.366  0.00  0.00    +0.000 C 
BRANCH  26  27
ATOM     27  O5* UNL     1       8.348   8.362  18.310  0.00  0.00    +0.000 OA
ATOM     28  H5* UNL     1       8.354   7.683  19.012  0.00  0.00    +0.000 HD
ENDBRANCH  26  27
ENDBRANCH  19  26
ENDBRANCH  14  17
BRANCH   1  29
ATOM     29  N   UNL     1       1.049   6.194  20.947  0.00  0.00    +0.000 N 
ATOM     30  H   UNL     1       1.095   6.992  21.575  0.00  0.00    +0.000 HD
ATOM     31  H   UNL     1       1.190   5.303  21.422  0.00  0.00    +0.000 HD
ENDBRANCH   1  29
BRANCH  11  32
ATOM     32  O   UNL     1       5.373   0.716  20.614  0.00  0.00    +0.000 OA
ATOM     33  H   UNL     1       5.983   0.742  19.860  0.00  0.00    +0.000 HD
ENDBRANCH  11  32
TORSDOF 7
ENDMDL
MODEL 4
REMARK VINA RESULT:      -6.5      2.913      5.818
REMARK  Name = 
REMARK  7 active torsions:
REMARK  status: ('A' for Active; 'I' for Inactive)
REMARK    1  A    between atoms: N_1  and  C_2
REMARK    2  A    between atoms: C_12  and  O_13
REMARK    3  A    between atoms: N_16  and  C1*_17
REMARK    4  A    between atoms: C4*_19  and  C5*_20
REMARK    5  A    between atoms: C5*_20  and  O5*_21
REMARK    6  A    between atoms: C3*_22  and  O3*_23
REMARK    7  A    between atoms: C2*_24  and  O2*_25
REMARK                            x       y       z     vdW  Elec       q    Type
REMARK                         _______ _______ _______ _____ _____    ______ ____
ROOT
ATOM      1  C   UNL     1       2.892   3.133  21.192  0.00  0.00    +0.000 A 
ATOM      2  N   UNL     1       3.562   1.978  21.359  0.00  0.00    +0.000 NA
ATOM      3  C   UNL     1       4.646   1.750  20.595  0.00  0.00    +0.000 A 
ATOM      4  N   UNL     1       5.182   2.552  19.665  0.00  0.00    +0.000 NA
ATOM      5  C   UNL     1       4.494   3.699  19.536  0.00  0.00    +0.000 A 
ATOM      6  C   UNL     1       3.353   4.058  20.245  0.00  0.00    +0.000 A 
ATOM      7  C   UNL     1       2.951   5.343  19.771  0.00  0.00    +0.000 A 
ATOM      8  C   UNL     1       1.907   6.249  20.018  0.00  0.00    +0.000 A 
ATOM      9  N   UNL     1       0.894   6.029  20.947  0.00  0.00    +0.000 N 
ATOM     10  N   UNL     1       1.862   7.408  19.330  0.00  0.00    +0.000 NA
ATOM     11  C   UNL     1       2.830   7.633  18.437  0.00  0.00    +0.000 A 
ATOM     12  N   UNL     1       3.864   6.862  18.103  0.00  0.00    +0.000 NA
ATOM     13  C   UNL     1       3.877   5.719  18.805  0.00  0.00    +0.000 A 
ATOM     14  N   UNL     1       4.798   4.715  18.665  0.00  0.00    +0.000 N 
ATOM     15  H   UNL     1       1.248   5.620  21.809  0.00  0.00    +0.000 HD
ATOM     16  H   UNL     1       0.370   6.890  21.082  0.00  0.00    +0.000 HD
ENDROOT
BRANCH  14  17
ATOM     17  C1* UNL     1       5.887   4.694  17.706  0.00  0.00    +0.000 C 
ATOM     18  O4* UNL     1       6.989   5.491  18.206  0.00  0.00    +0.000 OA
ATOM     19  C4* UNL     1       7.547   6.251  17.104  0.00  0.00    +0.000 C 
ATOM     20  C3* UNL     1       6.862   5.753  15.833  0.00  0.00    +0.000 C 
ATOM     21  C2* UNL     1       5.519   5.241  16.325  0.00  0.00    +0.000 C 
BRANCH  20  22
ATOM     22  O3* UNL     1       7.570   4.641  15.249  0.00  0.00    +0.000 OA
ATOM     23  H3* UNL     1       7.971   4.926  14.407  0.00  0.00    +0.000 HD
ENDBRANCH  20  22
BRANCH  21  24
ATOM     24  O2* UNL     1       4.989   4.242  15.452  0.00  0.00    +0.000 OA
ATOM     25  H2* UNL     1       5.652   3.520  15.433  0.00  0.00    +0.000 HD
ENDBRANCH  21  24
BRANCH  19  26
ATOM     26  C5* UNL     1       7.344   7.747  17.352  0.00  0.00    +0.000 C 
BRANCH  26  27
ATOM     27  O5* UNL     1       8.311   8.214  18.291  0.00  0.00    +0.000 OA
ATOM     28  H5* UNL     1       8.235   7.620  19.063  0.00  0.00    +0.000 HD
ENDBRANCH  26  27
ENDBRANCH  19  26
ENDBRANCH  14  17
BRANCH   1  29
ATOM     29  N   UNL     1       1.754   3.318  21.975  0.00  0.00    +0.000 N 
ATOM     30  H   UNL     1       1.611   2.471  22.519  0.00  0.00    +0.000 HD
ATOM     31  H   UNL     1       0.948   3.565  21.402  0.00  0.00    +0.000 HD
ENDBRANCH   1  29
BRANCH  11  32
ATOM     32  O   UNL     1       2.734   8.825  17.791  0.00  0.00    +0.000 OA
ATOM     33  H   UNL     1       2.836   8.514  16.877  0.00  0.00    +0.000 HD
ENDBRANCH  11  32
TORSDOF 7
ENDMDL
MODEL 5
REMARK VINA RESULT:      -6.5      6.725      9.497
REMARK  Name = 
REMARK  7 active torsions:
REMARK  status: ('A' for Active; 'I' for Inactive)
REMARK    1  A    between atoms: N_1  and  C_2
REMARK    2  A    between atoms: C_12  and  O_13
REMARK    3  A    between atoms: N_16  and  C1*_17
REMARK    4  A    between atoms: C4*_19  and  C5*_20
REMARK    5  A    between atoms: C5*_20  and  O5*_21
REMARK    6  A    between atoms: C3*_22  and  O3*_23
REMARK    7  A    between atoms: C2*_24  and  O2*_25
REMARK                            x       y       z     vdW  Elec       q    Type
REMARK                         _______ _______ _______ _____ _____    ______ ____
ROOT
ATOM      1  C   UNL     1      -3.414  10.837  16.868  0.00  0.00    +0.000 A 
ATOM      2  N   UNL     1      -4.682  11.090  16.491  0.00  0.00    +0.000 NA
ATOM      3  C   UNL     1      -5.469  11.796  17.323  0.00  0.00    +0.000 A 
ATOM      4  N   UNL     1      -5.149  12.317  18.516  0.00  0.00    +0.000 NA
ATOM      5  C   UNL     1      -3.875  12.055  18.852  0.00  0.00    +0.000 A 
ATOM      6  C   UNL     1      -2.958  11.328  18.100  0.00  0.00    +0.000 A 
ATOM      7  C   UNL     1      -1.744  11.283  18.846  0.00  0.00    +0.000 A 
ATOM      8  C   UNL     1      -0.469  10.712  18.701  0.00  0.00    +0.000 A 
ATOM      9  N   UNL     1      -0.077   9.960  17.597  0.00  0.00    +0.000 N 
ATOM     10  N   UNL     1       0.450  10.893  19.672  0.00  0.00    +0.000 NA
ATOM     11  C   UNL     1       0.088  11.616  20.736  0.00  0.00    +0.000 A 
ATOM     12  N   UNL     1      -1.079  12.202  21.000  0.00  0.00    +0.000 NA
ATOM     13  C   UNL     1      -1.967  12.001  20.015  0.00  0.00    +0.000 A 
ATOM     14  N   UNL     1      -3.260  12.454  20.011  0.00  0.00    +0.000 N 
ATOM     15  H   UNL     1      -0.412  10.361  16.724  0.00  0.00    +0.000 HD
ATOM     16  H   UNL     1       0.928   9.816  17.629  0.00  0.00    +0.000 HD
ENDROOT
BRANCH  14  17
ATOM     17  C1* UNL     1      -3.903  13.186  21.087  0.00  0.00    +0.000 C 
ATOM     18  O4* UNL     1      -4.753  12.290  21.843  0.00  0.00    +0.000 OA
ATOM     19  C4* UNL     1      -5.985  12.984  22.167  0.00  0.00    +0.000 C 
ATOM     20  C3* UNL     1      -5.798  14.438  21.738  0.00  0.00    +0.000 C 
ATOM     21  C2* UNL     1      -4.775  14.353  20.618  0.00  0.00    +0.000 C 
BRANCH  20  22
ATOM     22  O3* UNL     1      -5.229  15.235  22.795  0.00  0.00    +0.000 OA
ATOM     23  H3* UNL     1      -4.804  14.645  23.445  0.00  0.00    +0.000 HD
ENDBRANCH  20  22
BRANCH  21  24
ATOM     24  O2* UNL     1      -4.047  15.575  20.482  0.00  0.00    +0.000 OA
ATOM     25  H2* UNL     1      -4.370  16.162  21.197  0.00  0.00    +0.000 HD
ENDBRANCH  21  24
BRANCH  19  26
ATOM     26  C5* UNL     1      -7.163  12.296  21.474  0.00  0.00    +0.000 C 
BRANCH  26  27
ATOM     27  O5* UNL     1      -6.721  11.083  20.866  0.00  0.00    +0.000 OA
ATOM     28  H5* UNL     1      -6.392  10.528  21.599  0.00  0.00    +0.000 HD
ENDBRANCH  26  27
ENDBRANCH  19  26
ENDBRANCH  14  17
BRANCH   1  29
ATOM     29  N   UNL     1      -2.641  10.072  15.997  0.00  0.00    +0.000 N 
ATOM     30  H   UNL     1      -2.693  10.502  15.077  0.00  0.00    +0.000 HD
ATOM     31  H   UNL     1      -2.938   9.098  15.999  0.00  0.00    +0.000 HD
ENDBRANCH   1  29
BRANCH  11  32
ATOM     32  O   UNL     1       1.065  11.772  21.669  0.00  0.00    +0.000 OA
ATOM     33  H   UNL     1       0.525  11.692  22.472  0.00  0.00    +0.000 HD
ENDBRANCH  11  32
TORSDOF 7
ENDMDL
MODEL 6
REMARK VINA RESULT:      -6.5      7.839     10.803
REMARK  Name = 
REMARK  7 active torsions:
REMARK  status: ('A' for Active; 'I' for Inactive)
REMARK    1  A    between atoms: N_1  and  C_2
REMARK    2  A    between atoms: C_12  and  O_13
REMARK    3  A    between atoms: N_16  and  C1*_17
REMARK    4  A    between atoms: C4*_19  and  C5*_20
REMARK    5  A    between atoms: C5*_20  and  O5*_21
REMARK    6  A    between atoms: C3*_22  and  O3*_23
REMARK    7  A    between atoms: C2*_24  and  O2*_25
REMARK                            x       y       z     vdW  Elec       q    Type
REMARK                         _______ _______ _______ _____ _____    ______ ____
ROOT
ATOM      1  C   UNL     1      -5.344  11.661  17.640  0.00  0.00    +0.000 A 
ATOM      2  N   UNL     1      -6.678  11.796  17.761  0.00  0.00    +0.000 NA
ATOM      3  C   UNL     1      -7.172  12.268  18.921  0.00  0.00    +0.000 A 
ATOM      4  N   UNL     1      -6.492  12.652  20.010  0.00  0.00    +0.000 NA
ATOM      5  C   UNL     1      -5.165  12.514  19.847  0.00  0.00    +0.000 A 
ATOM      6  C   UNL     1      -4.521  12.028  18.714  0.00  0.00    +0.000 A 
ATOM      7  C   UNL     1      -3.122  12.038  18.990  0.00  0.00    +0.000 A 
ATOM      8  C   UNL     1      -1.941  11.666  18.327  0.00  0.00    +0.000 A 
ATOM      9  N   UNL     1      -1.909  11.136  17.040  0.00  0.00    +0.000 N 
ATOM     10  N   UNL     1      -0.756  11.826  18.950  0.00  0.00    +0.000 NA
ATOM     11  C   UNL     1      -0.772  12.337  20.184  0.00  0.00    +0.000 A 
ATOM     12  N   UNL     1      -1.811  12.721  20.924  0.00  0.00    +0.000 NA
ATOM     13  C   UNL     1      -2.972  12.547  20.275  0.00  0.00    +0.000 A 
ATOM     14  N   UNL     1      -4.213  12.822  20.785  0.00  0.00    +0.000 N 
ATOM     15  H   UNL     1      -2.558  11.609  16.416  0.00  0.00    +0.000 HD
ATOM     16  H   UNL     1      -0.949  11.122  16.707  0.00  0.00    +0.000 HD
ENDROOT
BRANCH  14  17
ATOM     17  C1* UNL     1      -4.488  13.303  22.126  0.00  0.00    +0.000 C 
ATOM     18  O4* UNL     1      -5.194  12.282  22.873  0.00  0.00    +0.000 OA
ATOM     19  C4* UNL     1      -6.233  12.920  23.660  0.00  0.00    +0.000 C 
ATOM     20  C3* UNL     1      -6.030  14.427  23.521  0.00  0.00    +0.000 C 
ATOM     21  C2* UNL     1      -5.340  14.574  22.175  0.00  0.00    +0.000 C 
BRANCH  20  22
ATOM     22  O3* UNL     1      -5.138  14.938  24.530  0.00  0.00    +0.000 OA
ATOM     23  H3* UNL     1      -4.559  15.615  24.131  0.00  0.00    +0.000 HD
ENDBRANCH  20  22
BRANCH  21  24
ATOM     24  O2* UNL     1      -4.563  15.771  22.114  0.00  0.00    +0.000 OA
ATOM     25  H2* UNL     1      -3.655  15.517  22.383  0.00  0.00    +0.000 HD
ENDBRANCH  21  24
BRANCH  19  26
ATOM     26  C5* UNL     1      -7.608  12.448  23.180  0.00  0.00    +0.000 C 
BRANCH  26  27
ATOM     27  O5* UNL     1      -7.467  11.242  22.432  0.00  0.00    +0.000 OA
ATOM     28  H5* UNL     1      -8.300  10.749  22.570  0.00  0.00    +0.000 HD
ENDBRANCH  26  27
ENDBRANCH  19  26
ENDBRANCH  14  17
BRANCH   1  29
ATOM     29  N   UNL     1      -4.873  11.136  16.438  0.00  0.00    +0.000 N 
ATOM     30  H   UNL     1      -4.230  10.381  16.661  0.00  0.00    +0.000 HD
ATOM     31  H   UNL     1      -4.454  11.860  15.858  0.00  0.00    +0.000 HD
ENDBRANCH   1  29
BRANCH  11  32
ATOM     32  O   UNL     1       0.457  12.486  20.748  0.00  0.00    +0.000 OA
ATOM     33  H   UNL     1       1.005  12.213  19.996  0.00  0.00    +0.000 HD
ENDBRANCH  11  32
TORSDOF 7
ENDMDL
MODEL 7
REMARK VINA RESULT:      -6.5      1.799      4.370
REMARK  Name = 
REMARK  7 active torsions:
REMARK  status: ('A' for Active; 'I' for Inactive)
REMARK    1  A    between atoms: N_1  and  C_2
REMARK    2  A    between atoms: C_12  and  O_13
REMARK    3  A    between atoms: N_16  and  C1*_17
REMARK    4  A    between atoms: C4*_19  and  C5*_20
REMARK    5  A    between atoms: C5*_20  and  O5*_21
REMARK    6  A    between atoms: C3*_22  and  O3*_23
REMARK    7  A    between atoms: C2*_24  and  O2*_25
REMARK                            x       y       z     vdW  Elec       q    Type
REMARK                         _______ _______ _______ _____ _____    ______ ____
ROOT
ATOM      1  C   UNL     1       2.332   2.896  19.367  0.00  0.00    +0.000 A 
ATOM      2  N   UNL     1       1.464   2.843  20.395  0.00  0.00    +0.000 NA
ATOM      3  C   UNL     1       1.037   4.000  20.933  0.00  0.00    +0.000 A 
ATOM      4  N   UNL     1       1.357   5.248  20.563  0.00  0.00    +0.000 NA
ATOM      5  C   UNL     1       2.214   5.260  19.529  0.00  0.00    +0.000 A 
ATOM      6  C   UNL     1       2.747   4.147  18.888  0.00  0.00    +0.000 A 
ATOM      7  C   UNL     1       3.620   4.627  17.867  0.00  0.00    +0.000 A 
ATOM      8  C   UNL     1       4.473   4.072  16.900  0.00  0.00    +0.000 A 
ATOM      9  N   UNL     1       4.648   2.703  16.714  0.00  0.00    +0.000 N 
ATOM     10  N   UNL     1       5.173   4.891  16.088  0.00  0.00    +0.000 NA
ATOM     11  C   UNL     1       5.011   6.207  16.254  0.00  0.00    +0.000 A 
ATOM     12  N   UNL     1       4.248   6.859  17.128  0.00  0.00    +0.000 NA
ATOM     13  C   UNL     1       3.568   6.015  17.918  0.00  0.00    +0.000 A 
ATOM     14  N   UNL     1       2.724   6.385  18.931  0.00  0.00    +0.000 N 
ATOM     15  H   UNL     1       3.769   2.194  16.778  0.00  0.00    +0.000 HD
ATOM     16  H   UNL     1       5.158   2.544  15.850  0.00  0.00    +0.000 HD
ENDROOT
BRANCH  14  17
ATOM     17  C1* UNL     1       2.455   7.748  19.353  0.00  0.00    +0.000 C 
ATOM     18  O4* UNL     1       2.022   7.751  20.735  0.00  0.00    +0.000 OA
ATOM     19  C4* UNL     1       0.937   8.703  20.877  0.00  0.00    +0.000 C 
ATOM     20  C3* UNL     1       0.824   9.447  19.549  0.00  0.00    +0.000 C 
ATOM     21  C2* UNL     1       1.372   8.456  18.535  0.00  0.00    +0.000 C 
BRANCH  20  22
ATOM     22  O3* UNL     1       1.667  10.616  19.521  0.00  0.00    +0.000 OA
ATOM     23  H3* UNL     1       1.406  11.214  20.245  0.00  0.00    +0.000 HD
ENDBRANCH  20  22
BRANCH  21  24
ATOM     24  O2* UNL     1       1.888   9.120  17.381  0.00  0.00    +0.000 OA
ATOM     25  H2* UNL     1       2.472   9.832  17.718  0.00  0.00    +0.000 HD
ENDBRANCH  21  24
BRANCH  19  26
ATOM     26  C5* UNL     1      -0.347   7.968  21.269  0.00  0.00    +0.000 C 
BRANCH  26  27
ATOM     27  O5* UNL     1      -0.817   8.456  22.524  0.00  0.00    +0.000 OA
ATOM     28  H5* UNL     1      -0.086   8.305  23.154  0.00  0.00    +0.000 HD
ENDBRANCH  26  27
ENDBRANCH  19  26
ENDBRANCH  14  17
BRANCH   1  29
ATOM     29  N   UNL     1       2.779   1.677  18.860  0.00  0.00    +0.000 N 
ATOM     30  H   UNL     1       3.651   1.848  18.366  0.00  0.00    +0.000 HD
ATOM     31  H   UNL     1       2.069   1.238  18.276  0.00  0.00    +0.000 HD
ENDBRANCH   1  29
BRANCH  11  32
ATOM     32  O   UNL     1       5.733   6.975  15.394  0.00  0.00    +0.000 OA
ATOM     33  H   UNL     1       5.944   6.302  14.726  0.00  0.00    +0.000 HD
ENDBRANCH  11  32
TORSDOF 7
ENDMDL
MODEL 8
REMARK VINA RESULT:      -6.4      3.211      5.420
REMARK  Name = 
REMARK  7 active torsions:
REMARK  status: ('A' for Active; 'I' for Inactive)
REMARK    1  A    between atoms: N_1  and  C_2
REMARK    2  A    between atoms: C_12  and  O_13
REMARK    3  A    between atoms: N_16  and  C1*_17
REMARK    4  A    between atoms: C4*_19  and  C5*_20
REMARK    5  A    between atoms: C5*_20  and  O5*_21
REMARK    6  A    between atoms: C3*_22  and  O3*_23
REMARK    7  A    between atoms: C2*_24  and  O2*_25
REMARK                            x       y       z     vdW  Elec       q    Type
REMARK                         _______ _______ _______ _____ _____    ______ ____
ROOT
ATOM      1  C   UNL     1       1.701   7.325  19.780  0.00  0.00    +0.000 A 
ATOM      2  N   UNL     1       1.595   8.549  19.228  0.00  0.00    +0.000 NA
ATOM      3  C   UNL     1       2.460   8.890  18.255  0.00  0.00    +0.000 A 
ATOM      4  N   UNL     1       3.442   8.146  17.728  0.00  0.00    +0.000 NA
ATOM      5  C   UNL     1       3.509   6.930  18.295  0.00  0.00    +0.000 A 
ATOM      6  C   UNL     1       2.694   6.451  19.315  0.00  0.00    +0.000 A 
ATOM      7  C   UNL     1       3.133   5.128  19.617  0.00  0.00    +0.000 A 
ATOM      8  C   UNL     1       2.790   4.114  20.526  0.00  0.00    +0.000 A 
ATOM      9  N   UNL     1       1.764   4.226  21.461  0.00  0.00    +0.000 N 
ATOM     10  N   UNL     1       3.475   2.953  20.510  0.00  0.00    +0.000 NA
ATOM     11  C   UNL     1       4.460   2.831  19.615  0.00  0.00    +0.000 A 
ATOM     12  N   UNL     1       4.889   3.708  18.709  0.00  0.00    +0.000 NA
ATOM     13  C   UNL     1       4.187   4.850  18.754  0.00  0.00    +0.000 A 
ATOM     14  N   UNL     1       4.411   5.948  17.967  0.00  0.00    +0.000 N 
ATOM     15  H   UNL     1       0.940   4.677  21.071  0.00  0.00    +0.000 HD
ATOM     16  H   UNL     1       1.583   3.314  21.871  0.00  0.00    +0.000 HD
ENDROOT
BRANCH  14  17
ATOM     17  C1* UNL     1       5.471   6.084  16.986  0.00  0.00    +0.000 C 
ATOM     18  O4* UNL     1       4.921   5.931  15.654  0.00  0.00    +0.000 OA
ATOM     19  C4* UNL     1       5.844   5.140  14.862  0.00  0.00    +0.000 C 
ATOM     20  C3* UNL     1       7.103   4.954  15.704  0.00  0.00    +0.000 C 
ATOM     21  C2* UNL     1       6.598   5.059  17.134  0.00  0.00    +0.000 C 
BRANCH  20  22
ATOM     22  O3* UNL     1       8.047   6.023  15.492  0.00  0.00    +0.000 OA
ATOM     23  H3* UNL     1       7.820   6.769  16.077  0.00  0.00    +0.000 HD
ENDBRANCH  20  22
BRANCH  21  24
ATOM     24  O2* UNL     1       7.630   5.489  18.023  0.00  0.00    +0.000 OA
ATOM     25  H2* UNL     1       8.248   4.732  18.105  0.00  0.00    +0.000 HD
ENDBRANCH  21  24
BRANCH  19  26
ATOM     26  C5* UNL     1       5.182   3.818  14.465  0.00  0.00    +0.000 C 
BRANCH  26  27
ATOM     27  O5* UNL     1       6.004   3.134  13.521  0.00  0.00    +0.000 OA
ATOM     28  H5* UNL     1       6.924   3.322  13.791  0.00  0.00    +0.000 HD
ENDBRANCH  26  27
ENDBRANCH  19  26
ENDBRANCH  14  17
BRANCH   1  29
ATOM     29  N   UNL     1       0.812   7.021  20.809  0.00  0.00    +0.000 N 
ATOM     30  H   UNL     1       1.067   7.584  21.616  0.00  0.00    +0.000 HD
ATOM     31  H   UNL     1       0.803   6.022  21.005  0.00  0.00    +0.000 HD
ENDBRANCH   1  29
BRANCH  11  32
ATOM     32  O   UNL     1       5.100   1.631  19.641  0.00  0.00    +0.000 OA
ATOM     33  H   UNL     1       5.200   1.531  20.602  0.00  0.00    +0.000 HD
ENDBRANCH  11  32
TORSDOF 7
ENDMDL
MODEL 9
REMARK VINA RESULT:      -6.4      9.022     10.955
REMARK  Name = 
REMARK  7 active torsions:
REMARK  status: ('A' for Active; 'I' for Inactive)
REMARK    1  A    between atoms: N_1  and  C_2
REMARK    2  A    between atoms: C_12  and  O_13
REMARK    3  A    between atoms: N_16  and  C1*_17
REMARK    4  A    between atoms: C4*_19  and  C5*_20
REMARK    5  A    between atoms: C5*_20  and  O5*_21
REMARK    6  A    between atoms: C3*_22  and  O3*_23
REMARK    7  A    between atoms: C2*_24  and  O2*_25
REMARK                            x       y       z     vdW  Elec       q    Type
REMARK                         _______ _______ _______ _____ _____    ______ ____
ROOT
ATOM      1  C   UNL     1       6.542  16.265  20.105  0.00  0.00    +0.000 A 
ATOM      2  N   UNL     1       6.809  17.059  19.051  0.00  0.00    +0.000 NA
ATOM      3  C   UNL     1       7.876  16.768  18.284  0.00  0.00    +0.000 A 
ATOM      4  N   UNL     1       8.735  15.748  18.420  0.00  0.00    +0.000 NA
ATOM      5  C   UNL     1       8.429  14.973  19.474  0.00  0.00    +0.000 A 
ATOM      6  C   UNL     1       7.371  15.163  20.356  0.00  0.00    +0.000 A 
ATOM      7  C   UNL     1       7.441  14.119  21.326  0.00  0.00    +0.000 A 
ATOM      8  C   UNL     1       6.732  13.737  22.477  0.00  0.00    +0.000 A 
ATOM      9  N   UNL     1       5.621  14.418  22.965  0.00  0.00    +0.000 N 
ATOM     10  N   UNL     1       7.128  12.646  23.164  0.00  0.00    +0.000 NA
ATOM     11  C   UNL     1       8.192  11.980  22.704  0.00  0.00    +0.000 A 
ATOM     12  N   UNL     1       8.951  12.237  21.640  0.00  0.00    +0.000 NA
ATOM     13  C   UNL     1       8.530  13.326  20.982  0.00  0.00    +0.000 A 
ATOM     14  N   UNL     1       9.124  13.857  19.868  0.00  0.00    +0.000 N 
ATOM     15  H   UNL     1       4.996  14.714  22.218  0.00  0.00    +0.000 HD
ATOM     16  H   UNL     1       5.173  13.858  23.684  0.00  0.00    +0.000 HD
ENDROOT
BRANCH  14  17
ATOM     17  C1* UNL     1      10.333  13.361  19.236  0.00  0.00    +0.000 C 
ATOM     18  O4* UNL     1      11.329  14.412  19.203  0.00  0.00    +0.000 OA
ATOM     19  C4* UNL     1      12.004  14.368  17.920  0.00  0.00    +0.000 C 
ATOM     20  C3* UNL     1      11.515  13.111  17.205  0.00  0.00    +0.000 C 
ATOM     21  C2* UNL     1      10.135  12.875  17.798  0.00  0.00    +0.000 C 
BRANCH  20  22
ATOM     22  O3* UNL     1      12.331  11.966  17.523  0.00  0.00    +0.000 OA
ATOM     23  H3* UNL     1      12.813  11.687  16.723  0.00  0.00    +0.000 HD
ENDBRANCH  20  22
BRANCH  21  24
ATOM     24  O2* UNL     1       9.761  11.499  17.720  0.00  0.00    +0.000 OA
ATOM     25  H2* UNL     1      10.317  11.030  18.378  0.00  0.00    +0.000 HD
ENDBRANCH  21  24
BRANCH  19  26
ATOM     26  C5* UNL     1      11.719  15.655  17.142  0.00  0.00    +0.000 C 
BRANCH  26  27
ATOM     27  O5* UNL     1      10.901  15.361  16.011  0.00  0.00    +0.000 OA
ATOM     28  H5* UNL     1      10.986  14.398  15.869  0.00  0.00    +0.000 HD
ENDBRANCH  26  27
ENDBRANCH  19  26
ENDBRANCH  14  17
BRANCH   1  29
ATOM     29  N   UNL     1       5.451  16.619  20.897  0.00  0.00    +0.000 N 
ATOM     30  H   UNL     1       5.686  17.481  21.381  0.00  0.00    +0.000 HD
ATOM     31  H   UNL     1       5.194  15.863  21.528  0.00  0.00    +0.000 HD
ENDBRANCH   1  29
BRANCH  11  32
ATOM     32  O   UNL     1       8.528  10.883  23.434  0.00  0.00    +0.000 OA
ATOM     33  H   UNL     1       9.384  11.184  23.779  0.00  0.00    +0.000 HD
ENDBRANCH  11  32
TORSDOF 7
ENDMDL
