MODEL 1
REMARK VINA RESULT:      -8.1      0.000      0.000
REMARK  Name = 
REMARK  3 active torsions:
REMARK  status: ('A' for Active; 'I' for Inactive)
REMARK    1  A    between atoms: C_4  and  O_5
REMARK    2  A    between atoms: O_5  and  C_6
REMARK    3  A    between atoms: C_6  and  C_7
REMARK                            x       y       z     vdW  Elec       q    Type
REMARK                         _______ _______ _______ _____ _____    ______ ____
ROOT
ATOM      1  N   UNL     1       7.326   5.346  19.564  0.00  0.00    +0.000 N 
ATOM      2  C   UNL     1       6.834   5.037  18.313  0.00  0.00    +0.000 A 
ATOM      3  N   UNL     1       5.619   4.480  18.283  0.00  0.00    +0.000 NA
ATOM      4  C   UNL     1       5.067   4.160  17.088  0.00  0.00    +0.000 A 
ATOM      5  C   UNL     1       5.787   4.412  15.926  0.00  0.00    +0.000 A 
ATOM      6  C   UNL     1       5.655   4.283  14.530  0.00  0.00    +0.000 A 
ATOM      7  N   UNL     1       6.741   4.709  13.865  0.00  0.00    +0.000 NA
ATOM      8  N   UNL     1       7.565   5.120  14.853  0.00  0.00    +0.000 N 
ATOM      9  C   UNL     1       7.040   4.966  16.102  0.00  0.00    +0.000 A 
ATOM     10  N   UNL     1       7.624   5.289  17.263  0.00  0.00    +0.000 NA
ATOM     11  H   UNL     1       6.861   4.784  20.264  0.00  0.00    +0.000 HD
ATOM     12  H   UNL     1       8.335   5.341  19.559  0.00  0.00    +0.000 HD
ATOM     13  H   UNL     1       8.474   5.499  14.617  0.00  0.00    +0.000 HD
ENDROOT
BRANCH   4  14
ATOM     14  O   UNL     1       3.805   3.589  17.053  0.00  0.00    +0.000 OA
BRANCH  14  15
ATOM     15  C   UNL     1       3.745   2.398  17.845  0.00  0.00    +0.000 C 
BRANCH  15  16
ATOM     16  C   UNL     1       2.867   2.628  19.052  0.00  0.00    +0.000 A 
ATOM     17  C   UNL     1       1.521   2.987  18.896  0.00  0.00    +0.000 A 
ATOM     18  C   UNL     1       0.712   3.200  20.013  0.00  0.00    +0.000 A 
ATOM     19  C   UNL     1       1.240   3.061  21.295  0.00  0.00    +0.000 A 
ATOM     20  C   UNL     1       2.576   2.699  21.461  0.00  0.00    +0.000 A 
ATOM     21  C   UNL     1       3.387   2.485  20.346  0.00  0.00    +0.000 A 
ENDBRANCH  15  16
ENDBRANCH  14  15
ENDBRANCH   4  14
TORSDOF 3
ENDMDL
MODEL 2
REMARK VINA RESULT:      -8.0      1.284      2.892
REMARK  Name = 
REMARK  3 active torsions:
REMARK  status: ('A' for Active; 'I' for Inactive)
REMARK    1  A    between atoms: C_4  and  O_5
REMARK    2  A    between atoms: O_5  and  C_6
REMARK    3  A    between atoms: C_6  and  C_7
REMARK                            x       y       z     vdW  Elec       q    Type
REMARK                         _______ _______ _______ _____ _____    ______ ____
ROOT
ATOM      1  N   UNL     1       7.058   4.642  14.053  0.00  0.00    +0.000 N 
ATOM      2  C   UNL     1       6.692   4.797  15.373  0.00  0.00    +0.000 A 
ATOM      3  N   UNL     1       5.380   4.922  15.605  0.00  0.00    +0.000 NA
ATOM      4  C   UNL     1       4.944   5.067  16.880  0.00  0.00    +0.000 A 
ATOM      5  C   UNL     1       5.877   5.090  17.911  0.00  0.00    +0.000 A 
ATOM      6  C   UNL     1       5.927   5.196  19.314  0.00  0.00    +0.000 A 
ATOM      7  N   UNL     1       7.181   5.166  19.792  0.00  0.00    +0.000 NA
ATOM      8  N   UNL     1       7.932   5.031  18.678  0.00  0.00    +0.000 N 
ATOM      9  C   UNL     1       7.200   4.977  17.529  0.00  0.00    +0.000 A 
ATOM     10  N   UNL     1       7.672   4.841  16.282  0.00  0.00    +0.000 NA
ATOM     11  H   UNL     1       6.333   5.004  13.450  0.00  0.00    +0.000 HD
ATOM     12  H   UNL     1       7.998   4.980  13.905  0.00  0.00    +0.000 HD
ATOM     13  H   UNL     1       8.940   4.977  18.761  0.00  0.00    +0.000 HD
ENDROOT
BRANCH   4  14
ATOM     14  O   UNL     1       3.587   5.190  17.125  0.00  0.00    +0.000 OA
BRANCH  14  15
ATOM     15  C   UNL     1       2.955   3.910  17.237  0.00  0.00    +0.000 C 
BRANCH  15  16
ATOM     16  C   UNL     1       2.375   3.743  18.622  0.00  0.00    +0.000 A 
ATOM     17  C   UNL     1       2.111   4.862  19.423  0.00  0.00    +0.000 A 
ATOM     18  C   UNL     1       1.576   4.705  20.703  0.00  0.00    +0.000 A 
ATOM     19  C   UNL     1       1.304   3.430  21.194  0.00  0.00    +0.000 A 
ATOM     20  C   UNL     1       1.558   2.311  20.403  0.00  0.00    +0.000 A 
ATOM     21  C   UNL     1       2.092   2.465  19.123  0.00  0.00    +0.000 A 
ENDBRANCH  15  16
ENDBRANCH  14  15
ENDBRANCH   4  14
TORSDOF 3
ENDMDL
MODEL 3
REMARK VINA RESULT:      -8.0      1.383      2.921
REMARK  Name = 
REMARK  3 active torsions:
REMARK  status: ('A' for Active; 'I' for Inactive)
REMARK    1  A    between atoms: C_4  and  O_5
REMARK    2  A    between atoms: O_5  and  C_6
REMARK    3  A    between atoms: C_6  and  C_7
REMARK                            x       y       z     vdW  Elec       q    Type
REMARK                         _______ _______ _______ _____ _____    ______ ____
ROOT
ATOM      1  N   UNL     1       6.624   3.934  14.155  0.00  0.00    +0.000 N 
ATOM      2  C   UNL     1       6.385   4.308  15.461  0.00  0.00    +0.000 A 
ATOM      3  N   UNL     1       5.117   4.613  15.759  0.00  0.00    +0.000 NA
ATOM      4  C   UNL     1       4.803   4.978  17.025  0.00  0.00    +0.000 A 
ATOM      5  C   UNL     1       5.814   5.034  17.978  0.00  0.00    +0.000 A 
ATOM      6  C   UNL     1       5.989   5.324  19.345  0.00  0.00    +0.000 A 
ATOM      7  N   UNL     1       7.268   5.216  19.739  0.00  0.00    +0.000 NA
ATOM      8  N   UNL     1       7.908   4.845  18.608  0.00  0.00    +0.000 N 
ATOM      9  C   UNL     1       7.083   4.720  17.530  0.00  0.00    +0.000 A 
ATOM     10  N   UNL     1       7.435   4.363  16.288  0.00  0.00    +0.000 NA
ATOM     11  H   UNL     1       5.894   4.292  13.556  0.00  0.00    +0.000 HD
ATOM     12  H   UNL     1       7.579   4.139  13.899  0.00  0.00    +0.000 HD
ATOM     13  H   UNL     1       8.907   4.688  18.632  0.00  0.00    +0.000 HD
ENDROOT
BRANCH   4  14
ATOM     14  O   UNL     1       3.490   5.288  17.339  0.00  0.00    +0.000 OA
BRANCH  14  15
ATOM     15  C   UNL     1       2.681   4.111  17.433  0.00  0.00    +0.000 C 
BRANCH  15  16
ATOM     16  C   UNL     1       2.328   3.844  18.877  0.00  0.00    +0.000 A 
ATOM     17  C   UNL     1       1.980   2.552  19.298  0.00  0.00    +0.000 A 
ATOM     18  C   UNL     1       1.653   2.308  20.632  0.00  0.00    +0.000 A 
ATOM     19  C   UNL     1       1.667   3.351  21.557  0.00  0.00    +0.000 A 
ATOM     20  C   UNL     1       2.017   4.637  21.149  0.00  0.00    +0.000 A 
ATOM     21  C   UNL     1       2.344   4.884  19.816  0.00  0.00    +0.000 A 
ENDBRANCH  15  16
ENDBRANCH  14  15
ENDBRANCH   4  14
TORSDOF 3
ENDMDL
MODEL 4
REMARK VINA RESULT:      -8.0      1.541      1.816
REMARK  Name = 
REMARK  3 active torsions:
REMARK  status: ('A' for Active; 'I' for Inactive)
REMARK    1  A    between atoms: C_4  and  O_5
REMARK    2  A    between atoms: O_5  and  C_6
REMARK    3  A    between atoms: C_6  and  C_7
REMARK                            x       y       z     vdW  Elec       q    Type
REMARK                         _______ _______ _______ _____ _____    ______ ____
ROOT
ATOM      1  N   UNL     1       7.769   5.454  20.012  0.00  0.00    +0.000 N 
ATOM      2  C   UNL     1       7.122   5.503  18.795  0.00  0.00    +0.000 A 
ATOM      3  N   UNL     1       5.824   5.819  18.835  0.00  0.00    +0.000 NA
ATOM      4  C   UNL     1       5.125   5.898  17.676  0.00  0.00    +0.000 A 
ATOM      5  C   UNL     1       5.780   5.638  16.478  0.00  0.00    +0.000 A 
ATOM      6  C   UNL     1       5.518   5.604  15.095  0.00  0.00    +0.000 A 
ATOM      7  N   UNL     1       6.596   5.258  14.371  0.00  0.00    +0.000 NA
ATOM      8  N   UNL     1       7.551   5.079  15.309  0.00  0.00    +0.000 N 
ATOM      9  C   UNL     1       7.114   5.297  16.582  0.00  0.00    +0.000 A 
ATOM     10  N   UNL     1       7.838   5.200  17.706  0.00  0.00    +0.000 NA
ATOM     11  H   UNL     1       7.097   5.308  20.752  0.00  0.00    +0.000 HD
ATOM     12  H   UNL     1       8.557   4.824  19.968  0.00  0.00    +0.000 HD
ATOM     13  H   UNL     1       8.484   4.811  15.022  0.00  0.00    +0.000 HD
ENDROOT
BRANCH   4  14
ATOM     14  O   UNL     1       3.781   6.232  17.713  0.00  0.00    +0.000 OA
BRANCH  14  15
ATOM     15  C   UNL     1       3.277   6.234  19.053  0.00  0.00    +0.000 C 
BRANCH  15  16
ATOM     16  C   UNL     1       2.400   5.025  19.274  0.00  0.00    +0.000 A 
ATOM     17  C   UNL     1       1.968   4.251  18.189  0.00  0.00    +0.000 A 
ATOM     18  C   UNL     1       1.156   3.134  18.395  0.00  0.00    +0.000 A 
ATOM     19  C   UNL     1       0.767   2.783  19.687  0.00  0.00    +0.000 A 
ATOM     20  C   UNL     1       1.196   3.544  20.773  0.00  0.00    +0.000 A 
ATOM     21  C   UNL     1       2.008   4.660  20.569  0.00  0.00    +0.000 A 
ENDBRANCH  15  16
ENDBRANCH  14  15
ENDBRANCH   4  14
TORSDOF 3
ENDMDL
MODEL 5
REMARK VINA RESULT:      -8.0      1.460      1.937
REMARK  Name = 
REMARK  3 active torsions:
REMARK  status: ('A' for Active; 'I' for Inactive)
REMARK    1  A    between atoms: C_4  and  O_5
REMARK    2  A    between atoms: O_5  and  C_6
REMARK    3  A    between atoms: C_6  and  C_7
REMARK                            x       y       z     vdW  Elec       q    Type
REMARK                         _______ _______ _______ _____ _____    ______ ____
ROOT
ATOM      1  N   UNL     1       7.708   5.492  19.994  0.00  0.00    +0.000 N 
ATOM      2  C   UNL     1       7.081   5.502  18.766  0.00  0.00    +0.000 A 
ATOM      3  N   UNL     1       5.764   5.733  18.783  0.00  0.00    +0.000 NA
ATOM      4  C   UNL     1       5.083   5.769  17.612  0.00  0.00    +0.000 A 
ATOM      5  C   UNL     1       5.774   5.554  16.426  0.00  0.00    +0.000 A 
ATOM      6  C   UNL     1       5.540   5.507  15.038  0.00  0.00    +0.000 A 
ATOM      7  N   UNL     1       6.650   5.233  14.334  0.00  0.00    +0.000 NA
ATOM      8  N   UNL     1       7.598   5.115  15.288  0.00  0.00    +0.000 N 
ATOM      9  C   UNL     1       7.126   5.301  16.553  0.00  0.00    +0.000 A 
ATOM     10  N   UNL     1       7.834   5.249  17.689  0.00  0.00    +0.000 NA
ATOM     11  H   UNL     1       7.033   5.302  20.722  0.00  0.00    +0.000 HD
ATOM     12  H   UNL     1       8.536   4.915  19.964  0.00  0.00    +0.000 HD
ATOM     13  H   UNL     1       8.552   4.909  15.018  0.00  0.00    +0.000 HD
ENDROOT
BRANCH   4  14
ATOM     14  O   UNL     1       3.719   6.015  17.625  0.00  0.00    +0.000 OA
BRANCH  14  15
ATOM     15  C   UNL     1       3.223   6.151  18.961  0.00  0.00    +0.000 C 
BRANCH  15  16
ATOM     16  C   UNL     1       2.377   4.953  19.320  0.00  0.00    +0.000 A 
ATOM     17  C   UNL     1       2.189   4.588  20.661  0.00  0.00    +0.000 A 
ATOM     18  C   UNL     1       1.408   3.480  20.989  0.00  0.00    +0.000 A 
ATOM     19  C   UNL     1       0.811   2.723  19.983  0.00  0.00    +0.000 A 
ATOM     20  C   UNL     1       0.987   3.080  18.647  0.00  0.00    +0.000 A 
ATOM     21  C   UNL     1       1.767   4.189  18.316  0.00  0.00    +0.000 A 
ENDBRANCH  15  16
ENDBRANCH  14  15
ENDBRANCH   4  14
TORSDOF 3
ENDMDL
MODEL 6
REMARK VINA RESULT:      -7.9      0.977      1.193
REMARK  Name = 
REMARK  3 active torsions:
REMARK  status: ('A' for Active; 'I' for Inactive)
REMARK    1  A    between atoms: C_4  and  O_5
REMARK    2  A    between atoms: O_5  and  C_6
REMARK    3  A    between atoms: C_6  and  C_7
REMARK                            x       y       z     vdW  Elec       q    Type
REMARK                         _______ _______ _______ _____ _____    ______ ____
ROOT
ATOM      1  N   UNL     1       7.396   5.444  19.764  0.00  0.00    +0.000 N 
ATOM      2  C   UNL     1       6.971   5.111  18.495  0.00  0.00    +0.000 A 
ATOM      3  N   UNL     1       5.907   4.303  18.429  0.00  0.00    +0.000 NA
ATOM      4  C   UNL     1       5.425   3.942  17.215  0.00  0.00    +0.000 A 
ATOM      5  C   UNL     1       6.058   4.415  16.072  0.00  0.00    +0.000 A 
ATOM      6  C   UNL     1       5.942   4.345  14.671  0.00  0.00    +0.000 A 
ATOM      7  N   UNL     1       6.901   5.038  14.035  0.00  0.00    +0.000 NA
ATOM      8  N   UNL     1       7.626   5.560  15.048  0.00  0.00    +0.000 N 
ATOM      9  C   UNL     1       7.162   5.219  16.284  0.00  0.00    +0.000 A 
ATOM     10  N   UNL     1       7.674   5.593  17.464  0.00  0.00    +0.000 NA
ATOM     11  H   UNL     1       7.074   4.753  20.427  0.00  0.00    +0.000 HD
ATOM     12  H   UNL     1       8.382   5.662  19.761  0.00  0.00    +0.000 HD
ATOM     13  H   UNL     1       8.427   6.143  14.838  0.00  0.00    +0.000 HD
ENDROOT
BRANCH   4  14
ATOM     14  O   UNL     1       4.319   3.111  17.142  0.00  0.00    +0.000 OA
BRANCH  14  15
ATOM     15  C   UNL     1       3.102   3.862  17.059  0.00  0.00    +0.000 C 
BRANCH  15  16
ATOM     16  C   UNL     1       2.394   3.843  18.392  0.00  0.00    +0.000 A 
ATOM     17  C   UNL     1       2.330   5.001  19.181  0.00  0.00    +0.000 A 
ATOM     18  C   UNL     1       1.677   4.981  20.414  0.00  0.00    +0.000 A 
ATOM     19  C   UNL     1       1.085   3.805  20.872  0.00  0.00    +0.000 A 
ATOM     20  C   UNL     1       1.139   2.651  20.093  0.00  0.00    +0.000 A 
ATOM     21  C   UNL     1       1.791   2.668  18.860  0.00  0.00    +0.000 A 
ENDBRANCH  15  16
ENDBRANCH  14  15
ENDBRANCH   4  14
TORSDOF 3
ENDMDL
MODEL 7
REMARK VINA RESULT:      -7.9      0.901      1.420
REMARK  Name = 
REMARK  3 active torsions:
REMARK  status: ('A' for Active; 'I' for Inactive)
REMARK    1  A    between atoms: C_4  and  O_5
REMARK    2  A    between atoms: O_5  and  C_6
REMARK    3  A    between atoms: C_6  and  C_7
REMARK                            x       y       z     vdW  Elec       q    Type
REMARK                         _______ _______ _______ _____ _____    ______ ____
ROOT
ATOM      1  N   UNL     1       7.708   5.553  19.966  0.00  0.00    +0.000 N 
ATOM      2  C   UNL     1       7.077   5.456  18.743  0.00  0.00    +0.000 A 
ATOM      3  N   UNL     1       5.743   5.366  18.779  0.00  0.00    +0.000 NA
ATOM      4  C   UNL     1       5.054   5.279  17.616  0.00  0.00    +0.000 A 
ATOM      5  C   UNL     1       5.757   5.275  16.417  0.00  0.00    +0.000 A 
ATOM      6  C   UNL     1       5.519   5.221  15.030  0.00  0.00    +0.000 A 
ATOM      7  N   UNL     1       6.651   5.244  14.307  0.00  0.00    +0.000 NA
ATOM      8  N   UNL     1       7.615   5.322  15.249  0.00  0.00    +0.000 N 
ATOM      9  C   UNL     1       7.133   5.347  16.524  0.00  0.00    +0.000 A 
ATOM     10  N   UNL     1       7.851   5.426  17.653  0.00  0.00    +0.000 NA
ATOM     11  H   UNL     1       7.110   5.183  20.691  0.00  0.00    +0.000 HD
ATOM     12  H   UNL     1       8.649   5.191  19.908  0.00  0.00    +0.000 HD
ATOM     13  H   UNL     1       8.586   5.359  14.965  0.00  0.00    +0.000 HD
ENDROOT
BRANCH   4  14
ATOM     14  O   UNL     1       3.672   5.192  17.648  0.00  0.00    +0.000 OA
BRANCH  14  15
ATOM     15  C   UNL     1       3.231   3.830  17.655  0.00  0.00    +0.000 C 
BRANCH  15  16
ATOM     16  C   UNL     1       2.631   3.490  18.998  0.00  0.00    +0.000 A 
ATOM     17  C   UNL     1       3.403   2.859  19.984  0.00  0.00    +0.000 A 
ATOM     18  C   UNL     1       2.846   2.545  21.224  0.00  0.00    +0.000 A 
ATOM     19  C   UNL     1       1.514   2.855  21.491  0.00  0.00    +0.000 A 
ATOM     20  C   UNL     1       0.740   3.487  20.519  0.00  0.00    +0.000 A 
ATOM     21  C   UNL     1       1.294   3.803  19.278  0.00  0.00    +0.000 A 
ENDBRANCH  15  16
ENDBRANCH  14  15
ENDBRANCH   4  14
TORSDOF 3
ENDMDL
MODEL 8
REMARK VINA RESULT:      -7.9      0.948      1.152
REMARK  Name = 
REMARK  3 active torsions:
REMARK  status: ('A' for Active; 'I' for Inactive)
REMARK    1  A    between atoms: C_4  and  O_5
REMARK    2  A    between atoms: O_5  and  C_6
REMARK    3  A    between atoms: C_6  and  C_7
REMARK                            x       y       z     vdW  Elec       q    Type
REMARK                         _______ _______ _______ _____ _____    ______ ____
ROOT
ATOM      1  N   UNL     1       7.411   5.456  19.713  0.00  0.00    +0.000 N 
ATOM      2  C   UNL     1       6.977   5.112  18.450  0.00  0.00    +0.000 A 
ATOM      3  N   UNL     1       5.901   4.320  18.396  0.00  0.00    +0.000 NA
ATOM      4  C   UNL     1       5.410   3.951  17.189  0.00  0.00    +0.000 A 
ATOM      5  C   UNL     1       6.048   4.398  16.038  0.00  0.00    +0.000 A 
ATOM      6  C   UNL     1       5.927   4.312  14.638  0.00  0.00    +0.000 A 
ATOM      7  N   UNL     1       6.895   4.982  13.991  0.00  0.00    +0.000 NA
ATOM      8  N   UNL     1       7.631   5.505  14.996  0.00  0.00    +0.000 N 
ATOM      9  C   UNL     1       7.164   5.188  16.237  0.00  0.00    +0.000 A 
ATOM     10  N   UNL     1       7.686   5.569  17.411  0.00  0.00    +0.000 NA
ATOM     11  H   UNL     1       7.080   4.778  20.386  0.00  0.00    +0.000 HD
ATOM     12  H   UNL     1       8.400   5.657  19.705  0.00  0.00    +0.000 HD
ATOM     13  H   UNL     1       8.440   6.072  14.776  0.00  0.00    +0.000 HD
ENDROOT
BRANCH   4  14
ATOM     14  O   UNL     1       4.291   3.136  17.129  0.00  0.00    +0.000 OA
BRANCH  14  15
ATOM     15  C   UNL     1       3.083   3.904  17.106  0.00  0.00    +0.000 C 
BRANCH  15  16
ATOM     16  C   UNL     1       2.388   3.810  18.443  0.00  0.00    +0.000 A 
ATOM     17  C   UNL     1       1.920   2.577  18.918  0.00  0.00    +0.000 A 
ATOM     18  C   UNL     1       1.277   2.492  20.153  0.00  0.00    +0.000 A 
ATOM     19  C   UNL     1       1.092   3.639  20.924  0.00  0.00    +0.000 A 
ATOM     20  C   UNL     1       1.558   4.869  20.463  0.00  0.00    +0.000 A 
ATOM     21  C   UNL     1       2.202   4.956  19.228  0.00  0.00    +0.000 A 
ENDBRANCH  15  16
ENDBRANCH  14  15
ENDBRANCH   4  14
TORSDOF 3
ENDMDL
MODEL 9
REMARK VINA RESULT:      -7.9      1.329      2.920
REMARK  Name = 
REMARK  3 active torsions:
REMARK  status: ('A' for Active; 'I' for Inactive)
REMARK    1  A    between atoms: C_4  and  O_5
REMARK    2  A    between atoms: O_5  and  C_6
REMARK    3  A    between atoms: C_6  and  C_7
REMARK                            x       y       z     vdW  Elec       q    Type
REMARK                         _______ _______ _______ _____ _____    ______ ____
ROOT
ATOM      1  N   UNL     1       7.118   5.173  13.928  0.00  0.00    +0.000 N 
ATOM      2  C   UNL     1       6.798   5.018  15.261  0.00  0.00    +0.000 A 
ATOM      3  N   UNL     1       5.761   4.214  15.523  0.00  0.00    +0.000 NA
ATOM      4  C   UNL     1       5.396   4.004  16.811  0.00  0.00    +0.000 A 
ATOM      5  C   UNL     1       6.105   4.640  17.823  0.00  0.00    +0.000 A 
ATOM      6  C   UNL     1       6.127   4.730  19.228  0.00  0.00    +0.000 A 
ATOM      7  N   UNL     1       7.086   5.555  19.680  0.00  0.00    +0.000 NA
ATOM      8  N   UNL     1       7.683   5.983  18.547  0.00  0.00    +0.000 N 
ATOM      9  C   UNL     1       7.136   5.463  17.412  0.00  0.00    +0.000 A 
ATOM     10  N   UNL     1       7.523   5.703  16.152  0.00  0.00    +0.000 NA
ATOM     11  H   UNL     1       6.315   4.955  13.354  0.00  0.00    +0.000 HD
ATOM     12  H   UNL     1       7.571   6.063  13.775  0.00  0.00    +0.000 HD
ATOM     13  H   UNL     1       8.461   6.628  18.608  0.00  0.00    +0.000 HD
ENDROOT
BRANCH   4  14
ATOM     14  O   UNL     1       4.327   3.167  17.087  0.00  0.00    +0.000 OA
BRANCH  14  15
ATOM     15  C   UNL     1       3.075   3.841  16.918  0.00  0.00    +0.000 C 
BRANCH  15  16
ATOM     16  C   UNL     1       2.348   3.915  18.239  0.00  0.00    +0.000 A 
ATOM     17  C   UNL     1       1.602   2.824  18.705  0.00  0.00    +0.000 A 
ATOM     18  C   UNL     1       0.930   2.896  19.926  0.00  0.00    +0.000 A 
ATOM     19  C   UNL     1       0.995   4.059  20.691  0.00  0.00    +0.000 A 
ATOM     20  C   UNL     1       1.739   5.147  20.240  0.00  0.00    +0.000 A 
ATOM     21  C   UNL     1       2.412   5.078  19.020  0.00  0.00    +0.000 A 
ENDBRANCH  15  16
ENDBRANCH  14  15
ENDBRANCH   4  14
TORSDOF 3
ENDMDL
