MODEL 1
REMARK VINA RESULT:      -7.0      0.000      0.000
REMARK  Name = 
REMARK  9 active torsions:
REMARK  status: ('A' for Active; 'I' for Inactive)
REMARK    1  A    between atoms: C_1  and  O_2
REMARK    2  A    between atoms: O_2  and  C_3
REMARK    3  A    between atoms: C_3  and  C_4
REMARK    4  A    between atoms: C_11  and  O_12
REMARK    5  A    between atoms: O_12  and  C_13
REMARK    6  A    between atoms: C_19  and  C_20
REMARK    7  A    between atoms: N_22  and  C_23
REMARK    8  A    between atoms: C_26  and  O_27
REMARK    9  A    between atoms: O_27  and  C_28
REMARK                            x       y       z     vdW  Elec       q    Type
REMARK                         _______ _______ _______ _____ _____    ______ ____
ROOT
ATOM      1  C   UNL     1       4.830   5.873  16.966  0.00  0.00    +0.000 A 
ATOM      2  N   UNL     1       5.120   7.008  16.359  0.00  0.00    +0.000 NA
ATOM      3  N   UNL     1       4.125   7.908  16.622  0.00  0.00    +0.000 NA
ATOM      4  C   UNL     1       3.246   7.344  17.423  0.00  0.00    +0.000 A 
ATOM      5  N   UNL     1       2.141   7.927  17.993  0.00  0.00    +0.000 N 
ATOM      6  C   UNL     1       1.613   9.151  17.372  0.00  0.00    +0.000 C 
ATOM      7  C   UNL     1       1.784  10.230  18.431  0.00  0.00    +0.000 C 
ATOM      8  C   UNL     1       1.479   9.482  19.723  0.00  0.00    +0.000 C 
ATOM      9  C   UNL     1       2.150   8.117  19.466  0.00  0.00    +0.000 C 
ATOM     10  N   UNL     1       3.640   6.022  17.666  0.00  0.00    +0.000 N 
ENDROOT
BRANCH  10  11
ATOM     11  C   UNL     1       2.930   5.052  18.420  0.00  0.00    +0.000 A 
ATOM     12  C   UNL     1       1.861   4.328  17.887  0.00  0.00    +0.000 A 
ATOM     13  C   UNL     1       1.226   3.375  18.686  0.00  0.00    +0.000 A 
ATOM     14  C   UNL     1       1.692   3.175  19.974  0.00  0.00    +0.000 A 
ATOM     15  N   UNL     1       2.719   3.861  20.512  0.00  0.00    +0.000 NA
ATOM     16  C   UNL     1       3.309   4.791  19.729  0.00  0.00    +0.000 A 
BRANCH  14  17
ATOM     17  O   UNL     1       1.060   2.206  20.723  0.00  0.00    +0.000 OA
ATOM     18  C   UNL     1       1.313   2.354  22.119  0.00  0.00    +0.000 C 
ENDBRANCH  14  17
ENDBRANCH  10  11
BRANCH   1  19
ATOM     19  C   UNL     1       5.618   4.618  16.806  0.00  0.00    +0.000 C 
BRANCH  19  21
ATOM     20  C   UNL     1       7.710   4.779  17.892  0.00  0.00    +0.000 C 
ATOM     21  O   UNL     1       6.348   4.390  18.011  0.00  0.00    +0.000 OA
ENDBRANCH  19  21
ENDBRANCH   1  19
BRANCH   8  22
ATOM     22  O   UNL     1       0.053   9.373  19.901  0.00  0.00    +0.000 OA
BRANCH  22  23
ATOM     23  C   UNL     1      -0.487  10.176  20.879  0.00  0.00    +0.000 A 
ATOM     24  C   UNL     1      -0.339   9.900  22.246  0.00  0.00    +0.000 A 
ATOM     25  C   UNL     1      -0.970  10.690  23.209  0.00  0.00    +0.000 A 
ATOM     26  C   UNL     1      -1.720  11.780  22.804  0.00  0.00    +0.000 A 
ATOM     27  F   UNL     1      -2.343  12.530  23.727  0.00  0.00    +0.000 F 
ATOM     28  C   UNL     1      -1.827  12.115  21.464  0.00  0.00    +0.000 A 
ATOM     29  C   UNL     1      -1.211  11.317  20.478  0.00  0.00    +0.000 A 
ATOM     30  C   UNL     1      -1.315  11.763  19.047  0.00  0.00    +0.000 C 
ENDBRANCH  22  23
ENDBRANCH   8  22
TORSDOF 6
ENDMDL
MODEL 2
REMARK VINA RESULT:      -7.0      2.243      4.614
REMARK  Name = 
REMARK  9 active torsions:
REMARK  status: ('A' for Active; 'I' for Inactive)
REMARK    1  A    between atoms: C_1  and  O_2
REMARK    2  A    between atoms: O_2  and  C_3
REMARK    3  A    between atoms: C_3  and  C_4
REMARK    4  A    between atoms: C_11  and  O_12
REMARK    5  A    between atoms: O_12  and  C_13
REMARK    6  A    between atoms: C_19  and  C_20
REMARK    7  A    between atoms: N_22  and  C_23
REMARK    8  A    between atoms: C_26  and  O_27
REMARK    9  A    between atoms: O_27  and  C_28
REMARK                            x       y       z     vdW  Elec       q    Type
REMARK                         _______ _______ _______ _____ _____    ______ ____
ROOT
ATOM      1  C   UNL     1       4.873   3.699  16.959  0.00  0.00    +0.000 A 
ATOM      2  N   UNL     1       3.854   2.935  17.306  0.00  0.00    +0.000 NA
ATOM      3  N   UNL     1       3.191   3.538  18.339  0.00  0.00    +0.000 NA
ATOM      4  C   UNL     1       3.772   4.690  18.600  0.00  0.00    +0.000 A 
ATOM      5  N   UNL     1       3.372   5.641  19.506  0.00  0.00    +0.000 N 
ATOM      6  C   UNL     1       2.473   5.220  20.591  0.00  0.00    +0.000 C 
ATOM      7  C   UNL     1       1.188   6.000  20.357  0.00  0.00    +0.000 C 
ATOM      8  C   UNL     1       1.700   7.349  19.869  0.00  0.00    +0.000 C 
ATOM      9  C   UNL     1       2.882   6.935  18.968  0.00  0.00    +0.000 C 
ATOM     10  N   UNL     1       4.877   4.841  17.751  0.00  0.00    +0.000 N 
ENDROOT
BRANCH  10  11
ATOM     11  C   UNL     1       5.811   5.909  17.758  0.00  0.00    +0.000 A 
ATOM     12  C   UNL     1       6.955   5.894  18.559  0.00  0.00    +0.000 A 
ATOM     13  C   UNL     1       7.838   6.974  18.495  0.00  0.00    +0.000 A 
ATOM     14  C   UNL     1       7.550   8.012  17.627  0.00  0.00    +0.000 A 
ATOM     15  N   UNL     1       6.453   8.051  16.846  0.00  0.00    +0.000 NA
ATOM     16  C   UNL     1       5.603   7.006  16.935  0.00  0.00    +0.000 A 
BRANCH  14  17
ATOM     17  O   UNL     1       8.459   9.047  17.568  0.00  0.00    +0.000 OA
ATOM     18  C   UNL     1       8.862   9.484  18.865  0.00  0.00    +0.000 C 
ENDBRANCH  14  17
ENDBRANCH  10  11
BRANCH   1  19
ATOM     19  C   UNL     1       5.901   3.310  15.952  0.00  0.00    +0.000 C 
BRANCH  19  21
ATOM     20  C   UNL     1       6.817   4.670  14.252  0.00  0.00    +0.000 C 
ATOM     21  O   UNL     1       5.647   4.034  14.749  0.00  0.00    +0.000 OA
ENDBRANCH  19  21
ENDBRANCH   1  19
BRANCH   8  22
ATOM     22  O   UNL     1       2.115   8.151  20.993  0.00  0.00    +0.000 OA
BRANCH  22  23
ATOM     23  C   UNL     1       1.178   9.037  21.470  0.00  0.00    +0.000 A 
ATOM     24  C   UNL     1       0.698   8.988  22.788  0.00  0.00    +0.000 A 
ATOM     25  C   UNL     1      -0.314   9.850  23.215  0.00  0.00    +0.000 A 
ATOM     26  C   UNL     1      -0.820  10.788  22.332  0.00  0.00    +0.000 A 
ATOM     27  F   UNL     1      -1.806  11.606  22.735  0.00  0.00    +0.000 F 
ATOM     28  C   UNL     1      -0.316  10.903  21.046  0.00  0.00    +0.000 A 
ATOM     29  C   UNL     1       0.692  10.028  20.594  0.00  0.00    +0.000 A 
ATOM     30  C   UNL     1       1.237  10.239  19.210  0.00  0.00    +0.000 C 
ENDBRANCH  22  23
ENDBRANCH   8  22
TORSDOF 6
ENDMDL
MODEL 3
REMARK VINA RESULT:      -7.0      0.522      1.340
REMARK  Name = 
REMARK  9 active torsions:
REMARK  status: ('A' for Active; 'I' for Inactive)
REMARK    1  A    between atoms: C_1  and  O_2
REMARK    2  A    between atoms: O_2  and  C_3
REMARK    3  A    between atoms: C_3  and  C_4
REMARK    4  A    between atoms: C_11  and  O_12
REMARK    5  A    between atoms: O_12  and  C_13
REMARK    6  A    between atoms: C_19  and  C_20
REMARK    7  A    between atoms: N_22  and  C_23
REMARK    8  A    between atoms: C_26  and  O_27
REMARK    9  A    between atoms: O_27  and  C_28
REMARK                            x       y       z     vdW  Elec       q    Type
REMARK                         _______ _______ _______ _____ _____    ______ ____
ROOT
ATOM      1  C   UNL     1       4.628   5.997  17.047  0.00  0.00    +0.000 A 
ATOM      2  N   UNL     1       4.882   7.145  16.448  0.00  0.00    +0.000 NA
ATOM      3  N   UNL     1       3.888   8.030  16.764  0.00  0.00    +0.000 NA
ATOM      4  C   UNL     1       3.047   7.443  17.589  0.00  0.00    +0.000 A 
ATOM      5  N   UNL     1       1.959   8.005  18.211  0.00  0.00    +0.000 N 
ATOM      6  C   UNL     1       1.395   9.233  17.631  0.00  0.00    +0.000 C 
ATOM      7  C   UNL     1       1.595  10.296  18.699  0.00  0.00    +0.000 C 
ATOM      8  C   UNL     1       1.349   9.524  19.990  0.00  0.00    +0.000 C 
ATOM      9  C   UNL     1       2.023   8.171  19.685  0.00  0.00    +0.000 C 
ATOM     10  N   UNL     1       3.463   6.122  17.795  0.00  0.00    +0.000 N 
ENDROOT
BRANCH  10  11
ATOM     11  C   UNL     1       2.794   5.132  18.560  0.00  0.00    +0.000 A 
ATOM     12  C   UNL     1       1.737   4.378  18.044  0.00  0.00    +0.000 A 
ATOM     13  C   UNL     1       1.143   3.408  18.852  0.00  0.00    +0.000 A 
ATOM     14  C   UNL     1       1.635   3.221  20.132  0.00  0.00    +0.000 A 
ATOM     15  N   UNL     1       2.650   3.935  20.654  0.00  0.00    +0.000 NA
ATOM     16  C   UNL     1       3.201   4.881  19.862  0.00  0.00    +0.000 A 
BRANCH  14  17
ATOM     17  O   UNL     1       1.042   2.234  20.891  0.00  0.00    +0.000 OA
ATOM     18  C   UNL     1       1.375   2.345  22.274  0.00  0.00    +0.000 C 
ENDBRANCH  14  17
ENDBRANCH  10  11
BRANCH   1  19
ATOM     19  C   UNL     1       5.422   4.753  16.836  0.00  0.00    +0.000 C 
BRANCH  19  21
ATOM     20  C   UNL     1       7.450   5.220  17.954  0.00  0.00    +0.000 C 
ATOM     21  O   UNL     1       6.212   4.523  18.002  0.00  0.00    +0.000 OA
ENDBRANCH  19  21
ENDBRANCH   1  19
BRANCH   8  22
ATOM     22  O   UNL     1      -0.068   9.397  20.221  0.00  0.00    +0.000 OA
BRANCH  22  23
ATOM     23  C   UNL     1      -0.669  10.469  20.840  0.00  0.00    +0.000 A 
ATOM     24  C   UNL     1      -1.341  11.472  20.125  0.00  0.00    +0.000 A 
ATOM     25  C   UNL     1      -1.868  12.587  20.778  0.00  0.00    +0.000 A 
ATOM     26  C   UNL     1      -1.753  12.682  22.154  0.00  0.00    +0.000 A 
ATOM     27  F   UNL     1      -2.242  13.763  22.783  0.00  0.00    +0.000 F 
ATOM     28  C   UNL     1      -1.154  11.673  22.892  0.00  0.00    +0.000 A 
ATOM     29  C   UNL     1      -0.602  10.549  22.245  0.00  0.00    +0.000 A 
ATOM     30  C   UNL     1      -0.017   9.463  23.102  0.00  0.00    +0.000 C 
ENDBRANCH  22  23
ENDBRANCH   8  22
TORSDOF 6
ENDMDL
MODEL 4
REMARK VINA RESULT:      -6.9      4.270      9.244
REMARK  Name = 
REMARK  9 active torsions:
REMARK  status: ('A' for Active; 'I' for Inactive)
REMARK    1  A    between atoms: C_1  and  O_2
REMARK    2  A    between atoms: O_2  and  C_3
REMARK    3  A    between atoms: C_3  and  C_4
REMARK    4  A    between atoms: C_11  and  O_12
REMARK    5  A    between atoms: O_12  and  C_13
REMARK    6  A    between atoms: C_19  and  C_20
REMARK    7  A    between atoms: N_22  and  C_23
REMARK    8  A    between atoms: C_26  and  O_27
REMARK    9  A    between atoms: O_27  and  C_28
REMARK                            x       y       z     vdW  Elec       q    Type
REMARK                         _______ _______ _______ _____ _____    ______ ____
ROOT
ATOM      1  C   UNL     1      -1.881  13.521  21.846  0.00  0.00    +0.000 A 
ATOM      2  N   UNL     1      -1.328  13.349  23.032  0.00  0.00    +0.000 NA
ATOM      3  N   UNL     1      -0.788  12.094  23.082  0.00  0.00    +0.000 NA
ATOM      4  C   UNL     1      -0.969  11.509  21.917  0.00  0.00    +0.000 A 
ATOM      5  N   UNL     1      -0.509  10.278  21.520  0.00  0.00    +0.000 N 
ATOM      6  C   UNL     1      -0.133   9.315  22.566  0.00  0.00    +0.000 C 
ATOM      7  C   UNL     1       1.358   9.088  22.370  0.00  0.00    +0.000 C 
ATOM      8  C   UNL     1       1.504   9.115  20.854  0.00  0.00    +0.000 C 
ATOM      9  C   UNL     1       0.530  10.245  20.459  0.00  0.00    +0.000 C 
ATOM     10  N   UNL     1      -1.686  12.376  21.082  0.00  0.00    +0.000 N 
ENDROOT
BRANCH  10  11
ATOM     11  C   UNL     1      -2.148  12.100  19.770  0.00  0.00    +0.000 A 
ATOM     12  C   UNL     1      -1.293  12.085  18.665  0.00  0.00    +0.000 A 
ATOM     13  C   UNL     1      -1.820  11.783  17.408  0.00  0.00    +0.000 A 
ATOM     14  C   UNL     1      -3.169  11.495  17.308  0.00  0.00    +0.000 A 
ATOM     15  N   UNL     1      -4.015  11.504  18.356  0.00  0.00    +0.000 NA
ATOM     16  C   UNL     1      -3.490  11.816  19.561  0.00  0.00    +0.000 A 
BRANCH  14  17
ATOM     17  O   UNL     1      -3.648  11.173  16.056  0.00  0.00    +0.000 OA
ATOM     18  C   UNL     1      -2.842  10.191  15.407  0.00  0.00    +0.000 C 
ENDBRANCH  14  17
ENDBRANCH  10  11
BRANCH   1  19
ATOM     19  C   UNL     1      -2.680  14.720  21.465  0.00  0.00    +0.000 C 
BRANCH  19  21
ATOM     20  C   UNL     1      -4.508  15.138  22.902  0.00  0.00    +0.000 C 
ATOM     21  O   UNL     1      -4.054  14.450  21.745  0.00  0.00    +0.000 OA
ENDBRANCH  19  21
ENDBRANCH   1  19
BRANCH   8  22
ATOM     22  O   UNL     1       1.122   7.838  20.303  0.00  0.00    +0.000 OA
BRANCH  22  23
ATOM     23  C   UNL     1       2.041   7.255  19.461  0.00  0.00    +0.000 A 
ATOM     24  C   UNL     1       2.652   7.957  18.412  0.00  0.00    +0.000 A 
ATOM     25  C   UNL     1       3.517   7.311  17.526  0.00  0.00    +0.000 A 
ATOM     26  C   UNL     1       3.800   5.970  17.714  0.00  0.00    +0.000 A 
ATOM     27  F   UNL     1       4.617   5.343  16.853  0.00  0.00    +0.000 F 
ATOM     28  C   UNL     1       3.263   5.270  18.783  0.00  0.00    +0.000 A 
ATOM     29  C   UNL     1       2.373   5.902  19.675  0.00  0.00    +0.000 A 
ATOM     30  C   UNL     1       1.870   5.107  20.846  0.00  0.00    +0.000 C 
ENDBRANCH  22  23
ENDBRANCH   8  22
TORSDOF 6
ENDMDL
MODEL 5
REMARK VINA RESULT:      -6.8      1.080      1.352
REMARK  Name = 
REMARK  9 active torsions:
REMARK  status: ('A' for Active; 'I' for Inactive)
REMARK    1  A    between atoms: C_1  and  O_2
REMARK    2  A    between atoms: O_2  and  C_3
REMARK    3  A    between atoms: C_3  and  C_4
REMARK    4  A    between atoms: C_11  and  O_12
REMARK    5  A    between atoms: O_12  and  C_13
REMARK    6  A    between atoms: C_19  and  C_20
REMARK    7  A    between atoms: N_22  and  C_23
REMARK    8  A    between atoms: C_26  and  O_27
REMARK    9  A    between atoms: O_27  and  C_28
REMARK                            x       y       z     vdW  Elec       q    Type
REMARK                         _______ _______ _______ _____ _____    ______ ____
ROOT
ATOM      1  C   UNL     1       5.001   5.987  17.556  0.00  0.00    +0.000 A 
ATOM      2  N   UNL     1       5.339   7.113  16.956  0.00  0.00    +0.000 NA
ATOM      3  N   UNL     1       4.296   7.990  17.058  0.00  0.00    +0.000 NA
ATOM      4  C   UNL     1       3.334   7.424  17.756  0.00  0.00    +0.000 A 
ATOM      5  N   UNL     1       2.150   7.990  18.158  0.00  0.00    +0.000 N 
ATOM      6  C   UNL     1       1.677   9.180  17.435  0.00  0.00    +0.000 C 
ATOM      7  C   UNL     1       1.680  10.293  18.471  0.00  0.00    +0.000 C 
ATOM      8  C   UNL     1       1.228   9.574  19.736  0.00  0.00    +0.000 C 
ATOM      9  C   UNL     1       1.961   8.222  19.613  0.00  0.00    +0.000 C 
ATOM     10  N   UNL     1       3.726   6.121  18.090  0.00  0.00    +0.000 N 
ENDROOT
BRANCH  10  11
ATOM     11  C   UNL     1       2.948   5.153  18.777  0.00  0.00    +0.000 A 
ATOM     12  C   UNL     1       2.040   4.321  18.117  0.00  0.00    +0.000 A 
ATOM     13  C   UNL     1       1.327   3.378  18.860  0.00  0.00    +0.000 A 
ATOM     14  C   UNL     1       1.559   3.295  20.221  0.00  0.00    +0.000 A 
ATOM     15  N   UNL     1       2.427   4.086  20.881  0.00  0.00    +0.000 NA
ATOM     16  C   UNL     1       3.095   5.004  20.148  0.00  0.00    +0.000 A 
BRANCH  14  17
ATOM     17  O   UNL     1       0.858   2.332  20.917  0.00  0.00    +0.000 OA
ATOM     18  C   UNL     1       1.307   2.208  22.265  0.00  0.00    +0.000 C 
ENDBRANCH  14  17
ENDBRANCH  10  11
BRANCH   1  19
ATOM     19  C   UNL     1       5.835   4.751  17.540  0.00  0.00    +0.000 C 
BRANCH  19  21
ATOM     20  C   UNL     1       7.454   5.549  19.064  0.00  0.00    +0.000 C 
ATOM     21  O   UNL     1       6.428   4.595  18.829  0.00  0.00    +0.000 OA
ENDBRANCH  19  21
ENDBRANCH   1  19
BRANCH   8  22
ATOM     22  O   UNL     1      -0.206   9.429  19.730  0.00  0.00    +0.000 OA
BRANCH  22  23
ATOM     23  C   UNL     1      -0.922  10.590  19.909  0.00  0.00    +0.000 A 
ATOM     24  C   UNL     1      -0.760  11.408  21.037  0.00  0.00    +0.000 A 
ATOM     25  C   UNL     1      -1.562  12.535  21.226  0.00  0.00    +0.000 A 
ATOM     26  C   UNL     1      -2.503  12.865  20.266  0.00  0.00    +0.000 A 
ATOM     27  F   UNL     1      -3.288  13.937  20.455  0.00  0.00    +0.000 F 
ATOM     28  C   UNL     1      -2.637  12.113  19.110  0.00  0.00    +0.000 A 
ATOM     29  C   UNL     1      -1.847  10.961  18.913  0.00  0.00    +0.000 A 
ATOM     30  C   UNL     1      -1.998  10.220  17.615  0.00  0.00    +0.000 C 
ENDBRANCH  22  23
ENDBRANCH   8  22
TORSDOF 6
ENDMDL
MODEL 6
REMARK VINA RESULT:      -6.8      2.521      4.680
REMARK  Name = 
REMARK  9 active torsions:
REMARK  status: ('A' for Active; 'I' for Inactive)
REMARK    1  A    between atoms: C_1  and  O_2
REMARK    2  A    between atoms: O_2  and  C_3
REMARK    3  A    between atoms: C_3  and  C_4
REMARK    4  A    between atoms: C_11  and  O_12
REMARK    5  A    between atoms: O_12  and  C_13
REMARK    6  A    between atoms: C_19  and  C_20
REMARK    7  A    between atoms: N_22  and  C_23
REMARK    8  A    between atoms: C_26  and  O_27
REMARK    9  A    between atoms: O_27  and  C_28
REMARK                            x       y       z     vdW  Elec       q    Type
REMARK                         _______ _______ _______ _____ _____    ______ ____
ROOT
ATOM      1  C   UNL     1       2.529   3.852  18.881  0.00  0.00    +0.000 A 
ATOM      2  N   UNL     1       1.429   3.724  19.598  0.00  0.00    +0.000 NA
ATOM      3  N   UNL     1       1.156   4.925  20.192  0.00  0.00    +0.000 NA
ATOM      4  C   UNL     1       2.059   5.802  19.808  0.00  0.00    +0.000 A 
ATOM      5  N   UNL     1       2.103   7.142  20.106  0.00  0.00    +0.000 N 
ATOM      6  C   UNL     1       1.345   7.610  21.276  0.00  0.00    +0.000 C 
ATOM      7  C   UNL     1       0.292   8.549  20.709  0.00  0.00    +0.000 C 
ATOM      8  C   UNL     1       1.042   9.251  19.583  0.00  0.00    +0.000 C 
ATOM      9  C   UNL     1       1.880   8.098  18.992  0.00  0.00    +0.000 C 
ATOM     10  N   UNL     1       2.984   5.161  18.973  0.00  0.00    +0.000 N 
ENDROOT
BRANCH  10  11
ATOM     11  C   UNL     1       4.151   5.734  18.405  0.00  0.00    +0.000 A 
ATOM     12  C   UNL     1       4.124   6.446  17.203  0.00  0.00    +0.000 A 
ATOM     13  C   UNL     1       5.312   6.998  16.719  0.00  0.00    +0.000 A 
ATOM     14  C   UNL     1       6.469   6.831  17.459  0.00  0.00    +0.000 A 
ATOM     15  N   UNL     1       6.522   6.148  18.618  0.00  0.00    +0.000 NA
ATOM     16  C   UNL     1       5.367   5.606  19.062  0.00  0.00    +0.000 A 
BRANCH  14  17
ATOM     17  O   UNL     1       7.616   7.415  16.965  0.00  0.00    +0.000 OA
ATOM     18  C   UNL     1       8.023   8.542  17.739  0.00  0.00    +0.000 C 
ENDBRANCH  14  17
ENDBRANCH  10  11
BRANCH   1  19
ATOM     19  C   UNL     1       3.210   2.719  18.191  0.00  0.00    +0.000 C 
BRANCH  19  21
ATOM     20  C   UNL     1       4.508   2.123  20.072  0.00  0.00    +0.000 C 
ATOM     21  O   UNL     1       3.498   1.712  19.160  0.00  0.00    +0.000 OA
ENDBRANCH  19  21
ENDBRANCH   1  19
BRANCH   8  22
ATOM     22  O   UNL     1       1.857  10.309  20.123  0.00  0.00    +0.000 OA
BRANCH  22  23
ATOM     23  C   UNL     1       1.586  11.571  19.649  0.00  0.00    +0.000 A 
ATOM     24  C   UNL     1       2.141  12.063  18.458  0.00  0.00    +0.000 A 
ATOM     25  C   UNL     1       1.909  13.378  18.049  0.00  0.00    +0.000 A 
ATOM     26  C   UNL     1       1.089  14.190  18.814  0.00  0.00    +0.000 A 
ATOM     27  F   UNL     1       0.880  15.460  18.432  0.00  0.00    +0.000 F 
ATOM     28  C   UNL     1       0.474  13.708  19.958  0.00  0.00    +0.000 A 
ATOM     29  C   UNL     1       0.712  12.388  20.394  0.00  0.00    +0.000 A 
ATOM     30  C   UNL     1      -0.028  11.906  21.609  0.00  0.00    +0.000 C 
ENDBRANCH  22  23
ENDBRANCH   8  22
TORSDOF 6
ENDMDL
MODEL 7
REMARK VINA RESULT:      -6.7      0.976      1.788
REMARK  Name = 
REMARK  9 active torsions:
REMARK  status: ('A' for Active; 'I' for Inactive)
REMARK    1  A    between atoms: C_1  and  O_2
REMARK    2  A    between atoms: O_2  and  C_3
REMARK    3  A    between atoms: C_3  and  C_4
REMARK    4  A    between atoms: C_11  and  O_12
REMARK    5  A    between atoms: O_12  and  C_13
REMARK    6  A    between atoms: C_19  and  C_20
REMARK    7  A    between atoms: N_22  and  C_23
REMARK    8  A    between atoms: C_26  and  O_27
REMARK    9  A    between atoms: O_27  and  C_28
REMARK                            x       y       z     vdW  Elec       q    Type
REMARK                         _______ _______ _______ _____ _____    ______ ____
ROOT
ATOM      1  C   UNL     1       4.540   6.115  17.213  0.00  0.00    +0.000 A 
ATOM      2  N   UNL     1       4.765   7.225  16.535  0.00  0.00    +0.000 NA
ATOM      3  N   UNL     1       3.757   8.109  16.803  0.00  0.00    +0.000 NA
ATOM      4  C   UNL     1       2.936   7.563  17.675  0.00  0.00    +0.000 A 
ATOM      5  N   UNL     1       1.843   8.144  18.270  0.00  0.00    +0.000 N 
ATOM      6  C   UNL     1       1.248   9.319  17.616  0.00  0.00    +0.000 C 
ATOM      7  C   UNL     1       1.437  10.455  18.609  0.00  0.00    +0.000 C 
ATOM      8  C   UNL     1       1.220   9.767  19.950  0.00  0.00    +0.000 C 
ATOM      9  C   UNL     1       1.919   8.409  19.729  0.00  0.00    +0.000 C 
ATOM     10  N   UNL     1       3.382   6.267  17.964  0.00  0.00    +0.000 N 
ENDROOT
BRANCH  10  11
ATOM     11  C   UNL     1       2.740   5.318  18.801  0.00  0.00    +0.000 A 
ATOM     12  C   UNL     1       3.014   5.222  20.167  0.00  0.00    +0.000 A 
ATOM     13  C   UNL     1       2.326   4.276  20.929  0.00  0.00    +0.000 A 
ATOM     14  C   UNL     1       1.385   3.479  20.301  0.00  0.00    +0.000 A 
ATOM     15  N   UNL     1       1.103   3.550  18.986  0.00  0.00    +0.000 NA
ATOM     16  C   UNL     1       1.792   4.460  18.263  0.00  0.00    +0.000 A 
BRANCH  14  17
ATOM     17  O   UNL     1       0.704   2.576  21.091  0.00  0.00    +0.000 OA
ATOM     18  C   UNL     1       1.447   2.208  22.251  0.00  0.00    +0.000 C 
ENDBRANCH  14  17
ENDBRANCH  10  11
BRANCH   1  19
ATOM     19  C   UNL     1       5.358   4.876  17.076  0.00  0.00    +0.000 C 
BRANCH  19  21
ATOM     20  C   UNL     1       6.140   3.985  15.034  0.00  0.00    +0.000 C 
ATOM     21  O   UNL     1       6.247   5.046  15.974  0.00  0.00    +0.000 OA
ENDBRANCH  19  21
ENDBRANCH   1  19
BRANCH   8  22
ATOM     22  O   UNL     1      -0.192   9.628  20.206  0.00  0.00    +0.000 OA
BRANCH  22  23
ATOM     23  C   UNL     1      -0.779  10.670  20.885  0.00  0.00    +0.000 A 
ATOM     24  C   UNL     1      -1.423  11.729  20.229  0.00  0.00    +0.000 A 
ATOM     25  C   UNL     1      -1.936  12.811  20.946  0.00  0.00    +0.000 A 
ATOM     26  C   UNL     1      -1.838  12.815  22.327  0.00  0.00    +0.000 A 
ATOM     27  F   UNL     1      -2.313  13.863  23.017  0.00  0.00    +0.000 F 
ATOM     28  C   UNL     1      -1.268  11.749  23.005  0.00  0.00    +0.000 A 
ATOM     29  C   UNL     1      -0.728  10.658  22.294  0.00  0.00    +0.000 A 
ATOM     30  C   UNL     1      -0.176   9.508  23.086  0.00  0.00    +0.000 C 
ENDBRANCH  22  23
ENDBRANCH   8  22
TORSDOF 6
ENDMDL
MODEL 8
REMARK VINA RESULT:      -6.7      2.337      4.460
REMARK  Name = 
REMARK  9 active torsions:
REMARK  status: ('A' for Active; 'I' for Inactive)
REMARK    1  A    between atoms: C_1  and  O_2
REMARK    2  A    between atoms: O_2  and  C_3
REMARK    3  A    between atoms: C_3  and  C_4
REMARK    4  A    between atoms: C_11  and  O_12
REMARK    5  A    between atoms: O_12  and  C_13
REMARK    6  A    between atoms: C_19  and  C_20
REMARK    7  A    between atoms: N_22  and  C_23
REMARK    8  A    between atoms: C_26  and  O_27
REMARK    9  A    between atoms: O_27  and  C_28
REMARK                            x       y       z     vdW  Elec       q    Type
REMARK                         _______ _______ _______ _____ _____    ______ ____
ROOT
ATOM      1  C   UNL     1       2.436   3.912  19.279  0.00  0.00    +0.000 A 
ATOM      2  N   UNL     1       1.371   3.842  20.055  0.00  0.00    +0.000 NA
ATOM      3  N   UNL     1       1.116   5.089  20.555  0.00  0.00    +0.000 NA
ATOM      4  C   UNL     1       1.994   5.933  20.055  0.00  0.00    +0.000 A 
ATOM      5  N   UNL     1       2.040   7.294  20.235  0.00  0.00    +0.000 N 
ATOM      6  C   UNL     1       1.333   7.857  21.395  0.00  0.00    +0.000 C 
ATOM      7  C   UNL     1       0.248   8.740  20.798  0.00  0.00    +0.000 C 
ATOM      8  C   UNL     1       0.940   9.345  19.583  0.00  0.00    +0.000 C 
ATOM      9  C   UNL     1       1.759   8.150  19.055  0.00  0.00    +0.000 C 
ATOM     10  N   UNL     1       2.885   5.226  19.237  0.00  0.00    +0.000 N 
ENDROOT
BRANCH  10  11
ATOM     11  C   UNL     1       4.020   5.753  18.568  0.00  0.00    +0.000 A 
ATOM     12  C   UNL     1       3.931   6.362  17.314  0.00  0.00    +0.000 A 
ATOM     13  C   UNL     1       5.091   6.875  16.730  0.00  0.00    +0.000 A 
ATOM     14  C   UNL     1       6.283   6.772  17.425  0.00  0.00    +0.000 A 
ATOM     15  N   UNL     1       6.395   6.189  18.634  0.00  0.00    +0.000 NA
ATOM     16  C   UNL     1       5.266   5.683  19.175  0.00  0.00    +0.000 A 
BRANCH  14  17
ATOM     17  O   UNL     1       7.402   7.316  16.830  0.00  0.00    +0.000 OA
ATOM     18  C   UNL     1       7.963   8.374  17.605  0.00  0.00    +0.000 C 
ENDBRANCH  14  17
ENDBRANCH  10  11
BRANCH   1  19
ATOM     19  C   UNL     1       3.093   2.727  18.658  0.00  0.00    +0.000 C 
BRANCH  19  21
ATOM     20  C   UNL     1       4.313   2.103  20.582  0.00  0.00    +0.000 C 
ATOM     21  O   UNL     1       4.386   2.573  19.243  0.00  0.00    +0.000 OA
ENDBRANCH  19  21
ENDBRANCH   1  19
BRANCH   8  22
ATOM     22  O   UNL     1       1.771  10.449  19.992  0.00  0.00    +0.000 OA
BRANCH  22  23
ATOM     23  C   UNL     1       1.181  11.691  19.937  0.00  0.00    +0.000 A 
ATOM     24  C   UNL     1       0.234  12.117  20.880  0.00  0.00    +0.000 A 
ATOM     25  C   UNL     1      -0.406  13.351  20.747  0.00  0.00    +0.000 A 
ATOM     26  C   UNL     1      -0.069  14.176  19.689  0.00  0.00    +0.000 A 
ATOM     27  F   UNL     1      -0.696  15.355  19.549  0.00  0.00    +0.000 F 
ATOM     28  C   UNL     1       0.912  13.810  18.782  0.00  0.00    +0.000 A 
ATOM     29  C   UNL     1       1.554  12.559  18.891  0.00  0.00    +0.000 A 
ATOM     30  C   UNL     1       2.648  12.243  17.912  0.00  0.00    +0.000 C 
ENDBRANCH  22  23
ENDBRANCH   8  22
TORSDOF 6
ENDMDL
MODEL 9
REMARK VINA RESULT:      -6.7      3.947      8.833
REMARK  Name = 
REMARK  9 active torsions:
REMARK  status: ('A' for Active; 'I' for Inactive)
REMARK    1  A    between atoms: C_1  and  O_2
REMARK    2  A    between atoms: O_2  and  C_3
REMARK    3  A    between atoms: C_3  and  C_4
REMARK    4  A    between atoms: C_11  and  O_12
REMARK    5  A    between atoms: O_12  and  C_13
REMARK    6  A    between atoms: C_19  and  C_20
REMARK    7  A    between atoms: N_22  and  C_23
REMARK    8  A    between atoms: C_26  and  O_27
REMARK    9  A    between atoms: O_27  and  C_28
REMARK                            x       y       z     vdW  Elec       q    Type
REMARK                         _______ _______ _______ _____ _____    ______ ____
ROOT
ATOM      1  C   UNL     1      -0.622  11.003  22.056  0.00  0.00    +0.000 A 
ATOM      2  N   UNL     1       0.010  10.374  23.030  0.00  0.00    +0.000 NA
ATOM      3  N   UNL     1       0.534   9.215  22.530  0.00  0.00    +0.000 NA
ATOM      4  C   UNL     1       0.264   9.149  21.243  0.00  0.00    +0.000 A 
ATOM      5  N   UNL     1       0.680   8.192  20.350  0.00  0.00    +0.000 N 
ATOM      6  C   UNL     1       1.113   6.894  20.889  0.00  0.00    +0.000 C 
ATOM      7  C   UNL     1       2.584   6.788  20.516  0.00  0.00    +0.000 C 
ATOM      8  C   UNL     1       2.625   7.429  19.134  0.00  0.00    +0.000 C 
ATOM      9  C   UNL     1       1.643   8.607  19.300  0.00  0.00    +0.000 C 
ATOM     10  N   UNL     1      -0.496  10.270  20.883  0.00  0.00    +0.000 N 
ENDROOT
BRANCH  10  11
ATOM     11  C   UNL     1      -1.051  10.542  19.606  0.00  0.00    +0.000 A 
ATOM     12  C   UNL     1      -1.910   9.650  18.960  0.00  0.00    +0.000 A 
ATOM     13  C   UNL     1      -2.432   9.999  17.713  0.00  0.00    +0.000 A 
ATOM     14  C   UNL     1      -2.089  11.225  17.172  0.00  0.00    +0.000 A 
ATOM     15  N   UNL     1      -1.261  12.102  17.773  0.00  0.00    +0.000 NA
ATOM     16  C   UNL     1      -0.752  11.739  18.970  0.00  0.00    +0.000 A 
BRANCH  14  17
ATOM     17  O   UNL     1      -2.647  11.549  15.953  0.00  0.00    +0.000 OA
ATOM     18  C   UNL     1      -3.328  10.443  15.363  0.00  0.00    +0.000 C 
ENDBRANCH  14  17
ENDBRANCH  10  11
BRANCH   1  19
ATOM     19  C   UNL     1      -1.428  12.242  22.250  0.00  0.00    +0.000 C 
BRANCH  19  21
ATOM     20  C   UNL     1      -1.170  14.578  22.013  0.00  0.00    +0.000 C 
ATOM     21  O   UNL     1      -0.533  13.350  22.338  0.00  0.00    +0.000 OA
ENDBRANCH  19  21
ENDBRANCH   1  19
BRANCH   8  22
ATOM     22  O   UNL     1       2.189   6.480  18.141  0.00  0.00    +0.000 OA
BRANCH  22  23
ATOM     23  C   UNL     1       3.176   5.692  17.596  0.00  0.00    +0.000 A 
ATOM     24  C   UNL     1       4.365   6.227  17.078  0.00  0.00    +0.000 A 
ATOM     25  C   UNL     1       5.310   5.407  16.458  0.00  0.00    +0.000 A 
ATOM     26  C   UNL     1       5.081   4.044  16.390  0.00  0.00    +0.000 A 
ATOM     27  F   UNL     1       5.979   3.255  15.778  0.00  0.00    +0.000 F 
ATOM     28  C   UNL     1       3.947   3.481  16.954  0.00  0.00    +0.000 A 
ATOM     29  C   UNL     1       2.975   4.298  17.568  0.00  0.00    +0.000 A 
ATOM     30  C   UNL     1       1.797   3.625  18.211  0.00  0.00    +0.000 C 
ENDBRANCH  22  23
ENDBRANCH   8  22
TORSDOF 6
ENDMDL
