MODEL 1
REMARK VINA RESULT:      -8.1      0.000      0.000
REMARK  Name = 
REMARK  7 active torsions:
REMARK  status: ('A' for Active; 'I' for Inactive)
REMARK    1  A    between atoms: C_1  and  C_2
REMARK    2  A    between atoms: C_2  and  O_3
REMARK    3  A    between atoms: O_3  and  C_4
REMARK    4  A    between atoms: C_7  and  O_8
REMARK    5  A    between atoms: O_8  and  C_9
REMARK    6  A    between atoms: C_9  and  C_10
REMARK    7  A    between atoms: C_14  and  C_15
REMARK                            x       y       z     vdW  Elec       q    Type
REMARK                         _______ _______ _______ _____ _____    ______ ____
ROOT
ATOM      1  C   UNL     1       3.812   4.060  17.193  0.00  0.00    +0.000 A 
ATOM      2  C   UNL     1       3.259   2.788  17.384  0.00  0.00    +0.000 A 
ATOM      3  C   UNL     1       2.318   2.577  18.393  0.00  0.00    +0.000 A 
ATOM      4  C   UNL     1       1.886   3.642  19.188  0.00  0.00    +0.000 A 
ATOM      5  C   UNL     1       2.407   4.928  18.992  0.00  0.00    +0.000 A 
ATOM      6  C   UNL     1       3.406   5.109  18.030  0.00  0.00    +0.000 A 
ENDROOT
BRANCH   5   7
ATOM      7  C   UNL     1       1.957   6.033  19.889  0.00  0.00    +0.000 C 
ATOM      8  O   UNL     1       1.431   5.705  20.952  0.00  0.00    +0.000 OA
ATOM      9  N   UNL     1       2.151   7.382  19.535  0.00  0.00    +0.000 N 
ATOM     10  C   UNL     1       1.923   8.377  20.581  0.00  0.00    +0.000 C 
ATOM     11  C   UNL     1       0.503   8.934  20.555  0.00  0.00    +0.000 C 
ATOM     12  C   UNL     1       0.273  10.000  19.491  0.00  0.00    +0.000 C 
ATOM     13  C   UNL     1       0.550   9.548  18.058  0.00  0.00    +0.000 C 
ATOM     14  C   UNL     1       2.024   9.262  17.804  0.00  0.00    +0.000 C 
ATOM     15  C   UNL     1       2.455   7.844  18.179  0.00  0.00    +0.000 C 
ENDBRANCH   5   7
BRANCH   1  16
ATOM     16  C   UNL     1       4.793   4.337  16.080  0.00  0.00    +0.000 C 
BRANCH  16  17
ATOM     17  O   UNL     1       6.095   3.989  16.554  0.00  0.00    +0.000 OA
BRANCH  17  21
ATOM     18  C   UNL     1       8.034   7.190  18.397  0.00  0.00    +0.000 A 
ATOM     19  C   UNL     1       7.399   7.323  17.162  0.00  0.00    +0.000 A 
ATOM     20  C   UNL     1       6.761   6.229  16.574  0.00  0.00    +0.000 A 
ATOM     21  C   UNL     1       6.783   4.981  17.198  0.00  0.00    +0.000 A 
ATOM     22  C   UNL     1       7.433   4.842  18.425  0.00  0.00    +0.000 A 
ATOM     23  C   UNL     1       8.066   5.942  19.017  0.00  0.00    +0.000 A 
BRANCH  18  24
ATOM     24  O   UNL     1       8.587   8.335  18.896  0.00  0.00    +0.000 OA
BRANCH  24  26
ATOM     25  C   UNL     1       9.342  10.579  18.646  0.00  0.00    +0.000 C 
ATOM     26  C   UNL     1       8.394   9.517  18.119  0.00  0.00    +0.000 C 
ENDBRANCH  24  26
ENDBRANCH  18  24
ENDBRANCH  17  21
ENDBRANCH  16  17
ENDBRANCH   1  16
TORSDOF 6
ENDMDL
MODEL 2
REMARK VINA RESULT:      -7.9      3.507      8.830
REMARK  Name = 
REMARK  7 active torsions:
REMARK  status: ('A' for Active; 'I' for Inactive)
REMARK    1  A    between atoms: C_1  and  C_2
REMARK    2  A    between atoms: C_2  and  O_3
REMARK    3  A    between atoms: O_3  and  C_4
REMARK    4  A    between atoms: C_7  and  O_8
REMARK    5  A    between atoms: O_8  and  C_9
REMARK    6  A    between atoms: C_9  and  C_10
REMARK    7  A    between atoms: C_14  and  C_15
REMARK                            x       y       z     vdW  Elec       q    Type
REMARK                         _______ _______ _______ _____ _____    ______ ____
ROOT
ATOM      1  C   UNL     1       1.544   8.986  18.872  0.00  0.00    +0.000 A 
ATOM      2  C   UNL     1       1.293   8.658  20.209  0.00  0.00    +0.000 A 
ATOM      3  C   UNL     1       1.688   7.417  20.713  0.00  0.00    +0.000 A 
ATOM      4  C   UNL     1       2.379   6.514  19.900  0.00  0.00    +0.000 A 
ATOM      5  C   UNL     1       2.665   6.838  18.567  0.00  0.00    +0.000 A 
ATOM      6  C   UNL     1       2.195   8.051  18.054  0.00  0.00    +0.000 A 
ENDROOT
BRANCH   5   7
ATOM      7  C   UNL     1       3.365   5.832  17.715  0.00  0.00    +0.000 C 
ATOM      8  O   UNL     1       2.776   4.771  17.512  0.00  0.00    +0.000 OA
ATOM      9  N   UNL     1       4.628   6.106  17.156  0.00  0.00    +0.000 N 
ATOM     10  C   UNL     1       5.110   5.180  16.132  0.00  0.00    +0.000 C 
ATOM     11  C   UNL     1       5.988   4.076  16.710  0.00  0.00    +0.000 C 
ATOM     12  C   UNL     1       7.422   4.507  16.995  0.00  0.00    +0.000 C 
ATOM     13  C   UNL     1       7.560   5.678  17.967  0.00  0.00    +0.000 C 
ATOM     14  C   UNL     1       7.019   6.983  17.399  0.00  0.00    +0.000 C 
ATOM     15  C   UNL     1       5.518   7.177  17.610  0.00  0.00    +0.000 C 
ENDBRANCH   5   7
BRANCH   1  16
ATOM     16  C   UNL     1       1.177  10.337  18.307  0.00  0.00    +0.000 C 
BRANCH  16  17
ATOM     17  O   UNL     1       0.126  10.871  19.112  0.00  0.00    +0.000 OA
BRANCH  17  21
ATOM     18  C   UNL     1      -3.738  10.960  17.543  0.00  0.00    +0.000 A 
ATOM     19  C   UNL     1      -3.358  11.767  18.615  0.00  0.00    +0.000 A 
ATOM     20  C   UNL     1      -2.055  11.709  19.115  0.00  0.00    +0.000 A 
ATOM     21  C   UNL     1      -1.130  10.817  18.573  0.00  0.00    +0.000 A 
ATOM     22  C   UNL     1      -1.514   9.996  17.512  0.00  0.00    +0.000 A 
ATOM     23  C   UNL     1      -2.819  10.060  17.006  0.00  0.00    +0.000 A 
BRANCH  18  24
ATOM     24  O   UNL     1      -5.022  11.130  17.110  0.00  0.00    +0.000 OA
BRANCH  24  26
ATOM     25  C   UNL     1      -6.794  10.605  18.611  0.00  0.00    +0.000 C 
ATOM     26  C   UNL     1      -5.929  11.716  18.045  0.00  0.00    +0.000 C 
ENDBRANCH  24  26
ENDBRANCH  18  24
ENDBRANCH  17  21
ENDBRANCH  16  17
ENDBRANCH   1  16
TORSDOF 6
ENDMDL
MODEL 3
REMARK VINA RESULT:      -7.9      2.751      5.039
REMARK  Name = 
REMARK  7 active torsions:
REMARK  status: ('A' for Active; 'I' for Inactive)
REMARK    1  A    between atoms: C_1  and  C_2
REMARK    2  A    between atoms: C_2  and  O_3
REMARK    3  A    between atoms: O_3  and  C_4
REMARK    4  A    between atoms: C_7  and  O_8
REMARK    5  A    between atoms: O_8  and  C_9
REMARK    6  A    between atoms: C_9  and  C_10
REMARK    7  A    between atoms: C_14  and  C_15
REMARK                            x       y       z     vdW  Elec       q    Type
REMARK                         _______ _______ _______ _____ _____    ______ ____
ROOT
ATOM      1  C   UNL     1       6.755   6.431  17.389  0.00  0.00    +0.000 A 
ATOM      2  C   UNL     1       7.049   5.788  16.182  0.00  0.00    +0.000 A 
ATOM      3  C   UNL     1       6.096   4.970  15.572  0.00  0.00    +0.000 A 
ATOM      4  C   UNL     1       4.826   4.827  16.137  0.00  0.00    +0.000 A 
ATOM      5  C   UNL     1       4.504   5.487  17.330  0.00  0.00    +0.000 A 
ATOM      6  C   UNL     1       5.493   6.239  17.970  0.00  0.00    +0.000 A 
ENDROOT
BRANCH   5   7
ATOM      7  C   UNL     1       3.153   5.276  17.929  0.00  0.00    +0.000 C 
ATOM      8  O   UNL     1       2.377   6.232  17.899  0.00  0.00    +0.000 OA
ATOM      9  N   UNL     1       2.787   4.032  18.479  0.00  0.00    +0.000 N 
ATOM     10  C   UNL     1       1.372   3.843  18.796  0.00  0.00    +0.000 C 
ATOM     11  C   UNL     1       1.049   4.190  20.247  0.00  0.00    +0.000 C 
ATOM     12  C   UNL     1       1.419   3.098  21.243  0.00  0.00    +0.000 C 
ATOM     13  C   UNL     1       2.895   2.703  21.246  0.00  0.00    +0.000 C 
ATOM     14  C   UNL     1       3.325   2.015  19.957  0.00  0.00    +0.000 C 
ATOM     15  C   UNL     1       3.736   2.980  18.846  0.00  0.00    +0.000 C 
ENDBRANCH   5   7
BRANCH   1  16
ATOM     16  C   UNL     1       7.742   7.362  18.050  0.00  0.00    +0.000 C 
BRANCH  16  17
ATOM     17  O   UNL     1       7.778   8.568  17.285  0.00  0.00    +0.000 OA
BRANCH  17  21
ATOM     18  C   UNL     1       9.554  11.748  19.317  0.00  0.00    +0.000 A 
ATOM     19  C   UNL     1       9.623  10.438  19.792  0.00  0.00    +0.000 A 
ATOM     20  C   UNL     1       9.015   9.398  19.085  0.00  0.00    +0.000 A 
ATOM     21  C   UNL     1       8.300   9.663  17.917  0.00  0.00    +0.000 A 
ATOM     22  C   UNL     1       8.215  10.976  17.451  0.00  0.00    +0.000 A 
ATOM     23  C   UNL     1       8.832  12.017  18.156  0.00  0.00    +0.000 A 
BRANCH  18  24
ATOM     24  O   UNL     1      10.221  12.676  20.066  0.00  0.00    +0.000 OA
BRANCH  24  26
ATOM     25  C   UNL     1       9.778  14.250  21.797  0.00  0.00    +0.000 C 
ATOM     26  C   UNL     1       9.832  12.776  21.437  0.00  0.00    +0.000 C 
ENDBRANCH  24  26
ENDBRANCH  18  24
ENDBRANCH  17  21
ENDBRANCH  16  17
ENDBRANCH   1  16
TORSDOF 6
ENDMDL
MODEL 4
REMARK VINA RESULT:      -7.8      3.652      9.080
REMARK  Name = 
REMARK  7 active torsions:
REMARK  status: ('A' for Active; 'I' for Inactive)
REMARK    1  A    between atoms: C_1  and  C_2
REMARK    2  A    between atoms: C_2  and  O_3
REMARK    3  A    between atoms: O_3  and  C_4
REMARK    4  A    between atoms: C_7  and  O_8
REMARK    5  A    between atoms: O_8  and  C_9
REMARK    6  A    between atoms: C_9  and  C_10
REMARK    7  A    between atoms: C_14  and  C_15
REMARK                            x       y       z     vdW  Elec       q    Type
REMARK                         _______ _______ _______ _____ _____    ______ ____
ROOT
ATOM      1  C   UNL     1       1.099   8.881  20.331  0.00  0.00    +0.000 A 
ATOM      2  C   UNL     1       0.919   9.675  19.193  0.00  0.00    +0.000 A 
ATOM      3  C   UNL     1       1.515   9.313  17.984  0.00  0.00    +0.000 A 
ATOM      4  C   UNL     1       2.256   8.132  17.889  0.00  0.00    +0.000 A 
ATOM      5  C   UNL     1       2.422   7.309  19.010  0.00  0.00    +0.000 A 
ATOM      6  C   UNL     1       1.885   7.723  20.233  0.00  0.00    +0.000 A 
ENDROOT
BRANCH   5   7
ATOM      7  C   UNL     1       3.256   6.077  18.885  0.00  0.00    +0.000 C 
ATOM      8  O   UNL     1       4.303   6.180  18.245  0.00  0.00    +0.000 OA
ATOM      9  N   UNL     1       2.865   4.869  19.492  0.00  0.00    +0.000 N 
ATOM     10  C   UNL     1       3.863   3.802  19.539  0.00  0.00    +0.000 C 
ATOM     11  C   UNL     1       3.749   2.844  18.357  0.00  0.00    +0.000 C 
ATOM     12  C   UNL     1       2.637   1.811  18.501  0.00  0.00    +0.000 C 
ATOM     13  C   UNL     1       1.237   2.394  18.680  0.00  0.00    +0.000 C 
ATOM     14  C   UNL     1       1.066   3.124  20.006  0.00  0.00    +0.000 C 
ATOM     15  C   UNL     1       1.511   4.585  19.971  0.00  0.00    +0.000 C 
ENDBRANCH   5   7
BRANCH   1  16
ATOM     16  C   UNL     1       0.428   9.213  21.642  0.00  0.00    +0.000 C 
BRANCH  16  17
ATOM     17  O   UNL     1       0.674  10.593  21.915  0.00  0.00    +0.000 OA
BRANCH  17  21
ATOM     18  C   UNL     1      -2.699  13.007  22.355  0.00  0.00    +0.000 A 
ATOM     19  C   UNL     1      -2.422  11.959  23.233  0.00  0.00    +0.000 A 
ATOM     20  C   UNL     1      -1.284  11.171  23.054  0.00  0.00    +0.000 A 
ATOM     21  C   UNL     1      -0.431  11.398  21.973  0.00  0.00    +0.000 A 
ATOM     22  C   UNL     1      -0.717  12.435  21.084  0.00  0.00    +0.000 A 
ATOM     23  C   UNL     1      -1.855  13.230  21.269  0.00  0.00    +0.000 A 
BRANCH  18  24
ATOM     24  O   UNL     1      -3.815  13.737  22.652  0.00  0.00    +0.000 OA
BRANCH  24  26
ATOM     25  C   UNL     1      -5.465  12.688  21.294  0.00  0.00    +0.000 C 
ATOM     26  C   UNL     1      -5.043  13.012  22.716  0.00  0.00    +0.000 C 
ENDBRANCH  24  26
ENDBRANCH  18  24
ENDBRANCH  17  21
ENDBRANCH  16  17
ENDBRANCH   1  16
TORSDOF 6
ENDMDL
MODEL 5
REMARK VINA RESULT:      -7.8      0.744      1.209
REMARK  Name = 
REMARK  7 active torsions:
REMARK  status: ('A' for Active; 'I' for Inactive)
REMARK    1  A    between atoms: C_1  and  C_2
REMARK    2  A    between atoms: C_2  and  O_3
REMARK    3  A    between atoms: O_3  and  C_4
REMARK    4  A    between atoms: C_7  and  O_8
REMARK    5  A    between atoms: O_8  and  C_9
REMARK    6  A    between atoms: C_9  and  C_10
REMARK    7  A    between atoms: C_14  and  C_15
REMARK                            x       y       z     vdW  Elec       q    Type
REMARK                         _______ _______ _______ _____ _____    ______ ____
ROOT
ATOM      1  C   UNL     1       3.514   3.231  17.927  0.00  0.00    +0.000 A 
ATOM      2  C   UNL     1       2.503   2.268  17.824  0.00  0.00    +0.000 A 
ATOM      3  C   UNL     1       1.281   2.461  18.470  0.00  0.00    +0.000 A 
ATOM      4  C   UNL     1       1.041   3.638  19.185  0.00  0.00    +0.000 A 
ATOM      5  C   UNL     1       2.030   4.625  19.275  0.00  0.00    +0.000 A 
ATOM      6  C   UNL     1       3.276   4.385  18.689  0.00  0.00    +0.000 A 
ENDROOT
BRANCH   5   7
ATOM      7  C   UNL     1       1.756   5.850  20.084  0.00  0.00    +0.000 C 
ATOM      8  O   UNL     1       1.219   5.682  21.179  0.00  0.00    +0.000 OA
ATOM      9  N   UNL     1       2.121   7.127  19.617  0.00  0.00    +0.000 N 
ATOM     10  C   UNL     1       2.056   8.224  20.581  0.00  0.00    +0.000 C 
ATOM     11  C   UNL     1       0.723   8.966  20.531  0.00  0.00    +0.000 C 
ATOM     12  C   UNL     1       0.610   9.964  19.386  0.00  0.00    +0.000 C 
ATOM     13  C   UNL     1       0.786   9.366  17.991  0.00  0.00    +0.000 C 
ATOM     14  C   UNL     1       2.201   8.863  17.739  0.00  0.00    +0.000 C 
ATOM     15  C   UNL     1       2.447   7.434  18.223  0.00  0.00    +0.000 C 
ENDBRANCH   5   7
BRANCH   1  16
ATOM     16  C   UNL     1       4.828   3.079  17.200  0.00  0.00    +0.000 C 
BRANCH  16  17
ATOM     17  O   UNL     1       5.001   4.233  16.376  0.00  0.00    +0.000 OA
BRANCH  17  21
ATOM     18  C   UNL     1       7.542   7.115  18.001  0.00  0.00    +0.000 A 
ATOM     19  C   UNL     1       7.690   5.757  18.282  0.00  0.00    +0.000 A 
ATOM     20  C   UNL     1       6.820   4.820  17.721  0.00  0.00    +0.000 A 
ATOM     21  C   UNL     1       5.769   5.236  16.903  0.00  0.00    +0.000 A 
ATOM     22  C   UNL     1       5.608   6.596  16.635  0.00  0.00    +0.000 A 
ATOM     23  C   UNL     1       6.486   7.534  17.192  0.00  0.00    +0.000 A 
BRANCH  18  24
ATOM     24  O   UNL     1       8.475   7.935  18.570  0.00  0.00    +0.000 OA
BRANCH  24  26
ATOM     25  C   UNL     1       9.245  10.105  19.175  0.00  0.00    +0.000 C 
ATOM     26  C   UNL     1       8.435   9.305  18.170  0.00  0.00    +0.000 C 
ENDBRANCH  24  26
ENDBRANCH  18  24
ENDBRANCH  17  21
ENDBRANCH  16  17
ENDBRANCH   1  16
TORSDOF 6
ENDMDL
MODEL 6
REMARK VINA RESULT:      -7.7      2.721      4.994
REMARK  Name = 
REMARK  7 active torsions:
REMARK  status: ('A' for Active; 'I' for Inactive)
REMARK    1  A    between atoms: C_1  and  C_2
REMARK    2  A    between atoms: C_2  and  O_3
REMARK    3  A    between atoms: O_3  and  C_4
REMARK    4  A    between atoms: C_7  and  O_8
REMARK    5  A    between atoms: O_8  and  C_9
REMARK    6  A    between atoms: C_9  and  C_10
REMARK    7  A    between atoms: C_14  and  C_15
REMARK                            x       y       z     vdW  Elec       q    Type
REMARK                         _______ _______ _______ _____ _____    ______ ____
ROOT
ATOM      1  C   UNL     1       6.901   6.445  17.419  0.00  0.00    +0.000 A 
ATOM      2  C   UNL     1       7.183   5.810  16.204  0.00  0.00    +0.000 A 
ATOM      3  C   UNL     1       6.212   5.023  15.582  0.00  0.00    +0.000 A 
ATOM      4  C   UNL     1       4.937   4.903  16.143  0.00  0.00    +0.000 A 
ATOM      5  C   UNL     1       4.628   5.555  17.343  0.00  0.00    +0.000 A 
ATOM      6  C   UNL     1       5.633   6.276  17.995  0.00  0.00    +0.000 A 
ENDROOT
BRANCH   5   7
ATOM      7  C   UNL     1       3.271   5.369  17.937  0.00  0.00    +0.000 C 
ATOM      8  O   UNL     1       2.521   6.346  17.923  0.00  0.00    +0.000 OA
ATOM      9  N   UNL     1       2.871   4.127  18.464  0.00  0.00    +0.000 N 
ATOM     10  C   UNL     1       1.452   3.969  18.777  0.00  0.00    +0.000 C 
ATOM     11  C   UNL     1       1.136   4.298  20.232  0.00  0.00    +0.000 C 
ATOM     12  C   UNL     1       1.476   3.180  21.210  0.00  0.00    +0.000 C 
ATOM     13  C   UNL     1       2.941   2.747  21.208  0.00  0.00    +0.000 C 
ATOM     14  C   UNL     1       3.354   2.070  19.907  0.00  0.00    +0.000 C 
ATOM     15  C   UNL     1       3.793   3.043  18.814  0.00  0.00    +0.000 C 
ENDBRANCH   5   7
BRANCH   1  16
ATOM     16  C   UNL     1       7.909   7.344  18.093  0.00  0.00    +0.000 C 
BRANCH  16  17
ATOM     17  O   UNL     1       7.891   8.599  17.413  0.00  0.00    +0.000 OA
BRANCH  17  21
ATOM     18  C   UNL     1       9.411  11.970  19.344  0.00  0.00    +0.000 A 
ATOM     19  C   UNL     1       8.762  12.054  18.112  0.00  0.00    +0.000 A 
ATOM     20  C   UNL     1       8.267  10.905  17.495  0.00  0.00    +0.000 A 
ATOM     21  C   UNL     1       8.449   9.653  18.085  0.00  0.00    +0.000 A 
ATOM     22  C   UNL     1       9.114   9.565  19.308  0.00  0.00    +0.000 A 
ATOM     23  C   UNL     1       9.603  10.720  19.931  0.00  0.00    +0.000 A 
BRANCH  18  24
ATOM     24  O   UNL     1       9.815  13.162  19.875  0.00  0.00    +0.000 OA
BRANCH  24  26
ATOM     25  C   UNL     1       8.086  14.435  20.902  0.00  0.00    +0.000 C 
ATOM     26  C   UNL     1       8.945  14.274  19.661  0.00  0.00    +0.000 C 
ENDBRANCH  24  26
ENDBRANCH  18  24
ENDBRANCH  17  21
ENDBRANCH  16  17
ENDBRANCH   1  16
TORSDOF 6
ENDMDL
MODEL 7
REMARK VINA RESULT:      -7.7      3.946      9.089
REMARK  Name = 
REMARK  7 active torsions:
REMARK  status: ('A' for Active; 'I' for Inactive)
REMARK    1  A    between atoms: C_1  and  C_2
REMARK    2  A    between atoms: C_2  and  O_3
REMARK    3  A    between atoms: O_3  and  C_4
REMARK    4  A    between atoms: C_7  and  O_8
REMARK    5  A    between atoms: O_8  and  C_9
REMARK    6  A    between atoms: C_9  and  C_10
REMARK    7  A    between atoms: C_14  and  C_15
REMARK                            x       y       z     vdW  Elec       q    Type
REMARK                         _______ _______ _______ _____ _____    ______ ____
ROOT
ATOM      1  C   UNL     1       1.057   8.953  20.366  0.00  0.00    +0.000 A 
ATOM      2  C   UNL     1       0.866   9.728  19.216  0.00  0.00    +0.000 A 
ATOM      3  C   UNL     1       1.445   9.342  18.006  0.00  0.00    +0.000 A 
ATOM      4  C   UNL     1       2.178   8.155  17.922  0.00  0.00    +0.000 A 
ATOM      5  C   UNL     1       2.355   7.352  19.056  0.00  0.00    +0.000 A 
ATOM      6  C   UNL     1       1.836   7.789  20.278  0.00  0.00    +0.000 A 
ENDROOT
BRANCH   5   7
ATOM      7  C   UNL     1       3.181   6.113  18.941  0.00  0.00    +0.000 C 
ATOM      8  O   UNL     1       4.221   6.199  18.287  0.00  0.00    +0.000 OA
ATOM      9  N   UNL     1       2.792   4.918  19.575  0.00  0.00    +0.000 N 
ATOM     10  C   UNL     1       3.785   3.847  19.628  0.00  0.00    +0.000 C 
ATOM     11  C   UNL     1       3.651   2.869  18.464  0.00  0.00    +0.000 C 
ATOM     12  C   UNL     1       2.536   1.844  18.640  0.00  0.00    +0.000 C 
ATOM     13  C   UNL     1       1.141   2.438  18.827  0.00  0.00    +0.000 C 
ATOM     14  C   UNL     1       0.991   3.192  20.142  0.00  0.00    +0.000 C 
ATOM     15  C   UNL     1       1.442   4.650  20.076  0.00  0.00    +0.000 C 
ENDBRANCH   5   7
BRANCH   1  16
ATOM     16  C   UNL     1       0.405   9.312  21.679  0.00  0.00    +0.000 C 
BRANCH  16  17
ATOM     17  O   UNL     1       0.683  10.689  21.937  0.00  0.00    +0.000 OA
BRANCH  17  21
ATOM     18  C   UNL     1      -2.585  13.191  22.615  0.00  0.00    +0.000 A 
ATOM     19  C   UNL     1      -1.541  13.554  21.765  0.00  0.00    +0.000 A 
ATOM     20  C   UNL     1      -0.462  12.691  21.563  0.00  0.00    +0.000 A 
ATOM     21  C   UNL     1      -0.398  11.472  22.239  0.00  0.00    +0.000 A 
ATOM     22  C   UNL     1      -1.433  11.115  23.104  0.00  0.00    +0.000 A 
ATOM     23  C   UNL     1      -2.518  11.978  23.300  0.00  0.00    +0.000 A 
BRANCH  18  24
ATOM     24  O   UNL     1      -3.607  14.093  22.704  0.00  0.00    +0.000 OA
BRANCH  24  26
ATOM     25  C   UNL     1      -3.922  15.580  24.537  0.00  0.00    +0.000 C 
ATOM     26  C   UNL     1      -4.239  14.204  23.980  0.00  0.00    +0.000 C 
ENDBRANCH  24  26
ENDBRANCH  18  24
ENDBRANCH  17  21
ENDBRANCH  16  17
ENDBRANCH   1  16
TORSDOF 6
ENDMDL
MODEL 8
REMARK VINA RESULT:      -7.6      4.308      9.451
REMARK  Name = 
REMARK  7 active torsions:
REMARK  status: ('A' for Active; 'I' for Inactive)
REMARK    1  A    between atoms: C_1  and  C_2
REMARK    2  A    between atoms: C_2  and  O_3
REMARK    3  A    between atoms: O_3  and  C_4
REMARK    4  A    between atoms: C_7  and  O_8
REMARK    5  A    between atoms: O_8  and  C_9
REMARK    6  A    between atoms: C_9  and  C_10
REMARK    7  A    between atoms: C_14  and  C_15
REMARK                            x       y       z     vdW  Elec       q    Type
REMARK                         _______ _______ _______ _____ _____    ______ ____
ROOT
ATOM      1  C   UNL     1       8.978  10.641  18.486  0.00  0.00    +0.000 A 
ATOM      2  C   UNL     1       9.350  10.384  19.810  0.00  0.00    +0.000 A 
ATOM      3  C   UNL     1      10.302  11.188  20.441  0.00  0.00    +0.000 A 
ATOM      4  C   UNL     1      10.853  12.284  19.770  0.00  0.00    +0.000 A 
ATOM      5  C   UNL     1      10.470  12.574  18.454  0.00  0.00    +0.000 A 
ATOM      6  C   UNL     1       9.575  11.715  17.809  0.00  0.00    +0.000 A 
ENDROOT
BRANCH   5   7
ATOM      7  C   UNL     1      11.112  13.725  17.753  0.00  0.00    +0.000 C 
ATOM      8  O   UNL     1      12.249  13.544  17.316  0.00  0.00    +0.000 OA
ATOM      9  N   UNL     1      10.431  14.945  17.584  0.00  0.00    +0.000 N 
ATOM     10  C   UNL     1      11.029  15.912  16.664  0.00  0.00    +0.000 C 
ATOM     11  C   UNL     1      11.934  16.912  17.377  0.00  0.00    +0.000 C 
ATOM     12  C   UNL     1      11.185  18.040  18.076  0.00  0.00    +0.000 C 
ATOM     13  C   UNL     1      10.181  17.586  19.134  0.00  0.00    +0.000 C 
ATOM     14  C   UNL     1       8.996  16.836  18.540  0.00  0.00    +0.000 C 
ATOM     15  C   UNL     1       9.244  15.341  18.345  0.00  0.00    +0.000 C 
ENDBRANCH   5   7
BRANCH   1  16
ATOM     16  C   UNL     1       7.916   9.825  17.791  0.00  0.00    +0.000 C 
BRANCH  16  17
ATOM     17  O   UNL     1       8.473   8.540  17.511  0.00  0.00    +0.000 OA
BRANCH  17  21
ATOM     18  C   UNL     1       6.190   5.272  18.741  0.00  0.00    +0.000 A 
ATOM     19  C   UNL     1       7.414   5.584  19.335  0.00  0.00    +0.000 A 
ATOM     20  C   UNL     1       8.151   6.685  18.896  0.00  0.00    +0.000 A 
ATOM     21  C   UNL     1       7.691   7.464  17.833  0.00  0.00    +0.000 A 
ATOM     22  C   UNL     1       6.476   7.143  17.227  0.00  0.00    +0.000 A 
ATOM     23  C   UNL     1       5.733   6.043  17.673  0.00  0.00    +0.000 A 
BRANCH  18  24
ATOM     24  O   UNL     1       5.536   4.200  19.279  0.00  0.00    +0.000 OA
BRANCH  24  26
ATOM     25  C   UNL     1       3.264   4.511  19.919  0.00  0.00    +0.000 C 
ATOM     26  C   UNL     1       4.195   3.995  18.836  0.00  0.00    +0.000 C 
ENDBRANCH  24  26
ENDBRANCH  18  24
ENDBRANCH  17  21
ENDBRANCH  16  17
ENDBRANCH   1  16
TORSDOF 6
ENDMDL
MODEL 9
REMARK VINA RESULT:      -7.6      3.770      9.149
REMARK  Name = 
REMARK  7 active torsions:
REMARK  status: ('A' for Active; 'I' for Inactive)
REMARK    1  A    between atoms: C_1  and  C_2
REMARK    2  A    between atoms: C_2  and  O_3
REMARK    3  A    between atoms: O_3  and  C_4
REMARK    4  A    between atoms: C_7  and  O_8
REMARK    5  A    between atoms: O_8  and  C_9
REMARK    6  A    between atoms: C_9  and  C_10
REMARK    7  A    between atoms: C_14  and  C_15
REMARK                            x       y       z     vdW  Elec       q    Type
REMARK                         _______ _______ _______ _____ _____    ______ ____
ROOT
ATOM      1  C   UNL     1       0.922   9.490  19.319  0.00  0.00    +0.000 A 
ATOM      2  C   UNL     1       0.619   9.560  20.683  0.00  0.00    +0.000 A 
ATOM      3  C   UNL     1       1.054   8.557  21.551  0.00  0.00    +0.000 A 
ATOM      4  C   UNL     1       1.834   7.501  21.072  0.00  0.00    +0.000 A 
ATOM      5  C   UNL     1       2.171   7.429  19.715  0.00  0.00    +0.000 A 
ATOM      6  C   UNL     1       1.664   8.398  18.844  0.00  0.00    +0.000 A 
ENDROOT
BRANCH   5   7
ATOM      7  C   UNL     1       2.968   6.263  19.229  0.00  0.00    +0.000 C 
ATOM      8  O   UNL     1       3.889   6.508  18.449  0.00  0.00    +0.000 OA
ATOM      9  N   UNL     1       2.686   4.956  19.668  0.00  0.00    +0.000 N 
ATOM     10  C   UNL     1       3.675   3.927  19.352  0.00  0.00    +0.000 C 
ATOM     11  C   UNL     1       3.354   3.190  18.054  0.00  0.00    +0.000 C 
ATOM     12  C   UNL     1       2.283   2.116  18.198  0.00  0.00    +0.000 C 
ATOM     13  C   UNL     1       0.935   2.618  18.716  0.00  0.00    +0.000 C 
ATOM     14  C   UNL     1       0.999   3.096  20.161  0.00  0.00    +0.000 C 
ATOM     15  C   UNL     1       1.434   4.553  20.313  0.00  0.00    +0.000 C 
ENDBRANCH   5   7
BRANCH   1  16
ATOM     16  C   UNL     1       0.513  10.582  18.360  0.00  0.00    +0.000 C 
BRANCH  16  17
ATOM     17  O   UNL     1      -0.612  10.107  17.619  0.00  0.00    +0.000 OA
BRANCH  17  21
ATOM     18  C   UNL     1      -4.416  11.513  18.593  0.00  0.00    +0.000 A 
ATOM     19  C   UNL     1      -4.223  10.484  17.671  0.00  0.00    +0.000 A 
ATOM     20  C   UNL     1      -2.935  10.040  17.369  0.00  0.00    +0.000 A 
ATOM     21  C   UNL     1      -1.823  10.646  17.957  0.00  0.00    +0.000 A 
ATOM     22  C   UNL     1      -2.015  11.687  18.865  0.00  0.00    +0.000 A 
ATOM     23  C   UNL     1      -3.308  12.127  19.174  0.00  0.00    +0.000 A 
BRANCH  18  24
ATOM     24  O   UNL     1      -5.720  11.836  18.843  0.00  0.00    +0.000 OA
BRANCH  24  26
ATOM     25  C   UNL     1      -7.403  10.853  20.210  0.00  0.00    +0.000 C 
ATOM     26  C   UNL     1      -6.638  10.744  18.903  0.00  0.00    +0.000 C 
ENDBRANCH  24  26
ENDBRANCH  18  24
ENDBRANCH  17  21
ENDBRANCH  16  17
ENDBRANCH   1  16
TORSDOF 6
ENDMDL
