MODEL 1
REMARK VINA RESULT:      -9.7      0.000      0.000
REMARK  Name = 
REMARK  7 active torsions:
REMARK  status: ('A' for Active; 'I' for Inactive)
REMARK    1  A    between atoms: C_2  and  C_11
REMARK    2  A    between atoms: N_3  and  C_4
REMARK    3  A    between atoms: C_4  and  C_5
REMARK    4  A    between atoms: C_16  and  N_17
REMARK    5  A    between atoms: N_17  and  C_18
REMARK    6  A    between atoms: C_22  and  C_23
REMARK    7  A    between atoms: C_24  and  C_25
REMARK                            x       y       z     vdW  Elec       q    Type
REMARK                         _______ _______ _______ _____ _____    ______ ____
ROOT
ATOM      1  N   UNL     1       2.470   6.240  20.148  0.00  0.00    +0.000 N 
ATOM      2  H   UNL     1       3.444   6.411  19.885  0.00  0.00    +0.000 HD
ENDROOT
BRANCH   1   3
ATOM      3  C   UNL     1       1.775   7.480  20.137  0.00  0.00    +0.000 A 
ATOM      4  C   UNL     1       1.029   7.832  21.271  0.00  0.00    +0.000 A 
ATOM      5  C   UNL     1       0.327   9.049  21.355  0.00  0.00    +0.000 A 
ATOM      6  C   UNL     1       0.366   9.937  20.262  0.00  0.00    +0.000 A 
ATOM      7  C   UNL     1      -0.128  11.245  19.956  0.00  0.00    +0.000 A 
ATOM      8  N   UNL     1       0.191  11.602  18.701  0.00  0.00    +0.000 NA
ATOM      9  N   UNL     1       0.927  10.581  18.246  0.00  0.00    +0.000 N 
ATOM     10  C   UNL     1       1.104   9.570  19.146  0.00  0.00    +0.000 A 
ATOM     11  C   UNL     1       1.852   8.387  19.070  0.00  0.00    +0.000 A 
ATOM     12  H   UNL     1       1.292  10.639  17.302  0.00  0.00    +0.000 HD
BRANCH   7  13
ATOM     13  C   UNL     1      -0.807  12.113  20.872  0.00  0.00    +0.000 C 
ATOM     14  C   UNL     1      -1.243  11.719  22.085  0.00  0.00    +0.000 C 
BRANCH  14  15
ATOM     15  C   UNL     1      -2.036  12.543  23.002  0.00  0.00    +0.000 A 
ATOM     16  C   UNL     1      -1.525  13.761  23.444  0.00  0.00    +0.000 A 
ATOM     17  C   UNL     1      -2.274  14.524  24.335  0.00  0.00    +0.000 A 
ATOM     18  C   UNL     1      -3.506  14.049  24.763  0.00  0.00    +0.000 A 
ATOM     19  C   UNL     1      -3.938  12.824  24.280  0.00  0.00    +0.000 A 
ATOM     20  N   UNL     1      -3.235  12.064  23.411  0.00  0.00    +0.000 NA
ENDBRANCH  14  15
ENDBRANCH   7  13
ENDBRANCH   1   3
BRANCH   1  26
ATOM     21  C   UNL     1       2.618   4.354  18.538  0.00  0.00    +0.000 A 
ATOM     22  C   UNL     1       2.128   3.117  18.075  0.00  0.00    +0.000 A 
ATOM     23  C   UNL     1       1.125   2.441  18.766  0.00  0.00    +0.000 A 
ATOM     24  C   UNL     1       0.644   2.968  19.954  0.00  0.00    +0.000 A 
ATOM     25  C   UNL     1       1.135   4.189  20.424  0.00  0.00    +0.000 A 
ATOM     26  C   UNL     1       2.050   4.960  19.685  0.00  0.00    +0.000 A 
BRANCH  21  28
ATOM     27  O   UNL     1       3.664   6.075  17.301  0.00  0.00    +0.000 OA
ATOM     28  C   UNL     1       3.745   4.936  17.749  0.00  0.00    +0.000 C 
ATOM     29  N   UNL     1       4.831   4.114  17.526  0.00  0.00    +0.000 N 
ATOM     30  H   UNL     1       4.742   3.131  17.756  0.00  0.00    +0.000 HD
BRANCH  29  31
ATOM     31  C   UNL     1       5.940   4.531  16.696  0.00  0.00    +0.000 C 
BRANCH  31  32
ATOM     32  C   UNL     1       6.795   5.577  17.359  0.00  0.00    +0.000 A 
ATOM     33  C   UNL     1       6.924   6.852  16.801  0.00  0.00    +0.000 A 
ATOM     34  C   UNL     1       7.694   7.799  17.458  0.00  0.00    +0.000 A 
ATOM     35  N   UNL     1       8.348   7.561  18.615  0.00  0.00    +0.000 NA
ATOM     36  C   UNL     1       8.226   6.321  19.133  0.00  0.00    +0.000 A 
ATOM     37  C   UNL     1       7.477   5.308  18.549  0.00  0.00    +0.000 A 
ENDBRANCH  31  32
ENDBRANCH  29  31
ENDBRANCH  21  28
ENDBRANCH   1  26
TORSDOF 7
ENDMDL
MODEL 2
REMARK VINA RESULT:      -9.4      0.672      1.189
REMARK  Name = 
REMARK  7 active torsions:
REMARK  status: ('A' for Active; 'I' for Inactive)
REMARK    1  A    between atoms: C_2  and  C_11
REMARK    2  A    between atoms: N_3  and  C_4
REMARK    3  A    between atoms: C_4  and  C_5
REMARK    4  A    between atoms: C_16  and  N_17
REMARK    5  A    between atoms: N_17  and  C_18
REMARK    6  A    between atoms: C_22  and  C_23
REMARK    7  A    between atoms: C_24  and  C_25
REMARK                            x       y       z     vdW  Elec       q    Type
REMARK                         _______ _______ _______ _____ _____    ______ ____
ROOT
ATOM      1  N   UNL     1       2.587   6.077  20.104  0.00  0.00    +0.000 N 
ATOM      2  H   UNL     1       3.568   6.225  19.850  0.00  0.00    +0.000 HD
ENDROOT
BRANCH   1   3
ATOM      3  C   UNL     1       1.926   7.335  20.102  0.00  0.00    +0.000 A 
ATOM      4  C   UNL     1       1.242   7.727  21.262  0.00  0.00    +0.000 A 
ATOM      5  C   UNL     1       0.577   8.964  21.355  0.00  0.00    +0.000 A 
ATOM      6  C   UNL     1       0.590   9.832  20.246  0.00  0.00    +0.000 A 
ATOM      7  C   UNL     1       0.118  11.148  19.939  0.00  0.00    +0.000 A 
ATOM      8  N   UNL     1       0.388  11.474  18.665  0.00  0.00    +0.000 NA
ATOM      9  N   UNL     1       1.076  10.427  18.195  0.00  0.00    +0.000 N 
ATOM     10  C   UNL     1       1.266   9.426  19.104  0.00  0.00    +0.000 A 
ATOM     11  C   UNL     1       1.978   8.222  19.016  0.00  0.00    +0.000 A 
ATOM     12  H   UNL     1       1.398  10.459  17.235  0.00  0.00    +0.000 HD
BRANCH   7  13
ATOM     13  C   UNL     1      -0.495  12.049  20.869  0.00  0.00    +0.000 C 
ATOM     14  C   UNL     1      -1.667  11.798  21.486  0.00  0.00    +0.000 C 
BRANCH  14  15
ATOM     15  C   UNL     1      -2.379  12.739  22.356  0.00  0.00    +0.000 A 
ATOM     16  C   UNL     1      -3.097  12.254  23.447  0.00  0.00    +0.000 A 
ATOM     17  C   UNL     1      -3.791  13.153  24.251  0.00  0.00    +0.000 A 
ATOM     18  C   UNL     1      -3.753  14.507  23.942  0.00  0.00    +0.000 A 
ATOM     19  C   UNL     1      -3.021  14.904  22.835  0.00  0.00    +0.000 A 
ATOM     20  N   UNL     1      -2.334  14.054  22.039  0.00  0.00    +0.000 NA
ENDBRANCH  14  15
ENDBRANCH   7  13
ENDBRANCH   1   3
BRANCH   1  26
ATOM     21  C   UNL     1       2.706   4.200  18.481  0.00  0.00    +0.000 A 
ATOM     22  C   UNL     1       2.187   2.982  17.999  0.00  0.00    +0.000 A 
ATOM     23  C   UNL     1       1.152   2.332  18.667  0.00  0.00    +0.000 A 
ATOM     24  C   UNL     1       0.667   2.864  19.852  0.00  0.00    +0.000 A 
ATOM     25  C   UNL     1       1.186   4.066  20.340  0.00  0.00    +0.000 A 
ATOM     26  C   UNL     1       2.137   4.814  19.623  0.00  0.00    +0.000 A 
BRANCH  21  28
ATOM     27  O   UNL     1       3.774   5.843  17.158  0.00  0.00    +0.000 OA
ATOM     28  C   UNL     1       3.864   4.753  17.716  0.00  0.00    +0.000 C 
ATOM     29  N   UNL     1       4.991   3.961  17.643  0.00  0.00    +0.000 N 
ATOM     30  H   UNL     1       4.921   2.999  17.959  0.00  0.00    +0.000 HD
BRANCH  29  31
ATOM     31  C   UNL     1       6.139   4.345  16.852  0.00  0.00    +0.000 C 
BRANCH  31  32
ATOM     32  C   UNL     1       6.894   5.499  17.455  0.00  0.00    +0.000 A 
ATOM     33  C   UNL     1       7.550   5.360  18.681  0.00  0.00    +0.000 A 
ATOM     34  C   UNL     1       8.261   6.435  19.190  0.00  0.00    +0.000 A 
ATOM     35  N   UNL     1       8.352   7.633  18.572  0.00  0.00    +0.000 NA
ATOM     36  C   UNL     1       7.700   7.756  17.397  0.00  0.00    +0.000 A 
ATOM     37  C   UNL     1       6.965   6.737  16.809  0.00  0.00    +0.000 A 
ENDBRANCH  31  32
ENDBRANCH  29  31
ENDBRANCH  21  28
ENDBRANCH   1  26
TORSDOF 7
ENDMDL
MODEL 3
REMARK VINA RESULT:      -9.4      1.648      2.386
REMARK  Name = 
REMARK  7 active torsions:
REMARK  status: ('A' for Active; 'I' for Inactive)
REMARK    1  A    between atoms: C_2  and  C_11
REMARK    2  A    between atoms: N_3  and  C_4
REMARK    3  A    between atoms: C_4  and  C_5
REMARK    4  A    between atoms: C_16  and  N_17
REMARK    5  A    between atoms: N_17  and  C_18
REMARK    6  A    between atoms: C_22  and  C_23
REMARK    7  A    between atoms: C_24  and  C_25
REMARK                            x       y       z     vdW  Elec       q    Type
REMARK                         _______ _______ _______ _____ _____    ______ ____
ROOT
ATOM      1  N   UNL     1       2.708   6.242  20.223  0.00  0.00    +0.000 N 
ATOM      2  H   UNL     1       3.676   6.489  20.002  0.00  0.00    +0.000 HD
ENDROOT
BRANCH   1   3
ATOM      3  C   UNL     1       1.916   7.422  20.163  0.00  0.00    +0.000 A 
ATOM      4  C   UNL     1       1.080   7.715  21.250  0.00  0.00    +0.000 A 
ATOM      5  C   UNL     1       0.278   8.871  21.284  0.00  0.00    +0.000 A 
ATOM      6  C   UNL     1       0.309   9.757  20.190  0.00  0.00    +0.000 A 
ATOM      7  C   UNL     1      -0.271  11.020  19.846  0.00  0.00    +0.000 A 
ATOM      8  N   UNL     1       0.090  11.398  18.610  0.00  0.00    +0.000 NA
ATOM      9  N   UNL     1       0.932  10.440  18.205  0.00  0.00    +0.000 N 
ATOM     10  C   UNL     1       1.137   9.449  19.120  0.00  0.00    +0.000 A 
ATOM     11  C   UNL     1       1.981   8.331  19.096  0.00  0.00    +0.000 A 
ATOM     12  H   UNL     1       1.345  10.526  17.283  0.00  0.00    +0.000 HD
BRANCH   7  13
ATOM     13  C   UNL     1      -1.070  11.832  20.716  0.00  0.00    +0.000 C 
ATOM     14  C   UNL     1      -0.776  12.043  22.015  0.00  0.00    +0.000 C 
BRANCH  14  15
ATOM     15  C   UNL     1      -1.625  12.773  22.961  0.00  0.00    +0.000 A 
ATOM     16  C   UNL     1      -2.873  12.257  23.301  0.00  0.00    +0.000 A 
ATOM     17  C   UNL     1      -3.682  12.971  24.179  0.00  0.00    +0.000 A 
ATOM     18  C   UNL     1      -3.227  14.179  24.689  0.00  0.00    +0.000 A 
ATOM     19  C   UNL     1      -1.976  14.625  24.294  0.00  0.00    +0.000 A 
ATOM     20  N   UNL     1      -1.167  13.951  23.446  0.00  0.00    +0.000 NA
ENDBRANCH  14  15
ENDBRANCH   7  13
ENDBRANCH   1   3
BRANCH   1  26
ATOM     21  C   UNL     1       3.321   4.196  18.954  0.00  0.00    +0.000 A 
ATOM     22  C   UNL     1       2.964   2.925  18.462  0.00  0.00    +0.000 A 
ATOM     23  C   UNL     1       1.746   2.342  18.804  0.00  0.00    +0.000 A 
ATOM     24  C   UNL     1       0.902   2.999  19.686  0.00  0.00    +0.000 A 
ATOM     25  C   UNL     1       1.256   4.254  20.186  0.00  0.00    +0.000 A 
ATOM     26  C   UNL     1       2.414   4.928  19.759  0.00  0.00    +0.000 A 
BRANCH  21  28
ATOM     27  O   UNL     1       5.305   5.429  19.317  0.00  0.00    +0.000 OA
ATOM     28  C   UNL     1       4.684   4.674  18.575  0.00  0.00    +0.000 C 
ATOM     29  N   UNL     1       5.165   4.260  17.350  0.00  0.00    +0.000 N 
ATOM     30  H   UNL     1       4.522   3.803  16.713  0.00  0.00    +0.000 HD
BRANCH  29  31
ATOM     31  C   UNL     1       6.430   4.733  16.831  0.00  0.00    +0.000 C 
BRANCH  31  32
ATOM     32  C   UNL     1       6.541   4.562  15.340  0.00  0.00    +0.000 A 
ATOM     33  C   UNL     1       7.530   5.235  14.616  0.00  0.00    +0.000 A 
ATOM     34  C   UNL     1       7.621   5.028  13.250  0.00  0.00    +0.000 A 
ATOM     35  N   UNL     1       6.795   4.213  12.558  0.00  0.00    +0.000 NA
ATOM     36  C   UNL     1       5.836   3.583  13.268  0.00  0.00    +0.000 A 
ATOM     37  C   UNL     1       5.667   3.726  14.639  0.00  0.00    +0.000 A 
ENDBRANCH  31  32
ENDBRANCH  29  31
ENDBRANCH  21  28
ENDBRANCH   1  26
TORSDOF 7
ENDMDL
MODEL 4
REMARK VINA RESULT:      -9.2      3.262     10.127
REMARK  Name = 
REMARK  7 active torsions:
REMARK  status: ('A' for Active; 'I' for Inactive)
REMARK    1  A    between atoms: C_2  and  C_11
REMARK    2  A    between atoms: N_3  and  C_4
REMARK    3  A    between atoms: C_4  and  C_5
REMARK    4  A    between atoms: C_16  and  N_17
REMARK    5  A    between atoms: N_17  and  C_18
REMARK    6  A    between atoms: C_22  and  C_23
REMARK    7  A    between atoms: C_24  and  C_25
REMARK                            x       y       z     vdW  Elec       q    Type
REMARK                         _______ _______ _______ _____ _____    ______ ____
ROOT
ATOM      1  N   UNL     1      -1.480  11.609  22.255  0.00  0.00    +0.000 N 
ATOM      2  H   UNL     1      -2.383  11.132  22.325  0.00  0.00    +0.000 HD
ENDROOT
BRANCH   1   3
ATOM      3  C   UNL     1      -0.605  10.808  21.471  0.00  0.00    +0.000 A 
ATOM      4  C   UNL     1      -0.069   9.649  22.052  0.00  0.00    +0.000 A 
ATOM      5  C   UNL     1       0.789   8.788  21.343  0.00  0.00    +0.000 A 
ATOM      6  C   UNL     1       1.127   9.103  20.012  0.00  0.00    +0.000 A 
ATOM      7  C   UNL     1       1.883   8.506  18.953  0.00  0.00    +0.000 A 
ATOM      8  N   UNL     1       1.900   9.295  17.866  0.00  0.00    +0.000 NA
ATOM      9  N   UNL     1       1.120  10.330  18.199  0.00  0.00    +0.000 N 
ATOM     10  C   UNL     1       0.593  10.257  19.456  0.00  0.00    +0.000 A 
ATOM     11  C   UNL     1      -0.304  11.094  20.131  0.00  0.00    +0.000 A 
ATOM     12  H   UNL     1       0.978  11.061  17.511  0.00  0.00    +0.000 HD
BRANCH   7  13
ATOM     13  C   UNL     1       2.485   7.206  18.991  0.00  0.00    +0.000 C 
ATOM     14  C   UNL     1       2.195   6.226  18.111  0.00  0.00    +0.000 C 
BRANCH  14  15
ATOM     15  C   UNL     1       2.704   4.854  18.183  0.00  0.00    +0.000 A 
ATOM     16  C   UNL     1       1.985   3.824  17.582  0.00  0.00    +0.000 A 
ATOM     17  C   UNL     1       2.463   2.521  17.678  0.00  0.00    +0.000 A 
ATOM     18  C   UNL     1       3.640   2.281  18.374  0.00  0.00    +0.000 A 
ATOM     19  C   UNL     1       4.290   3.361  18.949  0.00  0.00    +0.000 A 
ATOM     20  N   UNL     1       3.852   4.638  18.868  0.00  0.00    +0.000 NA
ENDBRANCH  14  15
ENDBRANCH   7  13
ENDBRANCH   1   3
BRANCH   1  26
ATOM     21  C   UNL     1      -2.740  13.634  21.561  0.00  0.00    +0.000 A 
ATOM     22  C   UNL     1      -2.851  15.038  21.527  0.00  0.00    +0.000 A 
ATOM     23  C   UNL     1      -1.948  15.843  22.216  0.00  0.00    +0.000 A 
ATOM     24  C   UNL     1      -0.962  15.251  22.990  0.00  0.00    +0.000 A 
ATOM     25  C   UNL     1      -0.855  13.859  23.037  0.00  0.00    +0.000 A 
ATOM     26  C   UNL     1      -1.667  13.021  22.251  0.00  0.00    +0.000 A 
BRANCH  21  28
ATOM     27  O   UNL     1      -4.818  12.513  21.448  0.00  0.00    +0.000 OA
ATOM     28  C   UNL     1      -3.817  12.886  20.844  0.00  0.00    +0.000 C 
ATOM     29  N   UNL     1      -3.595  12.610  19.511  0.00  0.00    +0.000 N 
ATOM     30  H   UNL     1      -2.667  12.775  19.136  0.00  0.00    +0.000 HD
BRANCH  29  31
ATOM     31  C   UNL     1      -4.519  11.810  18.737  0.00  0.00    +0.000 C 
BRANCH  31  32
ATOM     32  C   UNL     1      -3.860  11.149  17.557  0.00  0.00    +0.000 A 
ATOM     33  C   UNL     1      -2.718  10.361  17.726  0.00  0.00    +0.000 A 
ATOM     34  C   UNL     1      -2.157   9.743  16.620  0.00  0.00    +0.000 A 
ATOM     35  N   UNL     1      -2.644   9.864  15.366  0.00  0.00    +0.000 NA
ATOM     36  C   UNL     1      -3.738  10.641  15.217  0.00  0.00    +0.000 A 
ATOM     37  C   UNL     1      -4.369  11.298  16.264  0.00  0.00    +0.000 A 
ENDBRANCH  31  32
ENDBRANCH  29  31
ENDBRANCH  21  28
ENDBRANCH   1  26
TORSDOF 7
ENDMDL
MODEL 5
REMARK VINA RESULT:      -9.2      1.951      2.715
REMARK  Name = 
REMARK  7 active torsions:
REMARK  status: ('A' for Active; 'I' for Inactive)
REMARK    1  A    between atoms: C_2  and  C_11
REMARK    2  A    between atoms: N_3  and  C_4
REMARK    3  A    between atoms: C_4  and  C_5
REMARK    4  A    between atoms: C_16  and  N_17
REMARK    5  A    between atoms: N_17  and  C_18
REMARK    6  A    between atoms: C_22  and  C_23
REMARK    7  A    between atoms: C_24  and  C_25
REMARK                            x       y       z     vdW  Elec       q    Type
REMARK                         _______ _______ _______ _____ _____    ______ ____
ROOT
ATOM      1  N   UNL     1       2.956   6.354  19.652  0.00  0.00    +0.000 N 
ATOM      2  H   UNL     1       3.905   6.662  19.423  0.00  0.00    +0.000 HD
ENDROOT
BRANCH   1   3
ATOM      3  C   UNL     1       2.131   7.504  19.793  0.00  0.00    +0.000 A 
ATOM      4  C   UNL     1       1.525   7.737  21.036  0.00  0.00    +0.000 A 
ATOM      5  C   UNL     1       0.710   8.859  21.271  0.00  0.00    +0.000 A 
ATOM      6  C   UNL     1       0.487   9.774  20.223  0.00  0.00    +0.000 A 
ATOM      7  C   UNL     1      -0.191  11.022  20.046  0.00  0.00    +0.000 A 
ATOM      8  N   UNL     1      -0.103  11.445  18.775  0.00  0.00    +0.000 NA
ATOM      9  N   UNL     1       0.669  10.531  18.176  0.00  0.00    +0.000 N 
ATOM     10  C   UNL     1       1.090   9.525  18.997  0.00  0.00    +0.000 A 
ATOM     11  C   UNL     1       1.947   8.441  18.765  0.00  0.00    +0.000 A 
ATOM     12  H   UNL     1       0.882  10.655  17.193  0.00  0.00    +0.000 HD
BRANCH   7  13
ATOM     13  C   UNL     1      -0.822  11.780  21.086  0.00  0.00    +0.000 C 
ATOM     14  C   UNL     1      -2.076  12.266  20.995  0.00  0.00    +0.000 C 
BRANCH  14  15
ATOM     15  C   UNL     1      -2.714  13.137  21.987  0.00  0.00    +0.000 A 
ATOM     16  C   UNL     1      -3.603  12.588  22.908  0.00  0.00    +0.000 A 
ATOM     17  C   UNL     1      -4.224  13.427  23.829  0.00  0.00    +0.000 A 
ATOM     18  C   UNL     1      -3.944  14.787  23.802  0.00  0.00    +0.000 A 
ATOM     19  C   UNL     1      -3.053  15.251  22.849  0.00  0.00    +0.000 A 
ATOM     20  N   UNL     1      -2.432  14.460  21.946  0.00  0.00    +0.000 NA
ENDBRANCH  14  15
ENDBRANCH   7  13
ENDBRANCH   1   3
BRANCH   1  26
ATOM     21  C   UNL     1       3.376   4.672  17.873  0.00  0.00    +0.000 A 
ATOM     22  C   UNL     1       3.023   3.462  17.244  0.00  0.00    +0.000 A 
ATOM     23  C   UNL     1       2.025   2.646  17.772  0.00  0.00    +0.000 A 
ATOM     24  C   UNL     1       1.412   3.006  18.963  0.00  0.00    +0.000 A 
ATOM     25  C   UNL     1       1.767   4.198  19.597  0.00  0.00    +0.000 A 
ATOM     26  C   UNL     1       2.675   5.107  19.024  0.00  0.00    +0.000 A 
BRANCH  21  28
ATOM     27  O   UNL     1       4.490   6.639  17.180  0.00  0.00    +0.000 OA
ATOM     28  C   UNL     1       4.513   5.413  17.250  0.00  0.00    +0.000 C 
ATOM     29  N   UNL     1       5.538   4.650  16.731  0.00  0.00    +0.000 N 
ATOM     30  H   UNL     1       5.396   3.649  16.650  0.00  0.00    +0.000 HD
BRANCH  29  31
ATOM     31  C   UNL     1       6.646   5.248  16.018  0.00  0.00    +0.000 C 
BRANCH  31  32
ATOM     32  C   UNL     1       6.726   4.787  14.588  0.00  0.00    +0.000 A 
ATOM     33  C   UNL     1       5.834   3.830  14.095  0.00  0.00    +0.000 A 
ATOM     34  C   UNL     1       5.920   3.454  12.764  0.00  0.00    +0.000 A 
ATOM     35  N   UNL     1       6.832   3.951  11.901  0.00  0.00    +0.000 NA
ATOM     36  C   UNL     1       7.696   4.862  12.396  0.00  0.00    +0.000 A 
ATOM     37  C   UNL     1       7.687   5.302  13.713  0.00  0.00    +0.000 A 
ENDBRANCH  31  32
ENDBRANCH  29  31
ENDBRANCH  21  28
ENDBRANCH   1  26
TORSDOF 7
ENDMDL
MODEL 6
REMARK VINA RESULT:      -9.1      3.113     10.991
REMARK  Name = 
REMARK  7 active torsions:
REMARK  status: ('A' for Active; 'I' for Inactive)
REMARK    1  A    between atoms: C_2  and  C_11
REMARK    2  A    between atoms: N_3  and  C_4
REMARK    3  A    between atoms: C_4  and  C_5
REMARK    4  A    between atoms: C_16  and  N_17
REMARK    5  A    between atoms: N_17  and  C_18
REMARK    6  A    between atoms: C_22  and  C_23
REMARK    7  A    between atoms: C_24  and  C_25
REMARK                            x       y       z     vdW  Elec       q    Type
REMARK                         _______ _______ _______ _____ _____    ______ ____
ROOT
ATOM      1  N   UNL     1       0.433  10.141  20.117  0.00  0.00    +0.000 N 
ATOM      2  H   UNL     1      -0.549   9.893  20.268  0.00  0.00    +0.000 HD
ENDROOT
BRANCH   1   3
ATOM      3  C   UNL     1       1.140   8.970  19.731  0.00  0.00    +0.000 A 
ATOM      4  C   UNL     1       1.521   8.838  18.388  0.00  0.00    +0.000 A 
ATOM      5  C   UNL     1       2.241   7.723  17.922  0.00  0.00    +0.000 A 
ATOM      6  C   UNL     1       2.582   6.702  18.830  0.00  0.00    +0.000 A 
ATOM      7  C   UNL     1       3.324   5.478  18.802  0.00  0.00    +0.000 A 
ATOM      8  N   UNL     1       3.292   4.864  19.996  0.00  0.00    +0.000 NA
ATOM      9  N   UNL     1       2.610   5.707  20.781  0.00  0.00    +0.000 N 
ATOM     10  C   UNL     1       2.192   6.845  20.154  0.00  0.00    +0.000 A 
ATOM     11  C   UNL     1       1.523   7.975  20.643  0.00  0.00    +0.000 A 
ATOM     12  H   UNL     1       2.469   5.447  21.750  0.00  0.00    +0.000 HD
BRANCH   7  13
ATOM     13  C   UNL     1       4.076   4.987  17.685  0.00  0.00    +0.000 C 
ATOM     14  C   UNL     1       4.984   5.726  17.018  0.00  0.00    +0.000 C 
BRANCH  14  15
ATOM     15  C   UNL     1       5.691   5.299  15.806  0.00  0.00    +0.000 A 
ATOM     16  C   UNL     1       5.051   4.451  14.904  0.00  0.00    +0.000 A 
ATOM     17  C   UNL     1       5.740   4.030  13.771  0.00  0.00    +0.000 A 
ATOM     18  C   UNL     1       7.045   4.460  13.572  0.00  0.00    +0.000 A 
ATOM     19  C   UNL     1       7.608   5.296  14.522  0.00  0.00    +0.000 A 
ATOM     20  N   UNL     1       6.963   5.726  15.629  0.00  0.00    +0.000 NA
ENDBRANCH  14  15
ENDBRANCH   7  13
ENDBRANCH   1   3
BRANCH   1  26
ATOM     21  C   UNL     1      -0.465  12.040  18.791  0.00  0.00    +0.000 A 
ATOM     22  C   UNL     1      -0.294  13.335  18.262  0.00  0.00    +0.000 A 
ATOM     23  C   UNL     1       0.826  14.097  18.585  0.00  0.00    +0.000 A 
ATOM     24  C   UNL     1       1.754  13.594  19.483  0.00  0.00    +0.000 A 
ATOM     25  C   UNL     1       1.583  12.316  20.021  0.00  0.00    +0.000 A 
ATOM     26  C   UNL     1       0.535  11.471  19.615  0.00  0.00    +0.000 A 
BRANCH  21  28
ATOM     27  O   UNL     1      -1.797  10.137  18.356  0.00  0.00    +0.000 OA
ATOM     28  C   UNL     1      -1.745  11.361  18.429  0.00  0.00    +0.000 C 
ATOM     29  N   UNL     1      -2.820  12.179  18.144  0.00  0.00    +0.000 N 
ATOM     30  H   UNL     1      -2.649  13.172  18.034  0.00  0.00    +0.000 HD
BRANCH  29  31
ATOM     31  C   UNL     1      -4.083  11.641  17.687  0.00  0.00    +0.000 C 
BRANCH  31  32
ATOM     32  C   UNL     1      -5.093  11.524  18.796  0.00  0.00    +0.000 A 
ATOM     33  C   UNL     1      -5.011  12.342  19.926  0.00  0.00    +0.000 A 
ATOM     34  C   UNL     1      -5.977  12.227  20.912  0.00  0.00    +0.000 A 
ATOM     35  N   UNL     1      -7.005  11.352  20.856  0.00  0.00    +0.000 NA
ATOM     36  C   UNL     1      -7.062  10.558  19.766  0.00  0.00    +0.000 A 
ATOM     37  C   UNL     1      -6.142  10.601  18.728  0.00  0.00    +0.000 A 
ENDBRANCH  31  32
ENDBRANCH  29  31
ENDBRANCH  21  28
ENDBRANCH   1  26
TORSDOF 7
ENDMDL
MODEL 7
REMARK VINA RESULT:      -9.1      1.086      1.275
REMARK  Name = 
REMARK  7 active torsions:
REMARK  status: ('A' for Active; 'I' for Inactive)
REMARK    1  A    between atoms: C_2  and  C_11
REMARK    2  A    between atoms: N_3  and  C_4
REMARK    3  A    between atoms: C_4  and  C_5
REMARK    4  A    between atoms: C_16  and  N_17
REMARK    5  A    between atoms: N_17  and  C_18
REMARK    6  A    between atoms: C_22  and  C_23
REMARK    7  A    between atoms: C_24  and  C_25
REMARK                            x       y       z     vdW  Elec       q    Type
REMARK                         _______ _______ _______ _____ _____    ______ ____
ROOT
ATOM      1  N   UNL     1       2.906   5.804  19.825  0.00  0.00    +0.000 N 
ATOM      2  H   UNL     1       3.821   5.931  19.383  0.00  0.00    +0.000 HD
ENDROOT
BRANCH   1   3
ATOM      3  C   UNL     1       2.250   7.064  19.877  0.00  0.00    +0.000 A 
ATOM      4  C   UNL     1       1.708   7.479  21.102  0.00  0.00    +0.000 A 
ATOM      5  C   UNL     1       1.060   8.720  21.250  0.00  0.00    +0.000 A 
ATOM      6  C   UNL     1       0.944   9.567  20.131  0.00  0.00    +0.000 A 
ATOM      7  C   UNL     1       0.440  10.879  19.856  0.00  0.00    +0.000 A 
ATOM      8  N   UNL     1       0.559  11.180  18.554  0.00  0.00    +0.000 NA
ATOM      9  N   UNL     1       1.185  10.122  18.026  0.00  0.00    +0.000 N 
ATOM     10  C   UNL     1       1.480   9.138  18.925  0.00  0.00    +0.000 A 
ATOM     11  C   UNL     1       2.175   7.931  18.777  0.00  0.00    +0.000 A 
ATOM     12  H   UNL     1       1.392  10.136  17.034  0.00  0.00    +0.000 HD
BRANCH   7  13
ATOM     13  C   UNL     1      -0.059  11.799  20.835  0.00  0.00    +0.000 C 
ATOM     14  C   UNL     1      -1.022  11.488  21.726  0.00  0.00    +0.000 C 
BRANCH  14  15
ATOM     15  C   UNL     1      -1.634  12.432  22.666  0.00  0.00    +0.000 A 
ATOM     16  C   UNL     1      -2.934  12.206  23.114  0.00  0.00    +0.000 A 
ATOM     17  C   UNL     1      -3.516  13.121  23.985  0.00  0.00    +0.000 A 
ATOM     18  C   UNL     1      -2.789  14.236  24.381  0.00  0.00    +0.000 A 
ATOM     19  C   UNL     1      -1.506  14.389  23.883  0.00  0.00    +0.000 A 
ATOM     20  N   UNL     1      -0.913  13.515  23.040  0.00  0.00    +0.000 NA
ENDBRANCH  14  15
ENDBRANCH   7  13
ENDBRANCH   1   3
BRANCH   1  26
ATOM     21  C   UNL     1       3.174   3.508  18.916  0.00  0.00    +0.000 A 
ATOM     22  C   UNL     1       2.597   2.273  18.559  0.00  0.00    +0.000 A 
ATOM     23  C   UNL     1       1.259   2.002  18.835  0.00  0.00    +0.000 A 
ATOM     24  C   UNL     1       0.503   2.940  19.521  0.00  0.00    +0.000 A 
ATOM     25  C   UNL     1       1.073   4.161  19.888  0.00  0.00    +0.000 A 
ATOM     26  C   UNL     1       2.380   4.518  19.509  0.00  0.00    +0.000 A 
BRANCH  21  28
ATOM     27  O   UNL     1       5.445   3.643  19.555  0.00  0.00    +0.000 OA
ATOM     28  C   UNL     1       4.635   3.641  18.634  0.00  0.00    +0.000 C 
ATOM     29  N   UNL     1       4.996   3.804  17.313  0.00  0.00    +0.000 N 
ATOM     30  H   UNL     1       4.264   3.989  16.635  0.00  0.00    +0.000 HD
BRANCH  29  31
ATOM     31  C   UNL     1       6.370   4.040  16.925  0.00  0.00    +0.000 C 
BRANCH  31  32
ATOM     32  C   UNL     1       6.851   5.410  17.316  0.00  0.00    +0.000 A 
ATOM     33  C   UNL     1       6.370   6.549  16.664  0.00  0.00    +0.000 A 
ATOM     34  C   UNL     1       6.813   7.797  17.074  0.00  0.00    +0.000 A 
ATOM     35  N   UNL     1       7.704   7.985  18.072  0.00  0.00    +0.000 NA
ATOM     36  C   UNL     1       8.170   6.875  18.681  0.00  0.00    +0.000 A 
ATOM     37  C   UNL     1       7.785   5.586  18.342  0.00  0.00    +0.000 A 
ENDBRANCH  31  32
ENDBRANCH  29  31
ENDBRANCH  21  28
ENDBRANCH   1  26
TORSDOF 7
ENDMDL
MODEL 8
REMARK VINA RESULT:      -9.1      1.040      1.539
REMARK  Name = 
REMARK  7 active torsions:
REMARK  status: ('A' for Active; 'I' for Inactive)
REMARK    1  A    between atoms: C_2  and  C_11
REMARK    2  A    between atoms: N_3  and  C_4
REMARK    3  A    between atoms: C_4  and  C_5
REMARK    4  A    between atoms: C_16  and  N_17
REMARK    5  A    between atoms: N_17  and  C_18
REMARK    6  A    between atoms: C_22  and  C_23
REMARK    7  A    between atoms: C_24  and  C_25
REMARK                            x       y       z     vdW  Elec       q    Type
REMARK                         _______ _______ _______ _____ _____    ______ ____
ROOT
ATOM      1  N   UNL     1       2.445   6.301  20.240  0.00  0.00    +0.000 N 
ATOM      2  H   UNL     1       3.438   6.431  20.029  0.00  0.00    +0.000 HD
ENDROOT
BRANCH   1   3
ATOM      3  C   UNL     1       1.811   7.573  20.229  0.00  0.00    +0.000 A 
ATOM      4  C   UNL     1       1.220   8.029  21.417  0.00  0.00    +0.000 A 
ATOM      5  C   UNL     1       0.589   9.284  21.502  0.00  0.00    +0.000 A 
ATOM      6  C   UNL     1       0.541  10.104  20.359  0.00  0.00    +0.000 A 
ATOM      7  C   UNL     1       0.075  11.417  20.028  0.00  0.00    +0.000 A 
ATOM      8  N   UNL     1       0.261  11.683  18.726  0.00  0.00    +0.000 NA
ATOM      9  N   UNL     1       0.892  10.601  18.255  0.00  0.00    +0.000 N 
ATOM     10  C   UNL     1       1.126   9.635  19.191  0.00  0.00    +0.000 A 
ATOM     11  C   UNL     1       1.804   8.413  19.105  0.00  0.00    +0.000 A 
ATOM     12  H   UNL     1       1.146  10.585  17.274  0.00  0.00    +0.000 HD
BRANCH   7  13
ATOM     13  C   UNL     1      -0.452  12.371  20.959  0.00  0.00    +0.000 C 
ATOM     14  C   UNL     1       0.249  13.426  21.420  0.00  0.00    +0.000 C 
BRANCH  14  15
ATOM     15  C   UNL     1      -0.214  14.357  22.453  0.00  0.00    +0.000 A 
ATOM     16  C   UNL     1       0.297  15.653  22.485  0.00  0.00    +0.000 A 
ATOM     17  C   UNL     1      -0.129  16.521  23.486  0.00  0.00    +0.000 A 
ATOM     18  C   UNL     1      -1.047  16.073  24.425  0.00  0.00    +0.000 A 
ATOM     19  C   UNL     1      -1.500  14.767  24.325  0.00  0.00    +0.000 A 
ATOM     20  N   UNL     1      -1.108  13.903  23.363  0.00  0.00    +0.000 NA
ENDBRANCH  14  15
ENDBRANCH   7  13
ENDBRANCH   1   3
BRANCH   1  26
ATOM     21  C   UNL     1       2.540   4.482  18.550  0.00  0.00    +0.000 A 
ATOM     22  C   UNL     1       2.015   3.281  18.035  0.00  0.00    +0.000 A 
ATOM     23  C   UNL     1       0.992   2.606  18.695  0.00  0.00    +0.000 A 
ATOM     24  C   UNL     1       0.524   3.096  19.905  0.00  0.00    +0.000 A 
ATOM     25  C   UNL     1       1.050   4.281  20.427  0.00  0.00    +0.000 A 
ATOM     26  C   UNL     1       1.989   5.055  19.722  0.00  0.00    +0.000 A 
BRANCH  21  28
ATOM     27  O   UNL     1       3.649   6.229  17.408  0.00  0.00    +0.000 OA
ATOM     28  C   UNL     1       3.686   5.063  17.788  0.00  0.00    +0.000 C 
ATOM     29  N   UNL     1       4.736   4.213  17.508  0.00  0.00    +0.000 N 
ATOM     30  H   UNL     1       4.609   3.222  17.681  0.00  0.00    +0.000 HD
BRANCH  29  31
ATOM     31  C   UNL     1       5.857   4.633  16.695  0.00  0.00    +0.000 C 
BRANCH  31  32
ATOM     32  C   UNL     1       6.716   5.658  17.384  0.00  0.00    +0.000 A 
ATOM     33  C   UNL     1       7.395   5.344  18.564  0.00  0.00    +0.000 A 
ATOM     34  C   UNL     1       8.201   6.305  19.152  0.00  0.00    +0.000 A 
ATOM     35  N   UNL     1       8.367   7.550  18.657  0.00  0.00    +0.000 NA
ATOM     36  C   UNL     1       7.693   7.843  17.525  0.00  0.00    +0.000 A 
ATOM     37  C   UNL     1       6.863   6.948  16.864  0.00  0.00    +0.000 A 
ENDBRANCH  31  32
ENDBRANCH  29  31
ENDBRANCH  21  28
ENDBRANCH   1  26
TORSDOF 7
ENDMDL
MODEL 9
REMARK VINA RESULT:      -9.0      0.931      1.249
REMARK  Name = 
REMARK  7 active torsions:
REMARK  status: ('A' for Active; 'I' for Inactive)
REMARK    1  A    between atoms: C_2  and  C_11
REMARK    2  A    between atoms: N_3  and  C_4
REMARK    3  A    between atoms: C_4  and  C_5
REMARK    4  A    between atoms: C_16  and  N_17
REMARK    5  A    between atoms: N_17  and  C_18
REMARK    6  A    between atoms: C_22  and  C_23
REMARK    7  A    between atoms: C_24  and  C_25
REMARK                            x       y       z     vdW  Elec       q    Type
REMARK                         _______ _______ _______ _____ _____    ______ ____
ROOT
ATOM      1  N   UNL     1       2.472   6.256  20.157  0.00  0.00    +0.000 N 
ATOM      2  H   UNL     1       3.446   6.427  19.894  0.00  0.00    +0.000 HD
ENDROOT
BRANCH   1   3
ATOM      3  C   UNL     1       1.773   7.494  20.134  0.00  0.00    +0.000 A 
ATOM      4  C   UNL     1       1.004   7.842  21.255  0.00  0.00    +0.000 A 
ATOM      5  C   UNL     1       0.298   9.056  21.326  0.00  0.00    +0.000 A 
ATOM      6  C   UNL     1       0.356   9.947  20.236  0.00  0.00    +0.000 A 
ATOM      7  C   UNL     1      -0.136  11.254  19.923  0.00  0.00    +0.000 A 
ATOM      8  N   UNL     1       0.206  11.613  18.675  0.00  0.00    +0.000 NA
ATOM      9  N   UNL     1       0.954  10.596  18.232  0.00  0.00    +0.000 N 
ATOM     10  C   UNL     1       1.116   9.584  19.134  0.00  0.00    +0.000 A 
ATOM     11  C   UNL     1       1.868   8.403  19.071  0.00  0.00    +0.000 A 
ATOM     12  H   UNL     1       1.337  10.657  17.296  0.00  0.00    +0.000 HD
BRANCH   7  13
ATOM     13  C   UNL     1      -0.836  12.118  20.827  0.00  0.00    +0.000 C 
ATOM     14  C   UNL     1      -2.112  12.512  20.642  0.00  0.00    +0.000 C 
BRANCH  14  15
ATOM     15  C   UNL     1      -2.823  13.480  21.482  0.00  0.00    +0.000 A 
ATOM     16  C   UNL     1      -2.637  14.843  21.264  0.00  0.00    +0.000 A 
ATOM     17  C   UNL     1      -3.296  15.754  22.084  0.00  0.00    +0.000 A 
ATOM     18  C   UNL     1      -4.116  15.281  23.099  0.00  0.00    +0.000 A 
ATOM     19  C   UNL     1      -4.240  13.910  23.253  0.00  0.00    +0.000 A 
ATOM     20  N   UNL     1      -3.617  13.002  22.469  0.00  0.00    +0.000 NA
ENDBRANCH  14  15
ENDBRANCH   7  13
ENDBRANCH   1   3
BRANCH   1  26
ATOM     21  C   UNL     1       2.639   4.351  18.572  0.00  0.00    +0.000 A 
ATOM     22  C   UNL     1       2.154   3.108  18.117  0.00  0.00    +0.000 A 
ATOM     23  C   UNL     1       1.140   2.442  18.802  0.00  0.00    +0.000 A 
ATOM     24  C   UNL     1       0.644   2.985  19.977  0.00  0.00    +0.000 A 
ATOM     25  C   UNL     1       1.130   4.211  20.438  0.00  0.00    +0.000 A 
ATOM     26  C   UNL     1       2.057   4.971  19.703  0.00  0.00    +0.000 A 
BRANCH  21  28
ATOM     27  O   UNL     1       3.697   6.047  17.311  0.00  0.00    +0.000 OA
ATOM     28  C   UNL     1       3.778   4.921  17.792  0.00  0.00    +0.000 C 
ATOM     29  N   UNL     1       4.876   4.104  17.614  0.00  0.00    +0.000 N 
ATOM     30  H   UNL     1       4.791   3.126  17.870  0.00  0.00    +0.000 HD
BRANCH  29  31
ATOM     31  C   UNL     1       5.999   4.508  16.797  0.00  0.00    +0.000 C 
BRANCH  31  32
ATOM     32  C   UNL     1       6.810   5.604  17.435  0.00  0.00    +0.000 A 
ATOM     33  C   UNL     1       7.480   5.386  18.642  0.00  0.00    +0.000 A 
ATOM     34  C   UNL     1       8.242   6.409  19.182  0.00  0.00    +0.000 A 
ATOM     35  N   UNL     1       8.372   7.628  18.614  0.00  0.00    +0.000 NA
ATOM     36  C   UNL     1       7.707   7.827  17.457  0.00  0.00    +0.000 A 
ATOM     37  C   UNL     1       6.921   6.864  16.839  0.00  0.00    +0.000 A 
ENDBRANCH  31  32
ENDBRANCH  29  31
ENDBRANCH  21  28
ENDBRANCH   1  26
TORSDOF 7
ENDMDL
