MODEL 1
REMARK VINA RESULT:      -8.4      0.000      0.000
REMARK  Name = 
REMARK  8 active torsions:
REMARK  status: ('A' for Active; 'I' for Inactive)
REMARK    1  A    between atoms: C_2  and  C_4
REMARK    2  A    between atoms: C_7  and  C_8
REMARK    3  A    between atoms: C_14  and  C_15
REMARK    4  A    between atoms: C_15  and  C_16
REMARK    5  A    between atoms: C_21  and  C_22
REMARK    6  A    between atoms: C_22  and  C_23
REMARK    7  A    between atoms: C_23  and  C_24
REMARK    8  A    between atoms: C_24  and  O_26
REMARK                            x       y       z     vdW  Elec       q    Type
REMARK                         _______ _______ _______ _____ _____    ______ ____
ROOT
ATOM      1  C   UNL     1       3.277   4.710  19.751  0.00  0.00    +0.000 C 
ATOM      2  C   UNL     1       2.335   3.735  20.480  0.00  0.00    +0.000 C 
ATOM      3  C   UNL     1       0.898   3.753  19.955  0.00  0.00    +0.000 C 
ATOM      4  C   UNL     1       1.068   3.168  18.555  0.00  0.00    +0.000 C 
ATOM      5  C   UNL     1       2.550   2.781  18.544  0.00  0.00    +0.000 C 
ATOM      6  O   UNL     1       2.785   2.466  19.937  0.00  0.00    +0.000 OA
ATOM      7  C   UNL     1       3.427   4.033  18.358  0.00  0.00    +0.000 C 
ENDROOT
BRANCH   1  11
ATOM      8  C   UNL     1       1.990   8.014  19.189  0.00  0.00    +0.000 A 
ATOM      9  C   UNL     1       1.573   7.740  20.473  0.00  0.00    +0.000 A 
ATOM     10  O   UNL     1       2.051   6.513  20.817  0.00  0.00    +0.000 OA
ATOM     11  C   UNL     1       2.739   6.092  19.709  0.00  0.00    +0.000 A 
ATOM     12  N   UNL     1       2.763   6.962  18.723  0.00  0.00    +0.000 NA
BRANCH   8  14
ATOM     13  N   UNL     1       0.811  10.044  19.018  0.00  0.00    +0.000 N 
ATOM     14  C   UNL     1       1.670   9.189  18.398  0.00  0.00    +0.000 C 
ATOM     15  O   UNL     1       2.126   9.407  17.276  0.00  0.00    +0.000 OA
ATOM     16  H   UNL     1       0.513  10.886  18.547  0.00  0.00    +0.000 HD
ATOM     17  H   UNL     1       0.423   9.825  19.933  0.00  0.00    +0.000 HD
ENDBRANCH   8  14
ENDBRANCH   1  11
BRANCH   7  18
ATOM     18  C   UNL     1       4.903   3.683  18.072  0.00  0.00    +0.000 C 
BRANCH  18  19
ATOM     19  C   UNL     1       5.858   4.864  18.091  0.00  0.00    +0.000 A 
ATOM     20  C   UNL     1       6.602   5.028  19.284  0.00  0.00    +0.000 A 
ATOM     21  C   UNL     1       7.606   5.986  19.401  0.00  0.00    +0.000 A 
ATOM     22  C   UNL     1       7.905   6.797  18.320  0.00  0.00    +0.000 A 
ATOM     23  C   UNL     1       7.151   6.687  17.153  0.00  0.00    +0.000 A 
ATOM     24  C   UNL     1       6.082   5.764  17.027  0.00  0.00    +0.000 A 
BRANCH  24  25
ATOM     25  C   UNL     1       5.331   5.824  15.706  0.00  0.00    +0.000 C 
BRANCH  25  26
ATOM     26  C   UNL     1       5.267   4.549  14.869  0.00  0.00    +0.000 C 
BRANCH  26  27
ATOM     27  C   UNL     1       6.464   4.434  13.959  0.00  0.00    +0.000 C 
ATOM     28  O   UNL     1       7.365   5.253  13.876  0.00  0.00    +0.000 OA
BRANCH  27  29
ATOM     29  O   UNL     1       6.486   3.270  13.271  0.00  0.00    +0.000 OA
ATOM     30  H   UNL     1       5.734   3.154  12.660  0.00  0.00    +0.000 HD
ENDBRANCH  27  29
ENDBRANCH  26  27
ENDBRANCH  25  26
ENDBRANCH  24  25
ENDBRANCH  18  19
ENDBRANCH   7  18
TORSDOF 8
ENDMDL
MODEL 2
REMARK VINA RESULT:      -8.4      1.015      1.099
REMARK  Name = 
REMARK  8 active torsions:
REMARK  status: ('A' for Active; 'I' for Inactive)
REMARK    1  A    between atoms: C_2  and  C_4
REMARK    2  A    between atoms: C_7  and  C_8
REMARK    3  A    between atoms: C_14  and  C_15
REMARK    4  A    between atoms: C_15  and  C_16
REMARK    5  A    between atoms: C_21  and  C_22
REMARK    6  A    between atoms: C_22  and  C_23
REMARK    7  A    between atoms: C_23  and  C_24
REMARK    8  A    between atoms: C_24  and  O_26
REMARK                            x       y       z     vdW  Elec       q    Type
REMARK                         _______ _______ _______ _____ _____    ______ ____
ROOT
ATOM      1  C   UNL     1       3.295   4.815  19.642  0.00  0.00    +0.000 C 
ATOM      2  C   UNL     1       2.397   3.921  20.516  0.00  0.00    +0.000 C 
ATOM      3  C   UNL     1       0.964   3.787  19.998  0.00  0.00    +0.000 C 
ATOM      4  C   UNL     1       1.169   3.001  18.706  0.00  0.00    +0.000 C 
ATOM      5  C   UNL     1       2.668   2.689  18.752  0.00  0.00    +0.000 C 
ATOM      6  O   UNL     1       2.911   2.606  20.176  0.00  0.00    +0.000 OA
ATOM      7  C   UNL     1       3.484   3.938  18.371  0.00  0.00    +0.000 C 
ENDROOT
BRANCH   1  11
ATOM      8  C   UNL     1       1.836   8.092  19.485  0.00  0.00    +0.000 A 
ATOM      9  C   UNL     1       2.365   7.934  18.222  0.00  0.00    +0.000 A 
ATOM     10  O   UNL     1       2.912   6.690  18.149  0.00  0.00    +0.000 OA
ATOM     11  C   UNL     1       2.691   6.146  19.387  0.00  0.00    +0.000 A 
ATOM     12  N   UNL     1       2.024   6.926  20.210  0.00  0.00    +0.000 NA
BRANCH   8  14
ATOM     13  N   UNL     1       0.971   9.214  21.364  0.00  0.00    +0.000 N 
ATOM     14  C   UNL     1       1.202   9.282  20.024  0.00  0.00    +0.000 C 
ATOM     15  O   UNL     1       0.901  10.265  19.348  0.00  0.00    +0.000 OA
ATOM     16  H   UNL     1       0.521   9.986  21.835  0.00  0.00    +0.000 HD
ATOM     17  H   UNL     1       1.200   8.377  21.894  0.00  0.00    +0.000 HD
ENDBRANCH   8  14
ENDBRANCH   1  11
BRANCH   7  18
ATOM     18  C   UNL     1       4.978   3.620  18.140  0.00  0.00    +0.000 C 
BRANCH  18  19
ATOM     19  C   UNL     1       5.896   4.830  18.120  0.00  0.00    +0.000 A 
ATOM     20  C   UNL     1       6.646   5.045  19.301  0.00  0.00    +0.000 A 
ATOM     21  C   UNL     1       7.621   6.036  19.385  0.00  0.00    +0.000 A 
ATOM     22  C   UNL     1       7.885   6.828  18.282  0.00  0.00    +0.000 A 
ATOM     23  C   UNL     1       7.124   6.667  17.125  0.00  0.00    +0.000 A 
ATOM     24  C   UNL     1       6.083   5.709  17.033  0.00  0.00    +0.000 A 
BRANCH  24  25
ATOM     25  C   UNL     1       5.317   5.714  15.718  0.00  0.00    +0.000 C 
BRANCH  25  26
ATOM     26  C   UNL     1       5.320   4.430  14.893  0.00  0.00    +0.000 C 
BRANCH  26  27
ATOM     27  C   UNL     1       6.472   4.408  13.920  0.00  0.00    +0.000 C 
ATOM     28  O   UNL     1       7.332   5.270  13.831  0.00  0.00    +0.000 OA
BRANCH  27  29
ATOM     29  O   UNL     1       6.506   3.278  13.178  0.00  0.00    +0.000 OA
ATOM     30  H   UNL     1       7.259   3.231  12.560  0.00  0.00    +0.000 HD
ENDBRANCH  27  29
ENDBRANCH  26  27
ENDBRANCH  25  26
ENDBRANCH  24  25
ENDBRANCH  18  19
ENDBRANCH   7  18
TORSDOF 8
ENDMDL
MODEL 3
REMARK VINA RESULT:      -8.3      1.943      3.121
REMARK  Name = 
REMARK  8 active torsions:
REMARK  status: ('A' for Active; 'I' for Inactive)
REMARK    1  A    between atoms: C_2  and  C_4
REMARK    2  A    between atoms: C_7  and  C_8
REMARK    3  A    between atoms: C_14  and  C_15
REMARK    4  A    between atoms: C_15  and  C_16
REMARK    5  A    between atoms: C_21  and  C_22
REMARK    6  A    between atoms: C_22  and  C_23
REMARK    7  A    between atoms: C_23  and  C_24
REMARK    8  A    between atoms: C_24  and  O_26
REMARK                            x       y       z     vdW  Elec       q    Type
REMARK                         _______ _______ _______ _____ _____    ______ ____
ROOT
ATOM      1  C   UNL     1       3.221   5.317  19.850  0.00  0.00    +0.000 C 
ATOM      2  C   UNL     1       2.318   4.580  20.856  0.00  0.00    +0.000 C 
ATOM      3  C   UNL     1       0.903   4.314  20.339  0.00  0.00    +0.000 C 
ATOM      4  C   UNL     1       1.161   3.305  19.224  0.00  0.00    +0.000 C 
ATOM      5  C   UNL     1       2.664   3.047  19.362  0.00  0.00    +0.000 C 
ATOM      6  O   UNL     1       2.869   3.239  20.782  0.00  0.00    +0.000 OA
ATOM      7  C   UNL     1       3.464   4.223  18.772  0.00  0.00    +0.000 C 
ENDROOT
BRANCH   1  11
ATOM      8  C   UNL     1       1.769   8.497  19.029  0.00  0.00    +0.000 A 
ATOM      9  C   UNL     1       2.136   8.003  17.796  0.00  0.00    +0.000 A 
ATOM     10  O   UNL     1       2.664   6.762  17.981  0.00  0.00    +0.000 OA
ATOM     11  C   UNL     1       2.596   6.561  19.335  0.00  0.00    +0.000 A 
ATOM     12  N   UNL     1       2.041   7.548  20.002  0.00  0.00    +0.000 NA
BRANCH   8  14
ATOM     13  N   UNL     1       1.090  10.597  18.213  0.00  0.00    +0.000 N 
ATOM     14  C   UNL     1       1.212   9.807  19.315  0.00  0.00    +0.000 C 
ATOM     15  O   UNL     1       0.875  10.179  20.438  0.00  0.00    +0.000 OA
ATOM     16  H   UNL     1       0.726  11.535  18.306  0.00  0.00    +0.000 HD
ATOM     17  H   UNL     1       1.406  10.278  17.301  0.00  0.00    +0.000 HD
ENDBRANCH   8  14
ENDBRANCH   1  11
BRANCH   7  18
ATOM     18  C   UNL     1       4.970   3.905  18.640  0.00  0.00    +0.000 C 
BRANCH  18  19
ATOM     19  C   UNL     1       5.558   4.150  17.262  0.00  0.00    +0.000 A 
ATOM     20  C   UNL     1       4.712   3.832  16.172  0.00  0.00    +0.000 A 
ATOM     21  C   UNL     1       5.064   4.121  14.856  0.00  0.00    +0.000 A 
ATOM     22  C   UNL     1       6.266   4.754  14.595  0.00  0.00    +0.000 A 
ATOM     23  C   UNL     1       7.137   5.031  15.648  0.00  0.00    +0.000 A 
ATOM     24  C   UNL     1       6.833   4.691  16.990  0.00  0.00    +0.000 A 
BRANCH  24  25
ATOM     25  C   UNL     1       7.924   5.013  17.999  0.00  0.00    +0.000 C 
BRANCH  25  26
ATOM     26  C   UNL     1       7.695   6.195  18.937  0.00  0.00    +0.000 C 
BRANCH  26  27
ATOM     27  C   UNL     1       8.063   7.498  18.272  0.00  0.00    +0.000 C 
ATOM     28  O   UNL     1       7.643   7.878  17.190  0.00  0.00    +0.000 OA
BRANCH  27  29
ATOM     29  O   UNL     1       8.871   8.264  19.039  0.00  0.00    +0.000 OA
ATOM     30  H   UNL     1       8.537   9.168  19.191  0.00  0.00    +0.000 HD
ENDBRANCH  27  29
ENDBRANCH  26  27
ENDBRANCH  25  26
ENDBRANCH  24  25
ENDBRANCH  18  19
ENDBRANCH   7  18
TORSDOF 8
ENDMDL
MODEL 4
REMARK VINA RESULT:      -8.1      1.056      1.487
REMARK  Name = 
REMARK  8 active torsions:
REMARK  status: ('A' for Active; 'I' for Inactive)
REMARK    1  A    between atoms: C_2  and  C_4
REMARK    2  A    between atoms: C_7  and  C_8
REMARK    3  A    between atoms: C_14  and  C_15
REMARK    4  A    between atoms: C_15  and  C_16
REMARK    5  A    between atoms: C_21  and  C_22
REMARK    6  A    between atoms: C_22  and  C_23
REMARK    7  A    between atoms: C_23  and  C_24
REMARK    8  A    between atoms: C_24  and  O_26
REMARK                            x       y       z     vdW  Elec       q    Type
REMARK                         _______ _______ _______ _____ _____    ______ ____
ROOT
ATOM      1  C   UNL     1       3.190   4.435  19.625  0.00  0.00    +0.000 C 
ATOM      2  C   UNL     1       2.330   3.446  20.432  0.00  0.00    +0.000 C 
ATOM      3  C   UNL     1       0.858   3.422  20.015  0.00  0.00    +0.000 C 
ATOM      4  C   UNL     1       0.940   2.824  18.613  0.00  0.00    +0.000 C 
ATOM      5  C   UNL     1       2.426   2.474  18.496  0.00  0.00    +0.000 C 
ATOM      6  O   UNL     1       2.772   2.182  19.871  0.00  0.00    +0.000 OA
ATOM      7  C   UNL     1       3.254   3.745  18.232  0.00  0.00    +0.000 C 
ENDROOT
BRANCH   1  11
ATOM      8  C   UNL     1       1.812   7.723  20.047  0.00  0.00    +0.000 A 
ATOM      9  C   UNL     1       2.310   7.765  18.762  0.00  0.00    +0.000 A 
ATOM     10  O   UNL     1       2.823   6.539  18.471  0.00  0.00    +0.000 OA
ATOM     11  C   UNL     1       2.615   5.803  19.608  0.00  0.00    +0.000 A 
ATOM     12  N   UNL     1       1.986   6.450  20.565  0.00  0.00    +0.000 NA
BRANCH   8  14
ATOM     13  N   UNL     1       0.655   9.772  19.997  0.00  0.00    +0.000 N 
ATOM     14  C   UNL     1       1.220   8.821  20.791  0.00  0.00    +0.000 C 
ATOM     15  O   UNL     1       1.218   8.895  22.019  0.00  0.00    +0.000 OA
ATOM     16  H   UNL     1       0.227  10.586  20.416  0.00  0.00    +0.000 HD
ATOM     17  H   UNL     1       0.698   9.703  18.984  0.00  0.00    +0.000 HD
ENDBRANCH   8  14
ENDBRANCH   1  11
BRANCH   7  18
ATOM     18  C   UNL     1       4.714   3.428  17.842  0.00  0.00    +0.000 C 
BRANCH  18  19
ATOM     19  C   UNL     1       5.665   4.611  17.901  0.00  0.00    +0.000 A 
ATOM     20  C   UNL     1       6.206   4.895  19.178  0.00  0.00    +0.000 A 
ATOM     21  C   UNL     1       7.187   5.865  19.366  0.00  0.00    +0.000 A 
ATOM     22  C   UNL     1       7.667   6.568  18.275  0.00  0.00    +0.000 A 
ATOM     23  C   UNL     1       7.114   6.340  17.015  0.00  0.00    +0.000 A 
ATOM     24  C   UNL     1       6.071   5.403  16.806  0.00  0.00    +0.000 A 
BRANCH  24  25
ATOM     25  C   UNL     1       5.547   5.330  15.380  0.00  0.00    +0.000 C 
BRANCH  25  26
ATOM     26  C   UNL     1       5.926   4.106  14.549  0.00  0.00    +0.000 C 
BRANCH  26  27
ATOM     27  C   UNL     1       6.877   4.474  13.438  0.00  0.00    +0.000 C 
ATOM     28  O   UNL     1       6.816   4.053  12.294  0.00  0.00    +0.000 OA
BRANCH  27  29
ATOM     29  O   UNL     1       7.791   5.396  13.817  0.00  0.00    +0.000 OA
ATOM     30  H   UNL     1       7.756   5.625  14.765  0.00  0.00    +0.000 HD
ENDBRANCH  27  29
ENDBRANCH  26  27
ENDBRANCH  25  26
ENDBRANCH  24  25
ENDBRANCH  18  19
ENDBRANCH   7  18
TORSDOF 8
ENDMDL
MODEL 5
REMARK VINA RESULT:      -8.0      1.182      1.434
REMARK  Name = 
REMARK  8 active torsions:
REMARK  status: ('A' for Active; 'I' for Inactive)
REMARK    1  A    between atoms: C_2  and  C_4
REMARK    2  A    between atoms: C_7  and  C_8
REMARK    3  A    between atoms: C_14  and  C_15
REMARK    4  A    between atoms: C_15  and  C_16
REMARK    5  A    between atoms: C_21  and  C_22
REMARK    6  A    between atoms: C_22  and  C_23
REMARK    7  A    between atoms: C_23  and  C_24
REMARK    8  A    between atoms: C_24  and  O_26
REMARK                            x       y       z     vdW  Elec       q    Type
REMARK                         _______ _______ _______ _____ _____    ______ ____
ROOT
ATOM      1  C   UNL     1       3.291   5.254  19.575  0.00  0.00    +0.000 C 
ATOM      2  C   UNL     1       2.606   4.438  20.686  0.00  0.00    +0.000 C 
ATOM      3  C   UNL     1       1.102   4.251  20.479  0.00  0.00    +0.000 C 
ATOM      4  C   UNL     1       1.064   3.352  19.246  0.00  0.00    +0.000 C 
ATOM      5  C   UNL     1       2.548   3.054  19.018  0.00  0.00    +0.000 C 
ATOM      6  O   UNL     1       3.072   3.101  20.366  0.00  0.00    +0.000 OA
ATOM      7  C   UNL     1       3.243   4.268  18.373  0.00  0.00    +0.000 C 
ENDROOT
BRANCH   1  11
ATOM      8  C   UNL     1       1.677   8.459  19.443  0.00  0.00    +0.000 A 
ATOM      9  C   UNL     1       2.170   8.314  18.164  0.00  0.00    +0.000 A 
ATOM     10  O   UNL     1       2.771   7.096  18.081  0.00  0.00    +0.000 OA
ATOM     11  C   UNL     1       2.618   6.554  19.331  0.00  0.00    +0.000 A 
ATOM     12  N   UNL     1       1.944   7.310  20.170  0.00  0.00    +0.000 NA
BRANCH   8  14
ATOM     13  N   UNL     1       0.121  10.197  19.136  0.00  0.00    +0.000 N 
ATOM     14  C   UNL     1       1.008   9.624  19.995  0.00  0.00    +0.000 C 
ATOM     15  O   UNL     1       1.209  10.058  21.128  0.00  0.00    +0.000 OA
ATOM     16  H   UNL     1      -0.389  11.023  19.418  0.00  0.00    +0.000 HD
ATOM     17  H   UNL     1      -0.004   9.838  18.193  0.00  0.00    +0.000 HD
ENDBRANCH   8  14
ENDBRANCH   1  11
BRANCH   7  18
ATOM     18  C   UNL     1       4.668   3.937  17.876  0.00  0.00    +0.000 C 
BRANCH  18  19
ATOM     19  C   UNL     1       5.691   5.040  18.085  0.00  0.00    +0.000 A 
ATOM     20  C   UNL     1       6.464   4.939  19.267  0.00  0.00    +0.000 A 
ATOM     21  C   UNL     1       7.525   5.802  19.531  0.00  0.00    +0.000 A 
ATOM     22  C   UNL     1       7.854   6.779  18.609  0.00  0.00    +0.000 A 
ATOM     23  C   UNL     1       7.076   6.928  17.461  0.00  0.00    +0.000 A 
ATOM     24  C   UNL     1       5.953   6.105  17.198  0.00  0.00    +0.000 A 
BRANCH  24  25
ATOM     25  C   UNL     1       5.185   6.450  15.930  0.00  0.00    +0.000 C 
BRANCH  25  26
ATOM     26  C   UNL     1       5.272   5.471  14.763  0.00  0.00    +0.000 C 
BRANCH  26  27
ATOM     27  C   UNL     1       6.595   4.747  14.754  0.00  0.00    +0.000 C 
ATOM     28  O   UNL     1       6.760   3.581  15.075  0.00  0.00    +0.000 OA
BRANCH  27  29
ATOM     29  O   UNL     1       7.604   5.511  14.277  0.00  0.00    +0.000 OA
ATOM     30  H   UNL     1       7.664   5.529  13.304  0.00  0.00    +0.000 HD
ENDBRANCH  27  29
ENDBRANCH  26  27
ENDBRANCH  25  26
ENDBRANCH  24  25
ENDBRANCH  18  19
ENDBRANCH   7  18
TORSDOF 8
ENDMDL
MODEL 6
REMARK VINA RESULT:      -8.0      0.968      1.183
REMARK  Name = 
REMARK  8 active torsions:
REMARK  status: ('A' for Active; 'I' for Inactive)
REMARK    1  A    between atoms: C_2  and  C_4
REMARK    2  A    between atoms: C_7  and  C_8
REMARK    3  A    between atoms: C_14  and  C_15
REMARK    4  A    between atoms: C_15  and  C_16
REMARK    5  A    between atoms: C_21  and  C_22
REMARK    6  A    between atoms: C_22  and  C_23
REMARK    7  A    between atoms: C_23  and  C_24
REMARK    8  A    between atoms: C_24  and  O_26
REMARK                            x       y       z     vdW  Elec       q    Type
REMARK                         _______ _______ _______ _____ _____    ______ ____
ROOT
ATOM      1  C   UNL     1       3.139   4.261  19.579  0.00  0.00    +0.000 C 
ATOM      2  C   UNL     1       2.218   3.350  20.411  0.00  0.00    +0.000 C 
ATOM      3  C   UNL     1       0.735   3.477  20.053  0.00  0.00    +0.000 C 
ATOM      4  C   UNL     1       0.702   2.893  18.643  0.00  0.00    +0.000 C 
ATOM      5  C   UNL     1       2.141   2.400  18.463  0.00  0.00    +0.000 C 
ATOM      6  O   UNL     1       2.509   2.057  19.821  0.00  0.00    +0.000 OA
ATOM      7  C   UNL     1       3.080   3.587  18.178  0.00  0.00    +0.000 C 
ENDROOT
BRANCH   1  11
ATOM      8  C   UNL     1       2.068   7.662  19.165  0.00  0.00    +0.000 A 
ATOM      9  C   UNL     1       1.706   7.386  20.466  0.00  0.00    +0.000 A 
ATOM     10  O   UNL     1       2.111   6.119  20.754  0.00  0.00    +0.000 OA
ATOM     11  C   UNL     1       2.702   5.678  19.599  0.00  0.00    +0.000 A 
ATOM     12  N   UNL     1       2.733   6.569  18.632  0.00  0.00    +0.000 NA
BRANCH   8  14
ATOM     13  N   UNL     1       1.013   9.765  19.099  0.00  0.00    +0.000 N 
ATOM     14  C   UNL     1       1.789   8.877  18.419  0.00  0.00    +0.000 C 
ATOM     15  O   UNL     1       2.211   9.098  17.285  0.00  0.00    +0.000 OA
ATOM     16  H   UNL     1       0.749  10.638  18.663  0.00  0.00    +0.000 HD
ATOM     17  H   UNL     1       0.650   9.544  20.023  0.00  0.00    +0.000 HD
ENDBRANCH   8  14
ENDBRANCH   1  11
BRANCH   7  18
ATOM     18  C   UNL     1       4.485   3.132  17.726  0.00  0.00    +0.000 C 
BRANCH  18  19
ATOM     19  C   UNL     1       5.464   4.260  17.446  0.00  0.00    +0.000 A 
ATOM     20  C   UNL     1       6.022   4.881  18.589  0.00  0.00    +0.000 A 
ATOM     21  C   UNL     1       7.027   5.841  18.490  0.00  0.00    +0.000 A 
ATOM     22  C   UNL     1       7.514   6.192  17.244  0.00  0.00    +0.000 A 
ATOM     23  C   UNL     1       6.945   5.629  16.102  0.00  0.00    +0.000 A 
ATOM     24  C   UNL     1       5.878   4.697  16.170  0.00  0.00    +0.000 A 
BRANCH  24  25
ATOM     25  C   UNL     1       5.341   4.235  14.824  0.00  0.00    +0.000 C 
BRANCH  25  26
ATOM     26  C   UNL     1       6.315   4.192  13.650  0.00  0.00    +0.000 C 
BRANCH  26  27
ATOM     27  C   UNL     1       5.776   3.347  12.523  0.00  0.00    +0.000 C 
ATOM     28  O   UNL     1       4.702   3.520  11.969  0.00  0.00    +0.000 OA
BRANCH  27  29
ATOM     29  O   UNL     1       6.647   2.394  12.123  0.00  0.00    +0.000 OA
ATOM     30  H   UNL     1       6.278   1.491  12.127  0.00  0.00    +0.000 HD
ENDBRANCH  27  29
ENDBRANCH  26  27
ENDBRANCH  25  26
ENDBRANCH  24  25
ENDBRANCH  18  19
ENDBRANCH   7  18
TORSDOF 8
ENDMDL
MODEL 7
REMARK VINA RESULT:      -7.9      1.910      3.062
REMARK  Name = 
REMARK  8 active torsions:
REMARK  status: ('A' for Active; 'I' for Inactive)
REMARK    1  A    between atoms: C_2  and  C_4
REMARK    2  A    between atoms: C_7  and  C_8
REMARK    3  A    between atoms: C_14  and  C_15
REMARK    4  A    between atoms: C_15  and  C_16
REMARK    5  A    between atoms: C_21  and  C_22
REMARK    6  A    between atoms: C_22  and  C_23
REMARK    7  A    between atoms: C_23  and  C_24
REMARK    8  A    between atoms: C_24  and  O_26
REMARK                            x       y       z     vdW  Elec       q    Type
REMARK                         _______ _______ _______ _____ _____    ______ ____
ROOT
ATOM      1  C   UNL     1       3.152   4.861  19.881  0.00  0.00    +0.000 C 
ATOM      2  C   UNL     1       2.287   3.879  20.692  0.00  0.00    +0.000 C 
ATOM      3  C   UNL     1       0.850   3.754  20.184  0.00  0.00    +0.000 C 
ATOM      4  C   UNL     1       1.052   3.079  18.830  0.00  0.00    +0.000 C 
ATOM      5  C   UNL     1       2.558   2.799  18.831  0.00  0.00    +0.000 C 
ATOM      6  O   UNL     1       2.824   2.608  20.240  0.00  0.00    +0.000 OA
ATOM      7  C   UNL     1       3.341   4.093  18.540  0.00  0.00    +0.000 C 
ENDROOT
BRANCH   1  11
ATOM      8  C   UNL     1       1.607   8.099  20.008  0.00  0.00    +0.000 A 
ATOM      9  C   UNL     1       2.152   8.072  18.742  0.00  0.00    +0.000 A 
ATOM     10  O   UNL     1       2.733   6.854  18.561  0.00  0.00    +0.000 OA
ATOM     11  C   UNL     1       2.515   6.193  19.742  0.00  0.00    +0.000 A 
ATOM     12  N   UNL     1       1.820   6.877  20.625  0.00  0.00    +0.000 NA
BRANCH   8  14
ATOM     13  N   UNL     1       1.243   9.354  21.965  0.00  0.00    +0.000 N 
ATOM     14  C   UNL     1       0.936   9.218  20.646  0.00  0.00    +0.000 C 
ATOM     15  O   UNL     1       0.167   9.980  20.063  0.00  0.00    +0.000 OA
ATOM     16  H   UNL     1       0.819  10.094  22.506  0.00  0.00    +0.000 HD
ATOM     17  H   UNL     1       1.858   8.691  22.432  0.00  0.00    +0.000 HD
ENDBRANCH   8  14
ENDBRANCH   1  11
BRANCH   7  18
ATOM     18  C   UNL     1       4.837   3.829  18.265  0.00  0.00    +0.000 C 
BRANCH  18  19
ATOM     19  C   UNL     1       5.337   4.320  16.917  0.00  0.00    +0.000 A 
ATOM     20  C   UNL     1       5.200   3.405  15.846  0.00  0.00    +0.000 A 
ATOM     21  C   UNL     1       5.495   3.758  14.531  0.00  0.00    +0.000 A 
ATOM     22  C   UNL     1       5.920   5.044  14.250  0.00  0.00    +0.000 A 
ATOM     23  C   UNL     1       6.110   5.947  15.296  0.00  0.00    +0.000 A 
ATOM     24  C   UNL     1       5.878   5.595  16.649  0.00  0.00    +0.000 A 
BRANCH  24  25
ATOM     25  C   UNL     1       6.197   6.685  17.662  0.00  0.00    +0.000 C 
BRANCH  25  26
ATOM     26  C   UNL     1       7.611   6.726  18.234  0.00  0.00    +0.000 C 
BRANCH  26  27
ATOM     27  C   UNL     1       7.869   5.546  19.138  0.00  0.00    +0.000 C 
ATOM     28  O   UNL     1       7.604   5.503  20.329  0.00  0.00    +0.000 OA
BRANCH  27  29
ATOM     29  O   UNL     1       8.372   4.481  18.474  0.00  0.00    +0.000 OA
ATOM     30  H   UNL     1       8.312   3.641  18.965  0.00  0.00    +0.000 HD
ENDBRANCH  27  29
ENDBRANCH  26  27
ENDBRANCH  25  26
ENDBRANCH  24  25
ENDBRANCH  18  19
ENDBRANCH   7  18
TORSDOF 8
ENDMDL
MODEL 8
REMARK VINA RESULT:      -7.8      2.757      6.858
REMARK  Name = 
REMARK  8 active torsions:
REMARK  status: ('A' for Active; 'I' for Inactive)
REMARK    1  A    between atoms: C_2  and  C_4
REMARK    2  A    between atoms: C_7  and  C_8
REMARK    3  A    between atoms: C_14  and  C_15
REMARK    4  A    between atoms: C_15  and  C_16
REMARK    5  A    between atoms: C_21  and  C_22
REMARK    6  A    between atoms: C_22  and  C_23
REMARK    7  A    between atoms: C_23  and  C_24
REMARK    8  A    between atoms: C_24  and  O_26
REMARK                            x       y       z     vdW  Elec       q    Type
REMARK                         _______ _______ _______ _____ _____    ______ ____
ROOT
ATOM      1  C   UNL     1       5.307   4.393  16.835  0.00  0.00    +0.000 C 
ATOM      2  C   UNL     1       6.345   3.994  17.900  0.00  0.00    +0.000 C 
ATOM      3  C   UNL     1       7.594   4.877  17.908  0.00  0.00    +0.000 C 
ATOM      4  C   UNL     1       7.032   6.213  18.384  0.00  0.00    +0.000 C 
ATOM      5  C   UNL     1       5.577   5.856  18.704  0.00  0.00    +0.000 C 
ATOM      6  O   UNL     1       5.693   4.471  19.106  0.00  0.00    +0.000 OA
ATOM      7  C   UNL     1       4.760   5.734  17.404  0.00  0.00    +0.000 C 
ENDROOT
BRANCH   1  11
ATOM      8  C   UNL     1       7.062   4.914  13.746  0.00  0.00    +0.000 A 
ATOM      9  C   UNL     1       6.358   3.754  13.504  0.00  0.00    +0.000 A 
ATOM     10  O   UNL     1       5.608   3.480  14.606  0.00  0.00    +0.000 OA
ATOM     11  C   UNL     1       5.900   4.496  15.479  0.00  0.00    +0.000 A 
ATOM     12  N   UNL     1       6.733   5.395  15.004  0.00  0.00    +0.000 NA
BRANCH   8  14
ATOM     13  N   UNL     1       7.662   5.532  11.556  0.00  0.00    +0.000 N 
ATOM     14  C   UNL     1       8.027   5.550  12.868  0.00  0.00    +0.000 C 
ATOM     15  O   UNL     1       9.075   6.064  13.257  0.00  0.00    +0.000 OA
ATOM     16  H   UNL     1       8.272   5.937  10.860  0.00  0.00    +0.000 HD
ATOM     17  H   UNL     1       6.806   5.073  11.257  0.00  0.00    +0.000 HD
ENDBRANCH   8  14
ENDBRANCH   1  11
BRANCH   7  18
ATOM     18  C   UNL     1       3.241   5.641  17.668  0.00  0.00    +0.000 C 
BRANCH  18  19
ATOM     19  C   UNL     1       2.667   6.765  18.512  0.00  0.00    +0.000 A 
ATOM     20  C   UNL     1       2.599   8.029  17.879  0.00  0.00    +0.000 A 
ATOM     21  C   UNL     1       1.981   9.123  18.480  0.00  0.00    +0.000 A 
ATOM     22  C   UNL     1       1.397   8.977  19.725  0.00  0.00    +0.000 A 
ATOM     23  C   UNL     1       1.496   7.755  20.389  0.00  0.00    +0.000 A 
ATOM     24  C   UNL     1       2.173   6.643  19.828  0.00  0.00    +0.000 A 
BRANCH  24  25
ATOM     25  C   UNL     1       2.235   5.410  20.718  0.00  0.00    +0.000 C 
BRANCH  25  26
ATOM     26  C   UNL     1       1.126   4.372  20.566  0.00  0.00    +0.000 C 
BRANCH  26  27
ATOM     27  C   UNL     1       1.629   2.986  20.881  0.00  0.00    +0.000 C 
ATOM     28  O   UNL     1       1.770   2.088  20.066  0.00  0.00    +0.000 OA
BRANCH  27  29
ATOM     29  O   UNL     1       1.987   2.843  22.177  0.00  0.00    +0.000 OA
ATOM     30  H   UNL     1       1.765   3.609  22.738  0.00  0.00    +0.000 HD
ENDBRANCH  27  29
ENDBRANCH  26  27
ENDBRANCH  25  26
ENDBRANCH  24  25
ENDBRANCH  18  19
ENDBRANCH   7  18
TORSDOF 8
ENDMDL
MODEL 9
REMARK VINA RESULT:      -7.8      1.402      1.591
REMARK  Name = 
REMARK  8 active torsions:
REMARK  status: ('A' for Active; 'I' for Inactive)
REMARK    1  A    between atoms: C_2  and  C_4
REMARK    2  A    between atoms: C_7  and  C_8
REMARK    3  A    between atoms: C_14  and  C_15
REMARK    4  A    between atoms: C_15  and  C_16
REMARK    5  A    between atoms: C_21  and  C_22
REMARK    6  A    between atoms: C_22  and  C_23
REMARK    7  A    between atoms: C_23  and  C_24
REMARK    8  A    between atoms: C_24  and  O_26
REMARK                            x       y       z     vdW  Elec       q    Type
REMARK                         _______ _______ _______ _____ _____    ______ ____
ROOT
ATOM      1  C   UNL     1       3.090   4.307  20.006  0.00  0.00    +0.000 C 
ATOM      2  C   UNL     1       2.085   3.294  20.583  0.00  0.00    +0.000 C 
ATOM      3  C   UNL     1       0.723   3.308  19.886  0.00  0.00    +0.000 C 
ATOM      4  C   UNL     1       1.073   2.774  18.500  0.00  0.00    +0.000 C 
ATOM      5  C   UNL     1       2.552   2.409  18.658  0.00  0.00    +0.000 C 
ATOM      6  O   UNL     1       2.622   2.051  20.059  0.00  0.00    +0.000 OA
ATOM      7  C   UNL     1       3.422   3.680  18.621  0.00  0.00    +0.000 C 
ENDROOT
BRANCH   1  11
ATOM      8  C   UNL     1       1.714   7.608  20.314  0.00  0.00    +0.000 A 
ATOM      9  C   UNL     1       2.340   7.653  19.087  0.00  0.00    +0.000 A 
ATOM     10  O   UNL     1       2.866   6.423  18.838  0.00  0.00    +0.000 OA
ATOM     11  C   UNL     1       2.535   5.681  19.943  0.00  0.00    +0.000 A 
ATOM     12  N   UNL     1       1.820   6.329  20.836  0.00  0.00    +0.000 NA
BRANCH   8  14
ATOM     13  N   UNL     1       1.609   8.988  22.217  0.00  0.00    +0.000 N 
ATOM     14  C   UNL     1       1.062   8.708  21.003  0.00  0.00    +0.000 C 
ATOM     15  O   UNL     1       0.110   9.337  20.544  0.00  0.00    +0.000 OA
ATOM     16  H   UNL     1       1.220   9.728  22.785  0.00  0.00    +0.000 HD
ATOM     17  H   UNL     1       2.376   8.432  22.588  0.00  0.00    +0.000 HD
ENDBRANCH   8  14
ENDBRANCH   1  11
BRANCH   7  18
ATOM     18  C   UNL     1       4.929   3.362  18.507  0.00  0.00    +0.000 C 
BRANCH  18  19
ATOM     19  C   UNL     1       5.777   4.475  17.918  0.00  0.00    +0.000 A 
ATOM     20  C   UNL     1       6.161   5.493  18.823  0.00  0.00    +0.000 A 
ATOM     21  C   UNL     1       7.042   6.509  18.461  0.00  0.00    +0.000 A 
ATOM     22  C   UNL     1       7.577   6.524  17.185  0.00  0.00    +0.000 A 
ATOM     23  C   UNL     1       7.174   5.560  16.262  0.00  0.00    +0.000 A 
ATOM     24  C   UNL     1       6.231   4.552  16.584  0.00  0.00    +0.000 A 
BRANCH  24  25
ATOM     25  C   UNL     1       5.863   3.624  15.437  0.00  0.00    +0.000 C 
BRANCH  25  26
ATOM     26  C   UNL     1       5.442   4.264  14.117  0.00  0.00    +0.000 C 
BRANCH  26  27
ATOM     27  C   UNL     1       6.379   3.877  13.000  0.00  0.00    +0.000 C 
ATOM     28  O   UNL     1       7.276   4.580  12.560  0.00  0.00    +0.000 OA
BRANCH  27  29
ATOM     29  O   UNL     1       6.175   2.615  12.562  0.00  0.00    +0.000 OA
ATOM     30  H   UNL     1       6.995   2.120  12.376  0.00  0.00    +0.000 HD
ENDBRANCH  27  29
ENDBRANCH  26  27
ENDBRANCH  25  26
ENDBRANCH  24  25
ENDBRANCH  18  19
ENDBRANCH   7  18
TORSDOF 8
ENDMDL
