MODEL 1
REMARK VINA RESULT:      -8.2      0.000      0.000
REMARK  Name = 
REMARK  9 active torsions:
REMARK  status: ('A' for Active; 'I' for Inactive)
REMARK    1  A    between atoms: C_1  and  C_2
REMARK    2  A    between atoms: C_2  and  N_3
REMARK    3  A    between atoms: C_4  and  C_6
REMARK    4  A    between atoms: C_8  and  N_9
REMARK    5  A    between atoms: C_15  and  C_17
REMARK    6  A    between atoms: C_20  and  O_21
REMARK    7  A    between atoms: O_21  and  C_22
REMARK    8  A    between atoms: C_29  and  O_30
REMARK    9  A    between atoms: C_31  and  O_32
REMARK                            x       y       z     vdW  Elec       q    Type
REMARK                         _______ _______ _______ _____ _____    ______ ____
ROOT
ATOM      1  N   UNL     1       3.830   6.185  17.872  0.00  0.00    +0.000 N 
ATOM      2  C   UNL     1       3.705   7.466  17.389  0.00  0.00    +0.000 A 
ATOM      3  N   UNL     1       2.910   8.205  18.136  0.00  0.00    +0.000 NA
ATOM      4  C   UNL     1       2.446   7.345  19.110  0.00  0.00    +0.000 A 
ATOM      5  C   UNL     1       1.561   7.514  20.186  0.00  0.00    +0.000 A 
ATOM      6  N   UNL     1       0.992   8.775  20.429  0.00  0.00    +0.000 N 
ATOM      7  C   UNL     1       0.109   9.032  21.458  0.00  0.00    +0.000 C 
ATOM      8  O   UNL     1      -0.290   8.220  22.287  0.00  0.00    +0.000 OA
ATOM      9  N   UNL     1       1.278   6.438  20.957  0.00  0.00    +0.000 NA
ATOM     10  C   UNL     1       1.851   5.259  20.669  0.00  0.00    +0.000 A 
ATOM     11  N   UNL     1       2.735   4.990  19.695  0.00  0.00    +0.000 NA
ATOM     12  C   UNL     1       2.988   6.078  18.947  0.00  0.00    +0.000 A 
ATOM     13  H   UNL     1       1.233   9.489  19.756  0.00  0.00    +0.000 HD
ENDROOT
BRANCH   7  14
ATOM     14  C   UNL     1      -0.431  10.418  21.550  0.00  0.00    +0.000 A 
ATOM     15  C   UNL     1      -0.877  10.852  22.807  0.00  0.00    +0.000 A 
ATOM     16  C   UNL     1      -1.387  12.139  22.971  0.00  0.00    +0.000 A 
ATOM     17  C   UNL     1      -1.437  13.022  21.894  0.00  0.00    +0.000 A 
ATOM     18  C   UNL     1      -0.984  12.602  20.641  0.00  0.00    +0.000 A 
ATOM     19  C   UNL     1      -0.479  11.305  20.463  0.00  0.00    +0.000 A 
BRANCH  17  20
ATOM     20  O   UNL     1      -1.991  14.238  22.173  0.00  0.00    +0.000 OA
ATOM     21  C   UNL     1      -2.147  14.554  23.551  0.00  0.00    +0.000 C 
ENDBRANCH  17  20
ENDBRANCH   7  14
BRANCH   1  24
ATOM     22  C   UNL     1       6.776   4.518  18.020  0.00  0.00    +0.000 C 
ATOM     23  O   UNL     1       5.375   4.422  18.303  0.00  0.00    +0.000 OA
ATOM     24  C   UNL     1       4.635   5.126  17.278  0.00  0.00    +0.000 C 
ATOM     25  C   UNL     1       5.662   5.620  16.250  0.00  0.00    +0.000 C 
ATOM     26  C   UNL     1       6.870   4.740  16.520  0.00  0.00    +0.000 C 
BRANCH  22  28
ATOM     27  N   UNL     1       7.782   6.742  18.084  0.00  0.00    +0.000 N 
ATOM     28  C   UNL     1       7.453   5.631  18.834  0.00  0.00    +0.000 C 
ATOM     29  O   UNL     1       7.629   5.553  20.045  0.00  0.00    +0.000 OA
ATOM     30  H   UNL     1       7.790   6.637  17.070  0.00  0.00    +0.000 HD
BRANCH  27  32
ATOM     31  C   UNL     1       8.126   9.168  17.867  0.00  0.00    +0.000 C 
ATOM     32  C   UNL     1       8.408   7.910  18.669  0.00  0.00    +0.000 C 
ENDBRANCH  27  32
ENDBRANCH  22  28
BRANCH  25  33
ATOM     33  O   UNL     1       5.186   5.468  14.912  0.00  0.00    +0.000 OA
ATOM     34  H   UNL     1       5.760   4.786  14.497  0.00  0.00    +0.000 HD
ENDBRANCH  25  33
BRANCH  26  35
ATOM     35  O   UNL     1       6.701   3.515  15.777  0.00  0.00    +0.000 OA
ATOM     36  H   UNL     1       5.817   3.147  15.971  0.00  0.00    +0.000 HD
ENDBRANCH  26  35
ENDBRANCH   1  24
TORSDOF 7
ENDMDL
MODEL 2
REMARK VINA RESULT:      -8.0      3.231      4.222
REMARK  Name = 
REMARK  9 active torsions:
REMARK  status: ('A' for Active; 'I' for Inactive)
REMARK    1  A    between atoms: C_1  and  C_2
REMARK    2  A    between atoms: C_2  and  N_3
REMARK    3  A    between atoms: C_4  and  C_6
REMARK    4  A    between atoms: C_8  and  N_9
REMARK    5  A    between atoms: C_15  and  C_17
REMARK    6  A    between atoms: C_20  and  O_21
REMARK    7  A    between atoms: O_21  and  C_22
REMARK    8  A    between atoms: C_29  and  O_30
REMARK    9  A    between atoms: C_31  and  O_32
REMARK                            x       y       z     vdW  Elec       q    Type
REMARK                         _______ _______ _______ _____ _____    ______ ____
ROOT
ATOM      1  N   UNL     1       2.257   6.802  19.012  0.00  0.00    +0.000 N 
ATOM      2  C   UNL     1       2.713   7.483  17.909  0.00  0.00    +0.000 A 
ATOM      3  N   UNL     1       2.602   8.788  18.048  0.00  0.00    +0.000 NA
ATOM      4  C   UNL     1       1.985   8.959  19.270  0.00  0.00    +0.000 A 
ATOM      5  C   UNL     1       1.576  10.098  19.980  0.00  0.00    +0.000 A 
ATOM      6  N   UNL     1       1.813  11.375  19.444  0.00  0.00    +0.000 N 
ATOM      7  C   UNL     1       1.441  12.548  20.067  0.00  0.00    +0.000 C 
ATOM      8  O   UNL     1       0.871  12.643  21.150  0.00  0.00    +0.000 OA
ATOM      9  N   UNL     1       0.952   9.923  21.168  0.00  0.00    +0.000 NA
ATOM     10  C   UNL     1       0.751   8.677  21.623  0.00  0.00    +0.000 A 
ATOM     11  N   UNL     1       1.130   7.521  21.052  0.00  0.00    +0.000 NA
ATOM     12  C   UNL     1       1.740   7.733  19.873  0.00  0.00    +0.000 A 
ATOM     13  H   UNL     1       2.236  11.381  18.526  0.00  0.00    +0.000 HD
ENDROOT
BRANCH   7  14
ATOM     14  C   UNL     1       1.734  13.817  19.342  0.00  0.00    +0.000 A 
ATOM     15  C   UNL     1       0.854  14.890  19.541  0.00  0.00    +0.000 A 
ATOM     16  C   UNL     1       1.069  16.111  18.903  0.00  0.00    +0.000 A 
ATOM     17  C   UNL     1       2.177  16.290  18.076  0.00  0.00    +0.000 A 
ATOM     18  C   UNL     1       3.065  15.230  17.881  0.00  0.00    +0.000 A 
ATOM     19  C   UNL     1       2.851  13.995  18.511  0.00  0.00    +0.000 A 
BRANCH  17  20
ATOM     20  O   UNL     1       2.256  17.516  17.480  0.00  0.00    +0.000 OA
ATOM     21  C   UNL     1       1.022  18.187  17.262  0.00  0.00    +0.000 C 
ENDBRANCH  17  20
ENDBRANCH   7  14
BRANCH   1  24
ATOM     22  C   UNL     1       4.169   4.023  19.335  0.00  0.00    +0.000 C 
ATOM     23  O   UNL     1       3.320   4.934  20.043  0.00  0.00    +0.000 OA
ATOM     24  C   UNL     1       2.243   5.353  19.172  0.00  0.00    +0.000 C 
ATOM     25  C   UNL     1       2.406   4.575  17.859  0.00  0.00    +0.000 C 
ATOM     26  C   UNL     1       3.290   3.407  18.260  0.00  0.00    +0.000 C 
BRANCH  22  28
ATOM     27  N   UNL     1       6.019   4.019  17.742  0.00  0.00    +0.000 N 
ATOM     28  C   UNL     1       5.414   4.720  18.765  0.00  0.00    +0.000 C 
ATOM     29  O   UNL     1       5.792   5.821  19.150  0.00  0.00    +0.000 OA
ATOM     30  H   UNL     1       5.765   3.038  17.631  0.00  0.00    +0.000 HD
BRANCH  27  32
ATOM     31  C   UNL     1       6.931   4.756  15.579  0.00  0.00    +0.000 C 
ATOM     32  C   UNL     1       7.193   4.517  17.055  0.00  0.00    +0.000 C 
ENDBRANCH  27  32
ENDBRANCH  22  28
BRANCH  25  33
ATOM     33  O   UNL     1       1.147   4.134  17.347  0.00  0.00    +0.000 OA
ATOM     34  H   UNL     1       0.596   4.942  17.254  0.00  0.00    +0.000 HD
ENDBRANCH  25  33
BRANCH  26  35
ATOM     35  O   UNL     1       2.439   2.366  18.783  0.00  0.00    +0.000 OA
ATOM     36  H   UNL     1       2.964   1.549  18.886  0.00  0.00    +0.000 HD
ENDBRANCH  26  35
ENDBRANCH   1  24
TORSDOF 7
ENDMDL
MODEL 3
REMARK VINA RESULT:      -8.0      2.521      4.323
REMARK  Name = 
REMARK  9 active torsions:
REMARK  status: ('A' for Active; 'I' for Inactive)
REMARK    1  A    between atoms: C_1  and  C_2
REMARK    2  A    between atoms: C_2  and  N_3
REMARK    3  A    between atoms: C_4  and  C_6
REMARK    4  A    between atoms: C_8  and  N_9
REMARK    5  A    between atoms: C_15  and  C_17
REMARK    6  A    between atoms: C_20  and  O_21
REMARK    7  A    between atoms: O_21  and  C_22
REMARK    8  A    between atoms: C_29  and  O_30
REMARK    9  A    between atoms: C_31  and  O_32
REMARK                            x       y       z     vdW  Elec       q    Type
REMARK                         _______ _______ _______ _____ _____    ______ ____
ROOT
ATOM      1  N   UNL     1       2.891   6.884  19.005  0.00  0.00    +0.000 N 
ATOM      2  C   UNL     1       2.272   6.620  20.203  0.00  0.00    +0.000 A 
ATOM      3  N   UNL     1       1.439   7.578  20.555  0.00  0.00    +0.000 NA
ATOM      4  C   UNL     1       1.574   8.538  19.574  0.00  0.00    +0.000 A 
ATOM      5  C   UNL     1       0.980   9.795  19.382  0.00  0.00    +0.000 A 
ATOM      6  N   UNL     1       0.022  10.259  20.298  0.00  0.00    +0.000 N 
ATOM      7  C   UNL     1      -0.609  11.482  20.194  0.00  0.00    +0.000 C 
ATOM      8  O   UNL     1      -0.434  12.313  19.307  0.00  0.00    +0.000 OA
ATOM      9  N   UNL     1       1.361  10.527  18.310  0.00  0.00    +0.000 NA
ATOM     10  C   UNL     1       2.284  10.028  17.473  0.00  0.00    +0.000 A 
ATOM     11  N   UNL     1       2.890   8.831  17.535  0.00  0.00    +0.000 NA
ATOM     12  C   UNL     1       2.492   8.135  18.615  0.00  0.00    +0.000 A 
ATOM     13  H   UNL     1      -0.142   9.652  21.089  0.00  0.00    +0.000 HD
ENDROOT
BRANCH   7  14
ATOM     14  C   UNL     1      -1.572  11.837  21.275  0.00  0.00    +0.000 A 
ATOM     15  C   UNL     1      -2.712  12.566  20.907  0.00  0.00    +0.000 A 
ATOM     16  C   UNL     1      -3.661  12.926  21.863  0.00  0.00    +0.000 A 
ATOM     17  C   UNL     1      -3.502  12.545  23.194  0.00  0.00    +0.000 A 
ATOM     18  C   UNL     1      -2.375  11.809  23.567  0.00  0.00    +0.000 A 
ATOM     19  C   UNL     1      -1.410  11.451  22.615  0.00  0.00    +0.000 A 
BRANCH  17  20
ATOM     20  O   UNL     1      -4.478  12.990  24.039  0.00  0.00    +0.000 OA
ATOM     21  C   UNL     1      -4.928  14.322  23.830  0.00  0.00    +0.000 C 
ENDBRANCH  17  20
ENDBRANCH   7  14
BRANCH   1  24
ATOM     22  C   UNL     1       3.417   3.843  17.609  0.00  0.00    +0.000 C 
ATOM     23  O   UNL     1       3.218   5.231  17.319  0.00  0.00    +0.000 OA
ATOM     24  C   UNL     1       3.864   6.025  18.342  0.00  0.00    +0.000 C 
ATOM     25  C   UNL     1       4.577   5.043  19.282  0.00  0.00    +0.000 C 
ATOM     26  C   UNL     1       4.685   3.782  18.444  0.00  0.00    +0.000 C 
BRANCH  22  28
ATOM     27  N   UNL     1       2.489   2.731  19.575  0.00  0.00    +0.000 N 
ATOM     28  C   UNL     1       2.203   3.222  18.317  0.00  0.00    +0.000 C 
ATOM     29  O   UNL     1       1.080   3.219  17.826  0.00  0.00    +0.000 OA
ATOM     30  H   UNL     1       3.471   2.590  19.811  0.00  0.00    +0.000 HD
BRANCH  27  32
ATOM     31  C   UNL     1       1.491   2.697  21.823  0.00  0.00    +0.000 C 
ATOM     32  C   UNL     1       1.476   2.127  20.416  0.00  0.00    +0.000 C 
ENDBRANCH  27  32
ENDBRANCH  22  28
BRANCH  25  33
ATOM     33  O   UNL     1       5.863   5.528  19.676  0.00  0.00    +0.000 OA
ATOM     34  H   UNL     1       6.511   4.862  19.357  0.00  0.00    +0.000 HD
ENDBRANCH  25  33
BRANCH  26  35
ATOM     35  O   UNL     1       5.875   3.888  17.635  0.00  0.00    +0.000 OA
ATOM     36  H   UNL     1       6.146   4.825  17.593  0.00  0.00    +0.000 HD
ENDBRANCH  26  35
ENDBRANCH   1  24
TORSDOF 7
ENDMDL
MODEL 4
REMARK VINA RESULT:      -7.9      2.898     10.724
REMARK  Name = 
REMARK  9 active torsions:
REMARK  status: ('A' for Active; 'I' for Inactive)
REMARK    1  A    between atoms: C_1  and  C_2
REMARK    2  A    between atoms: C_2  and  N_3
REMARK    3  A    between atoms: C_4  and  C_6
REMARK    4  A    between atoms: C_8  and  N_9
REMARK    5  A    between atoms: C_15  and  C_17
REMARK    6  A    between atoms: C_20  and  O_21
REMARK    7  A    between atoms: O_21  and  C_22
REMARK    8  A    between atoms: C_29  and  O_30
REMARK    9  A    between atoms: C_31  and  O_32
REMARK                            x       y       z     vdW  Elec       q    Type
REMARK                         _______ _______ _______ _____ _____    ______ ____
ROOT
ATOM      1  N   UNL     1      -0.872  11.326  22.601  0.00  0.00    +0.000 N 
ATOM      2  C   UNL     1      -0.767  10.004  22.962  0.00  0.00    +0.000 A 
ATOM      3  N   UNL     1      -0.104   9.295  22.071  0.00  0.00    +0.000 NA
ATOM      4  C   UNL     1       0.177  10.184  21.054  0.00  0.00    +0.000 A 
ATOM      5  C   UNL     1       0.838  10.047  19.824  0.00  0.00    +0.000 A 
ATOM      6  N   UNL     1       1.384   8.805  19.462  0.00  0.00    +0.000 N 
ATOM      7  C   UNL     1       2.044   8.576  18.273  0.00  0.00    +0.000 C 
ATOM      8  O   UNL     1       2.248   9.402  17.388  0.00  0.00    +0.000 OA
ATOM      9  N   UNL     1       0.919  11.130  19.017  0.00  0.00    +0.000 NA
ATOM     10  C   UNL     1       0.373  12.287  19.419  0.00  0.00    +0.000 A 
ATOM     11  N   UNL     1      -0.247  12.544  20.583  0.00  0.00    +0.000 NA
ATOM     12  C   UNL     1      -0.315  11.446  21.355  0.00  0.00    +0.000 A 
ATOM     13  H   UNL     1       1.214   8.055  20.119  0.00  0.00    +0.000 HD
ENDROOT
BRANCH   7  14
ATOM     14  C   UNL     1       2.529   7.187  18.029  0.00  0.00    +0.000 A 
ATOM     15  C   UNL     1       3.846   7.037  17.571  0.00  0.00    +0.000 A 
ATOM     16  C   UNL     1       4.371   5.768  17.328  0.00  0.00    +0.000 A 
ATOM     17  C   UNL     1       3.602   4.630  17.563  0.00  0.00    +0.000 A 
ATOM     18  C   UNL     1       2.294   4.770  18.030  0.00  0.00    +0.000 A 
ATOM     19  C   UNL     1       1.753   6.042  18.267  0.00  0.00    +0.000 A 
BRANCH  17  20
ATOM     20  O   UNL     1       4.215   3.449  17.253  0.00  0.00    +0.000 OA
ATOM     21  C   UNL     1       3.733   2.296  17.931  0.00  0.00    +0.000 C 
ENDBRANCH  17  20
ENDBRANCH   7  14
BRANCH   1  24
ATOM     22  C   UNL     1      -3.747  13.074  22.994  0.00  0.00    +0.000 C 
ATOM     23  O   UNL     1      -2.938  12.034  23.555  0.00  0.00    +0.000 OA
ATOM     24  C   UNL     1      -1.542  12.367  23.369  0.00  0.00    +0.000 C 
ATOM     25  C   UNL     1      -1.500  13.755  22.716  0.00  0.00    +0.000 C 
ATOM     26  C   UNL     1      -2.877  14.320  23.019  0.00  0.00    +0.000 C 
BRANCH  22  28
ATOM     27  N   UNL     1      -5.524  12.204  21.564  0.00  0.00    +0.000 N 
ATOM     28  C   UNL     1      -4.245  12.720  21.584  0.00  0.00    +0.000 C 
ATOM     29  O   UNL     1      -3.583  12.934  20.575  0.00  0.00    +0.000 OA
ATOM     30  H   UNL     1      -5.910  11.873  22.448  0.00  0.00    +0.000 HD
BRANCH  27  32
ATOM     31  C   UNL     1      -7.432  10.999  20.583  0.00  0.00    +0.000 C 
ATOM     32  C   UNL     1      -6.185  11.828  20.331  0.00  0.00    +0.000 C 
ENDBRANCH  27  32
ENDBRANCH  22  28
BRANCH  25  33
ATOM     33  O   UNL     1      -0.462  14.568  23.267  0.00  0.00    +0.000 OA
ATOM     34  H   UNL     1       0.184  14.709  22.540  0.00  0.00    +0.000 HD
ENDBRANCH  25  33
BRANCH  26  35
ATOM     35  O   UNL     1      -2.829  14.924  24.328  0.00  0.00    +0.000 OA
ATOM     36  H   UNL     1      -3.040  15.874  24.247  0.00  0.00    +0.000 HD
ENDBRANCH  26  35
ENDBRANCH   1  24
TORSDOF 7
ENDMDL
MODEL 5
REMARK VINA RESULT:      -7.9      2.704      9.856
REMARK  Name = 
REMARK  9 active torsions:
REMARK  status: ('A' for Active; 'I' for Inactive)
REMARK    1  A    between atoms: C_1  and  C_2
REMARK    2  A    between atoms: C_2  and  N_3
REMARK    3  A    between atoms: C_4  and  C_6
REMARK    4  A    between atoms: C_8  and  N_9
REMARK    5  A    between atoms: C_15  and  C_17
REMARK    6  A    between atoms: C_20  and  O_21
REMARK    7  A    between atoms: O_21  and  C_22
REMARK    8  A    between atoms: C_29  and  O_30
REMARK    9  A    between atoms: C_31  and  O_32
REMARK                            x       y       z     vdW  Elec       q    Type
REMARK                         _______ _______ _______ _____ _____    ______ ____
ROOT
ATOM      1  N   UNL     1       0.966   9.737  19.461  0.00  0.00    +0.000 N 
ATOM      2  C   UNL     1       1.529  10.137  18.273  0.00  0.00    +0.000 A 
ATOM      3  N   UNL     1       2.291   9.201  17.743  0.00  0.00    +0.000 NA
ATOM      4  C   UNL     1       2.274   8.173  18.662  0.00  0.00    +0.000 A 
ATOM      5  C   UNL     1       2.895   6.915  18.696  0.00  0.00    +0.000 A 
ATOM      6  N   UNL     1       3.698   6.506  17.618  0.00  0.00    +0.000 N 
ATOM      7  C   UNL     1       4.350   5.292  17.567  0.00  0.00    +0.000 C 
ATOM      8  O   UNL     1       4.320   4.417  18.428  0.00  0.00    +0.000 OA
ATOM      9  N   UNL     1       2.700   6.134  19.783  0.00  0.00    +0.000 NA
ATOM     10  C   UNL     1       1.924   6.584  20.781  0.00  0.00    +0.000 A 
ATOM     11  N   UNL     1       1.254   7.747  20.842  0.00  0.00    +0.000 NA
ATOM     12  C   UNL     1       1.476   8.499  19.749  0.00  0.00    +0.000 A 
ATOM     13  H   UNL     1       3.816   7.194  16.888  0.00  0.00    +0.000 HD
ENDROOT
BRANCH   7  14
ATOM     14  C   UNL     1       5.195   5.031  16.367  0.00  0.00    +0.000 A 
ATOM     15  C   UNL     1       4.605   4.330  15.305  0.00  0.00    +0.000 A 
ATOM     16  C   UNL     1       5.331   4.057  14.147  0.00  0.00    +0.000 A 
ATOM     17  C   UNL     1       6.646   4.501  14.017  0.00  0.00    +0.000 A 
ATOM     18  C   UNL     1       7.238   5.210  15.064  0.00  0.00    +0.000 A 
ATOM     19  C   UNL     1       6.519   5.480  16.238  0.00  0.00    +0.000 A 
BRANCH  17  20
ATOM     20  O   UNL     1       7.262   4.139  12.853  0.00  0.00    +0.000 OA
ATOM     21  C   UNL     1       6.505   3.316  11.974  0.00  0.00    +0.000 C 
ENDBRANCH  17  20
ENDBRANCH   7  14
BRANCH   1  24
ATOM     22  C   UNL     1      -1.867  11.594  19.512  0.00  0.00    +0.000 C 
ATOM     23  O   UNL     1      -1.300  10.335  19.893  0.00  0.00    +0.000 OA
ATOM     24  C   UNL     1       0.076  10.537  20.293  0.00  0.00    +0.000 C 
ATOM     25  C   UNL     1       0.342  12.047  20.224  0.00  0.00    +0.000 C 
ATOM     26  C   UNL     1      -1.055  12.643  20.254  0.00  0.00    +0.000 C 
BRANCH  22  28
ATOM     27  N   UNL     1      -2.883  11.143  17.339  0.00  0.00    +0.000 N 
ATOM     28  C   UNL     1      -1.855  11.794  17.989  0.00  0.00    +0.000 C 
ATOM     29  O   UNL     1      -1.039  12.512  17.422  0.00  0.00    +0.000 OA
ATOM     30  H   UNL     1      -3.378  10.416  17.854  0.00  0.00    +0.000 HD
BRANCH  27  32
ATOM     31  C   UNL     1      -2.846   9.883  15.226  0.00  0.00    +0.000 C 
ATOM     32  C   UNL     1      -3.061  11.224  15.903  0.00  0.00    +0.000 C 
ENDBRANCH  27  32
ENDBRANCH  22  28
BRANCH  25  33
ATOM     33  O   UNL     1       1.131  12.495  21.328  0.00  0.00    +0.000 OA
ATOM     34  H   UNL     1       0.635  12.237  22.136  0.00  0.00    +0.000 HD
ENDBRANCH  25  33
BRANCH  26  35
ATOM     35  O   UNL     1      -1.455  12.766  21.634  0.00  0.00    +0.000 OA
ATOM     36  H   UNL     1      -0.844  12.243  22.189  0.00  0.00    +0.000 HD
ENDBRANCH  26  35
ENDBRANCH   1  24
TORSDOF 7
ENDMDL
MODEL 6
REMARK VINA RESULT:      -7.9      2.726     10.045
REMARK  Name = 
REMARK  9 active torsions:
REMARK  status: ('A' for Active; 'I' for Inactive)
REMARK    1  A    between atoms: C_1  and  C_2
REMARK    2  A    between atoms: C_2  and  N_3
REMARK    3  A    between atoms: C_4  and  C_6
REMARK    4  A    between atoms: C_8  and  N_9
REMARK    5  A    between atoms: C_15  and  C_17
REMARK    6  A    between atoms: C_20  and  O_21
REMARK    7  A    between atoms: O_21  and  C_22
REMARK    8  A    between atoms: C_29  and  O_30
REMARK    9  A    between atoms: C_31  and  O_32
REMARK                            x       y       z     vdW  Elec       q    Type
REMARK                         _______ _______ _______ _____ _____    ______ ____
ROOT
ATOM      1  N   UNL     1       0.731  10.919  19.682  0.00  0.00    +0.000 N 
ATOM      2  C   UNL     1       1.396  11.129  18.498  0.00  0.00    +0.000 A 
ATOM      3  N   UNL     1       2.016  10.046  18.075  0.00  0.00    +0.000 NA
ATOM      4  C   UNL     1       1.798   9.109  19.064  0.00  0.00    +0.000 A 
ATOM      5  C   UNL     1       2.205   7.775  19.219  0.00  0.00    +0.000 A 
ATOM      6  N   UNL     1       2.972   7.160  18.215  0.00  0.00    +0.000 N 
ATOM      7  C   UNL     1       3.421   5.858  18.285  0.00  0.00    +0.000 C 
ATOM      8  O   UNL     1       3.216   5.070  19.204  0.00  0.00    +0.000 OA
ATOM      9  N   UNL     1       1.845   7.123  20.348  0.00  0.00    +0.000 NA
ATOM     10  C   UNL     1       1.115   7.768  21.271  0.00  0.00    +0.000 A 
ATOM     11  N   UNL     1       0.640   9.023  21.214  0.00  0.00    +0.000 NA
ATOM     12  C   UNL     1       1.022   9.642  20.083  0.00  0.00    +0.000 A 
ATOM     13  H   UNL     1       3.227   7.761  17.444  0.00  0.00    +0.000 HD
ENDROOT
BRANCH   7  14
ATOM     14  C   UNL     1       4.257   5.373  17.150  0.00  0.00    +0.000 A 
ATOM     15  C   UNL     1       4.807   6.341  16.296  0.00  0.00    +0.000 A 
ATOM     16  C   UNL     1       5.606   5.963  15.219  0.00  0.00    +0.000 A 
ATOM     17  C   UNL     1       5.892   4.618  14.990  0.00  0.00    +0.000 A 
ATOM     18  C   UNL     1       5.359   3.648  15.841  0.00  0.00    +0.000 A 
ATOM     19  C   UNL     1       4.545   4.018  16.922  0.00  0.00    +0.000 A 
BRANCH  17  20
ATOM     20  O   UNL     1       6.654   4.373  13.883  0.00  0.00    +0.000 OA
ATOM     21  C   UNL     1       6.053   3.572  12.874  0.00  0.00    +0.000 C 
ENDBRANCH  17  20
ENDBRANCH   7  14
BRANCH   1  24
ATOM     22  C   UNL     1      -2.348  12.267  20.106  0.00  0.00    +0.000 C 
ATOM     23  O   UNL     1      -1.372  11.401  20.695  0.00  0.00    +0.000 OA
ATOM     24  C   UNL     1      -0.049  11.912  20.408  0.00  0.00    +0.000 C 
ATOM     25  C   UNL     1      -0.239  13.235  19.653  0.00  0.00    +0.000 C 
ATOM     26  C   UNL     1      -1.668  13.622  19.991  0.00  0.00    +0.000 C 
BRANCH  22  28
ATOM     27  N   UNL     1      -4.134  12.138  18.446  0.00  0.00    +0.000 N 
ATOM     28  C   UNL     1      -2.852  11.734  18.756  0.00  0.00    +0.000 C 
ATOM     29  O   UNL     1      -2.153  11.061  18.007  0.00  0.00    +0.000 OA
ATOM     30  H   UNL     1      -4.704  12.514  19.204  0.00  0.00    +0.000 HD
BRANCH  27  32
ATOM     31  C   UNL     1      -6.053  12.559  16.965  0.00  0.00    +0.000 C 
ATOM     32  C   UNL     1      -4.784  11.762  17.208  0.00  0.00    +0.000 C 
ENDBRANCH  27  32
ENDBRANCH  22  28
BRANCH  25  33
ATOM     33  O   UNL     1       0.693  14.229  20.085  0.00  0.00    +0.000 OA
ATOM     34  H   UNL     1       0.841  14.813  19.309  0.00  0.00    +0.000 HD
ENDBRANCH  25  33
BRANCH  26  35
ATOM     35  O   UNL     1      -1.650  14.330  21.248  0.00  0.00    +0.000 OA
ATOM     36  H   UNL     1      -1.846  15.272  21.083  0.00  0.00    +0.000 HD
ENDBRANCH  26  35
ENDBRANCH   1  24
TORSDOF 7
ENDMDL
MODEL 7
REMARK VINA RESULT:      -7.8      2.584      9.508
REMARK  Name = 
REMARK  9 active torsions:
REMARK  status: ('A' for Active; 'I' for Inactive)
REMARK    1  A    between atoms: C_1  and  C_2
REMARK    2  A    between atoms: C_2  and  N_3
REMARK    3  A    between atoms: C_4  and  C_6
REMARK    4  A    between atoms: C_8  and  N_9
REMARK    5  A    between atoms: C_15  and  C_17
REMARK    6  A    between atoms: C_20  and  O_21
REMARK    7  A    between atoms: O_21  and  C_22
REMARK    8  A    between atoms: C_29  and  O_30
REMARK    9  A    between atoms: C_31  and  O_32
REMARK                            x       y       z     vdW  Elec       q    Type
REMARK                         _______ _______ _______ _____ _____    ______ ____
ROOT
ATOM      1  N   UNL     1      -0.035  11.642  20.126  0.00  0.00    +0.000 N 
ATOM      2  C   UNL     1       0.652  11.763  18.941  0.00  0.00    +0.000 A 
ATOM      3  N   UNL     1       1.287  10.655  18.618  0.00  0.00    +0.000 NA
ATOM      4  C   UNL     1       1.054   9.797  19.673  0.00  0.00    +0.000 A 
ATOM      5  C   UNL     1       1.466   8.483  19.941  0.00  0.00    +0.000 A 
ATOM      6  N   UNL     1       2.256   7.796  19.004  0.00  0.00    +0.000 N 
ATOM      7  C   UNL     1       2.710   6.506  19.185  0.00  0.00    +0.000 C 
ATOM      8  O   UNL     1       2.492   5.792  20.159  0.00  0.00    +0.000 OA
ATOM      9  N   UNL     1       1.087   7.919  21.111  0.00  0.00    +0.000 NA
ATOM     10  C   UNL     1       0.335   8.630  21.965  0.00  0.00    +0.000 A 
ATOM     11  N   UNL     1      -0.145   9.873  21.801  0.00  0.00    +0.000 NA
ATOM     12  C   UNL     1       0.255  10.403  20.632  0.00  0.00    +0.000 A 
ATOM     13  H   UNL     1       2.523   8.336  18.193  0.00  0.00    +0.000 HD
ENDROOT
BRANCH   7  14
ATOM     14  C   UNL     1       3.572   5.939  18.108  0.00  0.00    +0.000 A 
ATOM     15  C   UNL     1       3.481   4.560  17.871  0.00  0.00    +0.000 A 
ATOM     16  C   UNL     1       4.251   3.961  16.874  0.00  0.00    +0.000 A 
ATOM     17  C   UNL     1       5.102   4.730  16.082  0.00  0.00    +0.000 A 
ATOM     18  C   UNL     1       5.189   6.106  16.303  0.00  0.00    +0.000 A 
ATOM     19  C   UNL     1       4.427   6.716  17.311  0.00  0.00    +0.000 A 
BRANCH  17  20
ATOM     20  O   UNL     1       5.828   4.023  15.167  0.00  0.00    +0.000 OA
ATOM     21  C   UNL     1       6.693   4.782  14.331  0.00  0.00    +0.000 C 
ENDBRANCH  17  20
ENDBRANCH   7  14
BRANCH   1  24
ATOM     22  C   UNL     1      -0.359  14.978  20.621  0.00  0.00    +0.000 C 
ATOM     23  O   UNL     1      -0.891  13.856  19.907  0.00  0.00    +0.000 OA
ATOM     24  C   UNL     1      -0.834  12.685  20.756  0.00  0.00    +0.000 C 
ATOM     25  C   UNL     1      -0.300  13.149  22.118  0.00  0.00    +0.000 C 
ATOM     26  C   UNL     1      -0.548  14.647  22.092  0.00  0.00    +0.000 C 
BRANCH  22  28
ATOM     27  N   UNL     1       1.357  15.190  18.898  0.00  0.00    +0.000 N 
ATOM     28  C   UNL     1       1.107  15.253  20.253  0.00  0.00    +0.000 C 
ATOM     29  O   UNL     1       1.954  15.555  21.087  0.00  0.00    +0.000 OA
ATOM     30  H   UNL     1       0.656  14.737  18.312  0.00  0.00    +0.000 HD
BRANCH  27  32
ATOM     31  C   UNL     1       3.495  14.170  18.233  0.00  0.00    +0.000 C 
ATOM     32  C   UNL     1       2.672  15.441  18.343  0.00  0.00    +0.000 C 
ENDBRANCH  27  32
ENDBRANCH  22  28
BRANCH  25  33
ATOM     33  O   UNL     1      -0.989  12.517  23.198  0.00  0.00    +0.000 OA
ATOM     34  H   UNL     1      -0.338  12.450  23.931  0.00  0.00    +0.000 HD
ENDBRANCH  25  33
BRANCH  26  35
ATOM     35  O   UNL     1      -1.902  14.879  22.533  0.00  0.00    +0.000 OA
ATOM     36  H   UNL     1      -2.504  14.304  22.021  0.00  0.00    +0.000 HD
ENDBRANCH  26  35
ENDBRANCH   1  24
TORSDOF 7
ENDMDL
MODEL 8
REMARK VINA RESULT:      -7.8      2.596      3.457
REMARK  Name = 
REMARK  9 active torsions:
REMARK  status: ('A' for Active; 'I' for Inactive)
REMARK    1  A    between atoms: C_1  and  C_2
REMARK    2  A    between atoms: C_2  and  N_3
REMARK    3  A    between atoms: C_4  and  C_6
REMARK    4  A    between atoms: C_8  and  N_9
REMARK    5  A    between atoms: C_15  and  C_17
REMARK    6  A    between atoms: C_20  and  O_21
REMARK    7  A    between atoms: O_21  and  C_22
REMARK    8  A    between atoms: C_29  and  O_30
REMARK    9  A    between atoms: C_31  and  O_32
REMARK                            x       y       z     vdW  Elec       q    Type
REMARK                         _______ _______ _______ _____ _____    ______ ____
ROOT
ATOM      1  N   UNL     1       2.590   6.603  18.861  0.00  0.00    +0.000 N 
ATOM      2  C   UNL     1       2.941   7.445  17.833  0.00  0.00    +0.000 A 
ATOM      3  N   UNL     1       2.589   8.693  18.069  0.00  0.00    +0.000 NA
ATOM      4  C   UNL     1       1.921   8.647  19.274  0.00  0.00    +0.000 A 
ATOM      5  C   UNL     1       1.292   9.630  20.053  0.00  0.00    +0.000 A 
ATOM      6  N   UNL     1       1.305  10.968  19.628  0.00  0.00    +0.000 N 
ATOM      7  C   UNL     1       0.709  11.999  20.325  0.00  0.00    +0.000 C 
ATOM      8  O   UNL     1       0.104  11.899  21.388  0.00  0.00    +0.000 OA
ATOM      9  N   UNL     1       0.682   9.246  21.198  0.00  0.00    +0.000 NA
ATOM     10  C   UNL     1       0.701   7.951  21.547  0.00  0.00    +0.000 A 
ATOM     11  N   UNL     1       1.300   6.934  20.904  0.00  0.00    +0.000 NA
ATOM     12  C   UNL     1       1.890   7.351  19.770  0.00  0.00    +0.000 A 
ATOM     13  H   UNL     1       1.743  11.127  18.731  0.00  0.00    +0.000 HD
ENDROOT
BRANCH   7  14
ATOM     14  C   UNL     1       0.783  13.357  19.712  0.00  0.00    +0.000 A 
ATOM     15  C   UNL     1      -0.390  14.125  19.710  0.00  0.00    +0.000 A 
ATOM     16  C   UNL     1      -0.395  15.407  19.161  0.00  0.00    +0.000 A 
ATOM     17  C   UNL     1       0.773  15.953  18.631  0.00  0.00    +0.000 A 
ATOM     18  C   UNL     1       1.948  15.198  18.639  0.00  0.00    +0.000 A 
ATOM     19  C   UNL     1       1.960  13.903  19.179  0.00  0.00    +0.000 A 
BRANCH  17  20
ATOM     20  O   UNL     1       0.631  17.199  18.091  0.00  0.00    +0.000 OA
ATOM     21  C   UNL     1      -0.691  17.579  17.732  0.00  0.00    +0.000 C 
ENDBRANCH  17  20
ENDBRANCH   7  14
BRANCH   1  24
ATOM     22  C   UNL     1       4.834   4.148  18.217  0.00  0.00    +0.000 C 
ATOM     23  O   UNL     1       4.217   4.908  19.262  0.00  0.00    +0.000 OA
ATOM     24  C   UNL     1       2.838   5.168  18.908  0.00  0.00    +0.000 C 
ATOM     25  C   UNL     1       2.576   4.442  17.582  0.00  0.00    +0.000 C 
ATOM     26  C   UNL     1       3.697   3.418  17.523  0.00  0.00    +0.000 C 
BRANCH  22  28
ATOM     27  N   UNL     1       6.386   6.008  17.905  0.00  0.00    +0.000 N 
ATOM     28  C   UNL     1       5.647   5.036  17.261  0.00  0.00    +0.000 C 
ATOM     29  O   UNL     1       5.674   4.854  16.049  0.00  0.00    +0.000 OA
ATOM     30  H   UNL     1       6.145   6.215  18.873  0.00  0.00    +0.000 HD
BRANCH  27  32
ATOM     31  C   UNL     1       8.038   7.817  18.123  0.00  0.00    +0.000 C 
ATOM     32  C   UNL     1       7.237   6.933  17.185  0.00  0.00    +0.000 C 
ENDBRANCH  27  32
ENDBRANCH  22  28
BRANCH  25  33
ATOM     33  O   UNL     1       1.290   3.819  17.565  0.00  0.00    +0.000 OA
ATOM     34  H   UNL     1       0.825   4.183  16.780  0.00  0.00    +0.000 HD
ENDBRANCH  25  33
BRANCH  26  35
ATOM     35  O   UNL     1       3.270   2.252  18.257  0.00  0.00    +0.000 OA
ATOM     36  H   UNL     1       2.401   1.964  17.917  0.00  0.00    +0.000 HD
ENDBRANCH  26  35
ENDBRANCH   1  24
TORSDOF 7
ENDMDL
MODEL 9
REMARK VINA RESULT:      -7.8      1.787      2.815
REMARK  Name = 
REMARK  9 active torsions:
REMARK  status: ('A' for Active; 'I' for Inactive)
REMARK    1  A    between atoms: C_1  and  C_2
REMARK    2  A    between atoms: C_2  and  N_3
REMARK    3  A    between atoms: C_4  and  C_6
REMARK    4  A    between atoms: C_8  and  N_9
REMARK    5  A    between atoms: C_15  and  C_17
REMARK    6  A    between atoms: C_20  and  O_21
REMARK    7  A    between atoms: O_21  and  C_22
REMARK    8  A    between atoms: C_29  and  O_30
REMARK    9  A    between atoms: C_31  and  O_32
REMARK                            x       y       z     vdW  Elec       q    Type
REMARK                         _______ _______ _______ _____ _____    ______ ____
ROOT
ATOM      1  N   UNL     1       2.536   5.227  19.722  0.00  0.00    +0.000 N 
ATOM      2  C   UNL     1       1.980   5.428  20.963  0.00  0.00    +0.000 A 
ATOM      3  N   UNL     1       1.539   6.660  21.117  0.00  0.00    +0.000 NA
ATOM      4  C   UNL     1       1.883   7.305  19.948  0.00  0.00    +0.000 A 
ATOM      5  C   UNL     1       1.710   8.624  19.501  0.00  0.00    +0.000 A 
ATOM      6  N   UNL     1       1.045   9.554  20.316  0.00  0.00    +0.000 N 
ATOM      7  C   UNL     1       0.836  10.870  19.962  0.00  0.00    +0.000 C 
ATOM      8  O   UNL     1       1.185  11.402  18.912  0.00  0.00    +0.000 OA
ATOM      9  N   UNL     1       2.204   8.958  18.286  0.00  0.00    +0.000 NA
ATOM     10  C   UNL     1       2.833   8.023  17.557  0.00  0.00    +0.000 A 
ATOM     11  N   UNL     1       3.023   6.730  17.864  0.00  0.00    +0.000 NA
ATOM     12  C   UNL     1       2.526   6.436  19.078  0.00  0.00    +0.000 A 
ATOM     13  H   UNL     1       0.770   9.205  21.224  0.00  0.00    +0.000 HD
ENDROOT
BRANCH   7  14
ATOM     14  C   UNL     1       0.146  11.734  20.963  0.00  0.00    +0.000 A 
ATOM     15  C   UNL     1      -0.649  11.095  21.925  0.00  0.00    +0.000 A 
ATOM     16  C   UNL     1      -1.318  11.837  22.898  0.00  0.00    +0.000 A 
ATOM     17  C   UNL     1      -1.184  13.224  22.943  0.00  0.00    +0.000 A 
ATOM     18  C   UNL     1      -0.385  13.868  21.995  0.00  0.00    +0.000 A 
ATOM     19  C   UNL     1       0.283  13.130  21.007  0.00  0.00    +0.000 A 
BRANCH  17  20
ATOM     20  O   UNL     1      -1.917  13.840  23.917  0.00  0.00    +0.000 OA
ATOM     21  C   UNL     1      -1.353  15.021  24.472  0.00  0.00    +0.000 C 
ENDBRANCH  17  20
ENDBRANCH   7  14
BRANCH   1  24
ATOM     22  C   UNL     1       5.040   3.838  17.911  0.00  0.00    +0.000 C 
ATOM     23  O   UNL     1       4.557   4.058  19.241  0.00  0.00    +0.000 OA
ATOM     24  C   UNL     1       3.112   3.978  19.240  0.00  0.00    +0.000 C 
ATOM     25  C   UNL     1       2.690   3.601  17.813  0.00  0.00    +0.000 C 
ATOM     26  C   UNL     1       3.961   3.020  17.220  0.00  0.00    +0.000 C 
BRANCH  22  28
ATOM     27  N   UNL     1       6.089   6.042  17.939  0.00  0.00    +0.000 N 
ATOM     28  C   UNL     1       5.349   5.156  17.184  0.00  0.00    +0.000 C 
ATOM     29  O   UNL     1       5.014   5.367  16.024  0.00  0.00    +0.000 OA
ATOM     30  H   UNL     1       6.142   5.873  18.943  0.00  0.00    +0.000 HD
BRANCH  27  32
ATOM     31  C   UNL     1       7.878   7.732  17.937  0.00  0.00    +0.000 C 
ATOM     32  C   UNL     1       6.504   7.333  17.428  0.00  0.00    +0.000 C 
ENDBRANCH  27  32
ENDBRANCH  22  28
BRANCH  25  33
ATOM     33  O   UNL     1       1.623   2.650  17.811  0.00  0.00    +0.000 OA
ATOM     34  H   UNL     1       1.941   1.890  17.276  0.00  0.00    +0.000 HD
ENDBRANCH  25  33
BRANCH  26  35
ATOM     35  O   UNL     1       4.021   1.625  17.582  0.00  0.00    +0.000 OA
ATOM     36  H   UNL     1       3.145   1.346  17.913  0.00  0.00    +0.000 HD
ENDBRANCH  26  35
ENDBRANCH   1  24
TORSDOF 7
ENDMDL
