MODEL 1
REMARK VINA RESULT:      -7.6      0.000      0.000
REMARK  Name = 
REMARK  6 active torsions:
REMARK  status: ('A' for Active; 'I' for Inactive)
REMARK    1  A    between atoms: C_1  and  O_2
REMARK    2  A    between atoms: O_2  and  C_3
REMARK    3  A    between atoms: C_5  and  C_6
REMARK    4  A    between atoms: N_7  and  N_8
REMARK    5  A    between atoms: C_9  and  C_10
REMARK    6  A    between atoms: C_24  and  O_25
REMARK                            x       y       z     vdW  Elec       q    Type
REMARK                         _______ _______ _______ _____ _____    ______ ____
ROOT
ATOM      1  C   UNL     1       1.510   7.150  20.177  0.00  0.00    +0.000 C 
ATOM      2  N   UNL     1       1.958   8.337  20.443  0.00  0.00    +0.000 NA
ENDROOT
BRANCH   2   3
ATOM      3  N   UNL     1       1.029   9.378  20.461  0.00  0.00    +0.000 N 
ATOM      4  C   UNL     1       0.640   9.923  19.244  0.00  0.00    +0.000 A 
ATOM      5  C   UNL     1       1.322   9.458  17.977  0.00  0.00    +0.000 C 
ATOM      6  N   UNL     1      -0.265  10.846  19.122  0.00  0.00    +0.000 NA
ATOM      7  C   UNL     1      -0.931  11.290  20.269  0.00  0.00    +0.000 A 
ATOM      8  C   UNL     1      -1.916  12.270  20.141  0.00  0.00    +0.000 A 
ATOM      9  C   UNL     1      -2.643  12.701  21.255  0.00  0.00    +0.000 A 
ATOM     10  C   UNL     1      -2.375  12.156  22.509  0.00  0.00    +0.000 A 
ATOM     11 BR   UNL     1      -3.377  12.712  24.011  0.00  0.00    +0.000 Br
ATOM     12  C   UNL     1      -1.385  11.190  22.658  0.00  0.00    +0.000 A 
ATOM     13  C   UNL     1      -0.672  10.762  21.532  0.00  0.00    +0.000 A 
ATOM     14  C   UNL     1       0.348   9.706  21.645  0.00  0.00    +0.000 A 
ATOM     15  O   UNL     1       0.503   9.172  22.745  0.00  0.00    +0.000 OA
ENDBRANCH   2   3
BRANCH   1  18
ATOM     16  C   UNL     1       3.117   3.729  20.513  0.00  0.00    +0.000 A 
ATOM     17  C   UNL     1       2.238   4.804  20.703  0.00  0.00    +0.000 A 
ATOM     18  C   UNL     1       2.397   5.986  19.976  0.00  0.00    +0.000 A 
ATOM     19  C   UNL     1       3.431   6.108  19.045  0.00  0.00    +0.000 A 
ATOM     20  C   UNL     1       4.292   5.032  18.838  0.00  0.00    +0.000 A 
ATOM     21 BR   UNL     1       5.669   5.213  17.544  0.00  0.00    +0.000 Br
ATOM     22  C   UNL     1       4.140   3.840  19.561  0.00  0.00    +0.000 A 
BRANCH  16  24
ATOM     23  C   UNL     1       1.475   2.505  21.721  0.00  0.00    +0.000 C 
ATOM     24  O   UNL     1       2.824   2.635  21.284  0.00  0.00    +0.000 OA
ENDBRANCH  16  24
BRANCH  22  25
ATOM     25  O   UNL     1       4.976   2.785  19.308  0.00  0.00    +0.000 OA
ATOM     26  H   UNL     1       5.201   2.370  20.160  0.00  0.00    +0.000 HD
ENDBRANCH  22  25
ENDBRANCH   1  18
TORSDOF 4
ENDMDL
MODEL 2
REMARK VINA RESULT:      -7.2      3.049      8.920
REMARK  Name = 
REMARK  6 active torsions:
REMARK  status: ('A' for Active; 'I' for Inactive)
REMARK    1  A    between atoms: C_1  and  O_2
REMARK    2  A    between atoms: O_2  and  C_3
REMARK    3  A    between atoms: C_5  and  C_6
REMARK    4  A    between atoms: N_7  and  N_8
REMARK    5  A    between atoms: C_9  and  C_10
REMARK    6  A    between atoms: C_24  and  O_25
REMARK                            x       y       z     vdW  Elec       q    Type
REMARK                         _______ _______ _______ _____ _____    ______ ____
ROOT
ATOM      1  C   UNL     1       0.988   8.952  18.403  0.00  0.00    +0.000 C 
ATOM      2  N   UNL     1       1.809   8.489  19.293  0.00  0.00    +0.000 NA
ENDROOT
BRANCH   2   3
ATOM      3  N   UNL     1       2.586   7.387  18.930  0.00  0.00    +0.000 N 
ATOM      4  C   UNL     1       2.397   6.201  19.628  0.00  0.00    +0.000 A 
ATOM      5  C   UNL     1       1.464   6.187  20.818  0.00  0.00    +0.000 C 
ATOM      6  N   UNL     1       3.006   5.090  19.344  0.00  0.00    +0.000 NA
ATOM      7  C   UNL     1       3.864   5.059  18.240  0.00  0.00    +0.000 A 
ATOM      8  C   UNL     1       4.507   3.862  17.919  0.00  0.00    +0.000 A 
ATOM      9  C   UNL     1       5.330   3.774  16.792  0.00  0.00    +0.000 A 
ATOM     10  C   UNL     1       5.519   4.895  15.984  0.00  0.00    +0.000 A 
ATOM     11 BR   UNL     1       6.603   4.771  14.443  0.00  0.00    +0.000 Br
ATOM     12  C   UNL     1       4.899   6.099  16.298  0.00  0.00    +0.000 A 
ATOM     13  C   UNL     1       4.071   6.170  17.425  0.00  0.00    +0.000 A 
ATOM     14  C   UNL     1       3.360   7.415  17.759  0.00  0.00    +0.000 A 
ATOM     15  O   UNL     1       3.467   8.364  16.981  0.00  0.00    +0.000 OA
ENDBRANCH   2   3
BRANCH   1  18
ATOM     16  C   UNL     1      -1.952  11.334  18.120  0.00  0.00    +0.000 A 
ATOM     17  C   UNL     1      -1.052  10.300  17.828  0.00  0.00    +0.000 A 
ATOM     18  C   UNL     1       0.002  10.012  18.698  0.00  0.00    +0.000 A 
ATOM     19  C   UNL     1       0.168  10.748  19.873  0.00  0.00    +0.000 A 
ATOM     20  C   UNL     1      -0.739  11.761  20.176  0.00  0.00    +0.000 A 
ATOM     21 BR   UNL     1      -0.508  12.725  21.796  0.00  0.00    +0.000 Br
ATOM     22  C   UNL     1      -1.802  12.057  19.311  0.00  0.00    +0.000 A 
BRANCH  16  24
ATOM     23  C   UNL     1      -2.724  10.861  15.922  0.00  0.00    +0.000 C 
ATOM     24  O   UNL     1      -2.940  11.485  17.182  0.00  0.00    +0.000 OA
ENDBRANCH  16  24
BRANCH  22  25
ATOM     25  O   UNL     1      -2.701  13.032  19.654  0.00  0.00    +0.000 OA
ATOM     26  H   UNL     1      -3.363  13.093  18.943  0.00  0.00    +0.000 HD
ENDBRANCH  22  25
ENDBRANCH   1  18
TORSDOF 4
ENDMDL
MODEL 3
REMARK VINA RESULT:      -7.2      1.413      2.239
REMARK  Name = 
REMARK  6 active torsions:
REMARK  status: ('A' for Active; 'I' for Inactive)
REMARK    1  A    between atoms: C_1  and  O_2
REMARK    2  A    between atoms: O_2  and  C_3
REMARK    3  A    between atoms: C_5  and  C_6
REMARK    4  A    between atoms: N_7  and  N_8
REMARK    5  A    between atoms: C_9  and  C_10
REMARK    6  A    between atoms: C_24  and  O_25
REMARK                            x       y       z     vdW  Elec       q    Type
REMARK                         _______ _______ _______ _____ _____    ______ ____
ROOT
ATOM      1  C   UNL     1       1.432   7.267  20.314  0.00  0.00    +0.000 C 
ATOM      2  N   UNL     1       1.890   8.462  20.516  0.00  0.00    +0.000 NA
ENDROOT
BRANCH   2   3
ATOM      3  N   UNL     1       0.963   9.505  20.534  0.00  0.00    +0.000 N 
ATOM      4  C   UNL     1       0.586  10.060  19.318  0.00  0.00    +0.000 A 
ATOM      5  C   UNL     1       1.279   9.604  18.053  0.00  0.00    +0.000 C 
ATOM      6  N   UNL     1      -0.316  10.986  19.194  0.00  0.00    +0.000 NA
ATOM      7  C   UNL     1      -0.992  11.421  20.339  0.00  0.00    +0.000 A 
ATOM      8  C   UNL     1      -1.975  12.404  20.210  0.00  0.00    +0.000 A 
ATOM      9  C   UNL     1      -2.711  12.828  21.320  0.00  0.00    +0.000 A 
ATOM     10  C   UNL     1      -2.455  12.272  22.573  0.00  0.00    +0.000 A 
ATOM     11 BR   UNL     1      -3.469  12.818  24.069  0.00  0.00    +0.000 Br
ATOM     12  C   UNL     1      -1.468  11.304  22.723  0.00  0.00    +0.000 A 
ATOM     13  C   UNL     1      -0.745  10.883  21.600  0.00  0.00    +0.000 A 
ATOM     14  C   UNL     1       0.272   9.825  21.714  0.00  0.00    +0.000 A 
ATOM     15  O   UNL     1       0.416   9.282  22.811  0.00  0.00    +0.000 OA
ENDBRANCH   2   3
BRANCH   1  18
ATOM     16  C   UNL     1       4.236   5.011  19.111  0.00  0.00    +0.000 A 
ATOM     17  C   UNL     1       3.442   6.150  19.302  0.00  0.00    +0.000 A 
ATOM     18  C   UNL     1       2.310   6.095  20.119  0.00  0.00    +0.000 A 
ATOM     19  C   UNL     1       1.960   4.905  20.760  0.00  0.00    +0.000 A 
ATOM     20  C   UNL     1       2.760   3.777  20.589  0.00  0.00    +0.000 A 
ATOM     21 BR   UNL     1       2.278   2.181  21.497  0.00  0.00    +0.000 Br
ATOM     22  C   UNL     1       3.900   3.823  19.773  0.00  0.00    +0.000 A 
BRANCH  16  24
ATOM     23  C   UNL     1       6.540   5.574  18.942  0.00  0.00    +0.000 C 
ATOM     24  O   UNL     1       5.319   5.225  18.299  0.00  0.00    +0.000 OA
ENDBRANCH  16  24
BRANCH  22  25
ATOM     25  O   UNL     1       4.691   2.710  19.656  0.00  0.00    +0.000 OA
ATOM     26  H   UNL     1       5.368   2.893  18.980  0.00  0.00    +0.000 HD
ENDBRANCH  22  25
ENDBRANCH   1  18
TORSDOF 4
ENDMDL
MODEL 4
REMARK VINA RESULT:      -7.2      3.319      4.139
REMARK  Name = 
REMARK  6 active torsions:
REMARK  status: ('A' for Active; 'I' for Inactive)
REMARK    1  A    between atoms: C_1  and  O_2
REMARK    2  A    between atoms: O_2  and  C_3
REMARK    3  A    between atoms: C_5  and  C_6
REMARK    4  A    between atoms: N_7  and  N_8
REMARK    5  A    between atoms: C_9  and  C_10
REMARK    6  A    between atoms: C_24  and  O_25
REMARK                            x       y       z     vdW  Elec       q    Type
REMARK                         _______ _______ _______ _____ _____    ______ ____
ROOT
ATOM      1  C   UNL     1       2.345   7.634  19.367  0.00  0.00    +0.000 C 
ATOM      2  N   UNL     1       1.240   8.272  19.139  0.00  0.00    +0.000 NA
ENDROOT
BRANCH   2   3
ATOM      3  N   UNL     1       1.203   9.625  19.482  0.00  0.00    +0.000 N 
ATOM      4  C   UNL     1       0.806   9.957  20.771  0.00  0.00    +0.000 A 
ATOM      5  C   UNL     1       0.317   8.866  21.696  0.00  0.00    +0.000 C 
ATOM      6  N   UNL     1       0.796  11.171  21.233  0.00  0.00    +0.000 NA
ATOM      7  C   UNL     1       1.258  12.205  20.413  0.00  0.00    +0.000 A 
ATOM      8  C   UNL     1       1.265  13.509  20.911  0.00  0.00    +0.000 A 
ATOM      9  C   UNL     1       1.769  14.564  20.144  0.00  0.00    +0.000 A 
ATOM     10  C   UNL     1       2.261  14.314  18.864  0.00  0.00    +0.000 A 
ATOM     11 BR   UNL     1       2.973  15.730  17.837  0.00  0.00    +0.000 Br
ATOM     12  C   UNL     1       2.247  13.024  18.345  0.00  0.00    +0.000 A 
ATOM     13  C   UNL     1       1.746  11.977  19.128  0.00  0.00    +0.000 A 
ATOM     14  C   UNL     1       1.762  10.591  18.630  0.00  0.00    +0.000 A 
ATOM     15  O   UNL     1       2.287  10.380  17.536  0.00  0.00    +0.000 OA
ENDBRANCH   2   3
BRANCH   1  18
ATOM     16  C   UNL     1       3.087   4.219  17.888  0.00  0.00    +0.000 A 
ATOM     17  C   UNL     1       3.006   5.611  18.033  0.00  0.00    +0.000 A 
ATOM     18  C   UNL     1       2.476   6.172  19.197  0.00  0.00    +0.000 A 
ATOM     19  C   UNL     1       2.024   5.353  20.232  0.00  0.00    +0.000 A 
ATOM     20  C   UNL     1       2.123   3.969  20.099  0.00  0.00    +0.000 A 
ATOM     21 BR   UNL     1       1.531   2.879  21.536  0.00  0.00    +0.000 Br
ATOM     22  C   UNL     1       2.657   3.396  18.936  0.00  0.00    +0.000 A 
BRANCH  16  24
ATOM     23  C   UNL     1       5.049   4.007  16.562  0.00  0.00    +0.000 C 
ATOM     24  O   UNL     1       3.645   3.821  16.701  0.00  0.00    +0.000 OA
ENDBRANCH  16  24
BRANCH  22  25
ATOM     25  O   UNL     1       2.780   2.034  18.850  0.00  0.00    +0.000 OA
ATOM     26  H   UNL     1       3.718   1.827  18.693  0.00  0.00    +0.000 HD
ENDBRANCH  22  25
ENDBRANCH   1  18
TORSDOF 4
ENDMDL
MODEL 5
REMARK VINA RESULT:      -7.1      2.932      3.878
REMARK  Name = 
REMARK  6 active torsions:
REMARK  status: ('A' for Active; 'I' for Inactive)
REMARK    1  A    between atoms: C_1  and  O_2
REMARK    2  A    between atoms: O_2  and  C_3
REMARK    3  A    between atoms: C_5  and  C_6
REMARK    4  A    between atoms: N_7  and  N_8
REMARK    5  A    between atoms: C_9  and  C_10
REMARK    6  A    between atoms: C_24  and  O_25
REMARK                            x       y       z     vdW  Elec       q    Type
REMARK                         _______ _______ _______ _____ _____    ______ ____
ROOT
ATOM      1  C   UNL     1       1.852   8.050  18.313  0.00  0.00    +0.000 C 
ATOM      2  N   UNL     1       1.867   8.588  19.492  0.00  0.00    +0.000 NA
ENDROOT
BRANCH   2   3
ATOM      3  N   UNL     1       1.026   9.682  19.704  0.00  0.00    +0.000 N 
ATOM      4  C   UNL     1       0.087   9.591  20.723  0.00  0.00    +0.000 A 
ATOM      5  C   UNL     1      -0.070   8.284  21.467  0.00  0.00    +0.000 C 
ATOM      6  N   UNL     1      -0.705  10.562  21.064  0.00  0.00    +0.000 NA
ATOM      7  C   UNL     1      -0.579  11.792  20.411  0.00  0.00    +0.000 A 
ATOM      8  C   UNL     1      -1.416  12.845  20.786  0.00  0.00    +0.000 A 
ATOM      9  C   UNL     1      -1.285  14.106  20.196  0.00  0.00    +0.000 A 
ATOM     10  C   UNL     1      -0.316  14.313  19.216  0.00  0.00    +0.000 A 
ATOM     11 BR   UNL     1      -0.114  16.024  18.440  0.00  0.00    +0.000 Br
ATOM     12  C   UNL     1       0.516  13.273  18.818  0.00  0.00    +0.000 A 
ATOM     13  C   UNL     1       0.379  12.017  19.424  0.00  0.00    +0.000 A 
ATOM     14  C   UNL     1       1.275  10.906  19.063  0.00  0.00    +0.000 A 
ATOM     15  O   UNL     1       2.183  11.138  18.264  0.00  0.00    +0.000 OA
ENDBRANCH   2   3
BRANCH   1  18
ATOM     16  C   UNL     1       4.909   6.257  16.958  0.00  0.00    +0.000 A 
ATOM     17  C   UNL     1       4.050   7.287  17.367  0.00  0.00    +0.000 A 
ATOM     18  C   UNL     1       2.795   6.989  17.904  0.00  0.00    +0.000 A 
ATOM     19  C   UNL     1       2.384   5.663  18.045  0.00  0.00    +0.000 A 
ATOM     20  C   UNL     1       3.246   4.638  17.659  0.00  0.00    +0.000 A 
ATOM     21 BR   UNL     1       2.675   2.842  17.890  0.00  0.00    +0.000 Br
ATOM     22  C   UNL     1       4.509   4.925  17.121  0.00  0.00    +0.000 A 
BRANCH  16  24
ATOM     23  C   UNL     1       7.159   6.877  17.413  0.00  0.00    +0.000 C 
ATOM     24  O   UNL     1       6.109   6.705  16.469  0.00  0.00    +0.000 OA
ENDBRANCH  16  24
BRANCH  22  25
ATOM     25  O   UNL     1       5.351   3.897  16.788  0.00  0.00    +0.000 OA
ATOM     26  H   UNL     1       4.819   3.199  16.364  0.00  0.00    +0.000 HD
ENDBRANCH  22  25
ENDBRANCH   1  18
TORSDOF 4
ENDMDL
MODEL 6
REMARK VINA RESULT:      -7.1      3.046      8.854
REMARK  Name = 
REMARK  6 active torsions:
REMARK  status: ('A' for Active; 'I' for Inactive)
REMARK    1  A    between atoms: C_1  and  O_2
REMARK    2  A    between atoms: O_2  and  C_3
REMARK    3  A    between atoms: C_5  and  C_6
REMARK    4  A    between atoms: N_7  and  N_8
REMARK    5  A    between atoms: C_9  and  C_10
REMARK    6  A    between atoms: C_24  and  O_25
REMARK                            x       y       z     vdW  Elec       q    Type
REMARK                         _______ _______ _______ _____ _____    ______ ____
ROOT
ATOM      1  C   UNL     1       1.064   8.954  18.392  0.00  0.00    +0.000 C 
ATOM      2  N   UNL     1       1.840   8.437  19.292  0.00  0.00    +0.000 NA
ENDROOT
BRANCH   2   3
ATOM      3  N   UNL     1       2.614   7.339  18.912  0.00  0.00    +0.000 N 
ATOM      4  C   UNL     1       2.422   6.144  19.592  0.00  0.00    +0.000 A 
ATOM      5  C   UNL     1       1.489   6.113  20.781  0.00  0.00    +0.000 C 
ATOM      6  N   UNL     1       3.028   5.036  19.289  0.00  0.00    +0.000 NA
ATOM      7  C   UNL     1       3.886   5.020  18.185  0.00  0.00    +0.000 A 
ATOM      8  C   UNL     1       4.527   3.827  17.845  0.00  0.00    +0.000 A 
ATOM      9  C   UNL     1       5.349   3.754  16.716  0.00  0.00    +0.000 A 
ATOM     10  C   UNL     1       5.541   4.888  15.927  0.00  0.00    +0.000 A 
ATOM     11 BR   UNL     1       6.625   4.786  14.384  0.00  0.00    +0.000 Br
ATOM     12  C   UNL     1       4.925   6.088  16.260  0.00  0.00    +0.000 A 
ATOM     13  C   UNL     1       4.097   6.143  17.388  0.00  0.00    +0.000 A 
ATOM     14  C   UNL     1       3.388   7.385  17.742  0.00  0.00    +0.000 A 
ATOM     15  O   UNL     1       3.498   8.346  16.979  0.00  0.00    +0.000 OA
ENDBRANCH   2   3
BRANCH   1  18
ATOM     16  C   UNL     1      -0.712  11.869  20.050  0.00  0.00    +0.000 A 
ATOM     17  C   UNL     1       0.254  10.893  19.769  0.00  0.00    +0.000 A 
ATOM     18  C   UNL     1       0.083  10.016  18.695  0.00  0.00    +0.000 A 
ATOM     19  C   UNL     1      -1.051  10.106  17.885  0.00  0.00    +0.000 A 
ATOM     20  C   UNL     1      -2.001  11.090  18.149  0.00  0.00    +0.000 A 
ATOM     21 BR   UNL     1      -3.517  11.210  17.012  0.00  0.00    +0.000 Br
ATOM     22  C   UNL     1      -1.838  11.977  19.223  0.00  0.00    +0.000 A 
BRANCH  16  24
ATOM     23  C   UNL     1      -0.768  12.179  22.406  0.00  0.00    +0.000 C 
ATOM     24  O   UNL     1      -0.396  12.663  21.121  0.00  0.00    +0.000 OA
ENDBRANCH  16  24
BRANCH  22  25
ATOM     25  O   UNL     1      -2.768  12.960  19.434  0.00  0.00    +0.000 OA
ATOM     26  H   UNL     1      -2.470  13.761  18.967  0.00  0.00    +0.000 HD
ENDBRANCH  22  25
ENDBRANCH   1  18
TORSDOF 4
ENDMDL
MODEL 7
REMARK VINA RESULT:      -7.0      2.860      8.918
REMARK  Name = 
REMARK  6 active torsions:
REMARK  status: ('A' for Active; 'I' for Inactive)
REMARK    1  A    between atoms: C_1  and  O_2
REMARK    2  A    between atoms: O_2  and  C_3
REMARK    3  A    between atoms: C_5  and  C_6
REMARK    4  A    between atoms: N_7  and  N_8
REMARK    5  A    between atoms: C_9  and  C_10
REMARK    6  A    between atoms: C_24  and  O_25
REMARK                            x       y       z     vdW  Elec       q    Type
REMARK                         _______ _______ _______ _____ _____    ______ ____
ROOT
ATOM      1  C   UNL     1       1.484   8.528  18.786  0.00  0.00    +0.000 C 
ATOM      2  N   UNL     1       2.025   7.667  19.589  0.00  0.00    +0.000 NA
ENDROOT
BRANCH   2   3
ATOM      3  N   UNL     1       2.788   6.651  19.012  0.00  0.00    +0.000 N 
ATOM      4  C   UNL     1       2.558   5.347  19.432  0.00  0.00    +0.000 A 
ATOM      5  C   UNL     1       1.594   5.099  20.570  0.00  0.00    +0.000 C 
ATOM      6  N   UNL     1       3.151   4.309  18.925  0.00  0.00    +0.000 NA
ATOM      7  C   UNL     1       4.037   4.496  17.859  0.00  0.00    +0.000 A 
ATOM      8  C   UNL     1       4.664   3.382  17.299  0.00  0.00    +0.000 A 
ATOM      9  C   UNL     1       5.514   3.519  16.198  0.00  0.00    +0.000 A 
ATOM     10  C   UNL     1       5.747   4.783  15.658  0.00  0.00    +0.000 A 
ATOM     11 BR   UNL     1       6.868   4.969  14.149  0.00  0.00    +0.000 Br
ATOM     12  C   UNL     1       5.144   5.906  16.212  0.00  0.00    +0.000 A 
ATOM     13  C   UNL     1       4.288   5.752  17.310  0.00  0.00    +0.000 A 
ATOM     14  C   UNL     1       3.593   6.913  17.891  0.00  0.00    +0.000 A 
ATOM     15  O   UNL     1       3.740   8.005  17.341  0.00  0.00    +0.000 OA
ENDBRANCH   2   3
BRANCH   1  18
ATOM     16  C   UNL     1      -1.007  11.391  18.812  0.00  0.00    +0.000 A 
ATOM     17  C   UNL     1      -0.135  10.398  18.345  0.00  0.00    +0.000 A 
ATOM     18  C   UNL     1       0.531   9.561  19.244  0.00  0.00    +0.000 A 
ATOM     19  C   UNL     1       0.332   9.700  20.618  0.00  0.00    +0.000 A 
ATOM     20  C   UNL     1      -0.552  10.672  21.084  0.00  0.00    +0.000 A 
ATOM     21 BR   UNL     1      -0.829  10.818  22.956  0.00  0.00    +0.000 Br
ATOM     22  C   UNL     1      -1.228  11.515  20.190  0.00  0.00    +0.000 A 
BRANCH  16  24
ATOM     23  C   UNL     1      -2.608  11.461  17.056  0.00  0.00    +0.000 C 
ATOM     24  O   UNL     1      -1.598  12.119  17.813  0.00  0.00    +0.000 OA
ENDBRANCH  16  24
BRANCH  22  25
ATOM     25  O   UNL     1      -2.121  12.435  20.674  0.00  0.00    +0.000 OA
ATOM     26  H   UNL     1      -2.692  11.985  21.323  0.00  0.00    +0.000 HD
ENDBRANCH  22  25
ENDBRANCH   1  18
TORSDOF 4
ENDMDL
MODEL 8
REMARK VINA RESULT:      -7.0      3.046      3.555
REMARK  Name = 
REMARK  6 active torsions:
REMARK  status: ('A' for Active; 'I' for Inactive)
REMARK    1  A    between atoms: C_1  and  O_2
REMARK    2  A    between atoms: O_2  and  C_3
REMARK    3  A    between atoms: C_5  and  C_6
REMARK    4  A    between atoms: N_7  and  N_8
REMARK    5  A    between atoms: C_9  and  C_10
REMARK    6  A    between atoms: C_24  and  O_25
REMARK                            x       y       z     vdW  Elec       q    Type
REMARK                         _______ _______ _______ _____ _____    ______ ____
ROOT
ATOM      1  C   UNL     1       2.408   7.767  19.058  0.00  0.00    +0.000 C 
ATOM      2  N   UNL     1       1.248   8.345  19.082  0.00  0.00    +0.000 NA
ENDROOT
BRANCH   2   3
ATOM      3  N   UNL     1       1.214   9.691  19.450  0.00  0.00    +0.000 N 
ATOM      4  C   UNL     1       0.842   9.998  20.752  0.00  0.00    +0.000 A 
ATOM      5  C   UNL     1       0.375   8.889  21.667  0.00  0.00    +0.000 C 
ATOM      6  N   UNL     1       0.838  11.203  21.237  0.00  0.00    +0.000 NA
ATOM      7  C   UNL     1       1.280  12.254  20.427  0.00  0.00    +0.000 A 
ATOM      8  C   UNL     1       1.293  13.549  20.949  0.00  0.00    +0.000 A 
ATOM      9  C   UNL     1       1.779  14.619  20.192  0.00  0.00    +0.000 A 
ATOM     10  C   UNL     1       2.246  14.394  18.898  0.00  0.00    +0.000 A 
ATOM     11 BR   UNL     1       2.933  15.832  17.883  0.00  0.00    +0.000 Br
ATOM     12  C   UNL     1       2.225  13.114  18.356  0.00  0.00    +0.000 A 
ATOM     13  C   UNL     1       1.743  12.051  19.129  0.00  0.00    +0.000 A 
ATOM     14  C   UNL     1       1.753  10.675  18.606  0.00  0.00    +0.000 A 
ATOM     15  O   UNL     1       2.256  10.486  17.497  0.00  0.00    +0.000 OA
ENDBRANCH   2   3
BRANCH   1  18
ATOM     16  C   UNL     1       2.053   4.001  19.349  0.00  0.00    +0.000 A 
ATOM     17  C   UNL     1       1.846   5.371  19.560  0.00  0.00    +0.000 A 
ATOM     18  C   UNL     1       2.576   6.316  18.836  0.00  0.00    +0.000 A 
ATOM     19  C   UNL     1       3.517   5.907  17.890  0.00  0.00    +0.000 A 
ATOM     20  C   UNL     1       3.708   4.546  17.663  0.00  0.00    +0.000 A 
ATOM     21 BR   UNL     1       4.972   4.017  16.348  0.00  0.00    +0.000 Br
ATOM     22  C   UNL     1       2.978   3.588  18.382  0.00  0.00    +0.000 A 
BRANCH  16  24
ATOM     23  C   UNL     1       1.686   2.953  21.452  0.00  0.00    +0.000 C 
ATOM     24  O   UNL     1       1.251   3.199  20.120  0.00  0.00    +0.000 OA
ENDBRANCH  16  24
BRANCH  22  25
ATOM     25  O   UNL     1       3.158   2.258  18.110  0.00  0.00    +0.000 OA
ATOM     26  H   UNL     1       4.085   2.034  18.308  0.00  0.00    +0.000 HD
ENDBRANCH  22  25
ENDBRANCH   1  18
TORSDOF 4
ENDMDL
MODEL 9
REMARK VINA RESULT:      -7.0      2.834      8.669
REMARK  Name = 
REMARK  6 active torsions:
REMARK  status: ('A' for Active; 'I' for Inactive)
REMARK    1  A    between atoms: C_1  and  O_2
REMARK    2  A    between atoms: O_2  and  C_3
REMARK    3  A    between atoms: C_5  and  C_6
REMARK    4  A    between atoms: N_7  and  N_8
REMARK    5  A    between atoms: C_9  and  C_10
REMARK    6  A    between atoms: C_24  and  O_25
REMARK                            x       y       z     vdW  Elec       q    Type
REMARK                         _______ _______ _______ _____ _____    ______ ____
ROOT
ATOM      1  C   UNL     1       1.772   8.343  18.975  0.00  0.00    +0.000 C 
ATOM      2  N   UNL     1       2.249   7.369  19.685  0.00  0.00    +0.000 NA
ENDROOT
BRANCH   2   3
ATOM      3  N   UNL     1       2.956   6.375  19.007  0.00  0.00    +0.000 N 
ATOM      4  C   UNL     1       2.648   5.051  19.290  0.00  0.00    +0.000 A 
ATOM      5  C   UNL     1       1.663   4.743  20.395  0.00  0.00    +0.000 C 
ATOM      6  N   UNL     1       3.185   4.038  18.680  0.00  0.00    +0.000 NA
ATOM      7  C   UNL     1       4.088   4.282  17.640  0.00  0.00    +0.000 A 
ATOM      8  C   UNL     1       4.654   3.196  16.970  0.00  0.00    +0.000 A 
ATOM      9  C   UNL     1       5.519   3.397  15.890  0.00  0.00    +0.000 A 
ATOM     10  C   UNL     1       5.828   4.694  15.483  0.00  0.00    +0.000 A 
ATOM     11 BR   UNL     1       6.970   4.969  14.004  0.00  0.00    +0.000 Br
ATOM     12  C   UNL     1       5.287   5.787  16.150  0.00  0.00    +0.000 A 
ATOM     13  C   UNL     1       4.415   5.571  17.225  0.00  0.00    +0.000 A 
ATOM     14  C   UNL     1       3.784   6.704  17.921  0.00  0.00    +0.000 A 
ATOM     15  O   UNL     1       3.997   7.836  17.486  0.00  0.00    +0.000 OA
ENDBRANCH   2   3
BRANCH   1  18
ATOM     16  C   UNL     1      -0.060  10.608  21.407  0.00  0.00    +0.000 A 
ATOM     17  C   UNL     1       0.824   9.643  20.905  0.00  0.00    +0.000 A 
ATOM     18  C   UNL     1       0.878   9.378  19.534  0.00  0.00    +0.000 A 
ATOM     19  C   UNL     1       0.056  10.076  18.648  0.00  0.00    +0.000 A 
ATOM     20  C   UNL     1      -0.807  11.052  19.143  0.00  0.00    +0.000 A 
ATOM     21 BR   UNL     1      -1.890  12.009  17.912  0.00  0.00    +0.000 Br
ATOM     22  C   UNL     1      -0.867  11.328  20.517  0.00  0.00    +0.000 A 
BRANCH  16  24
ATOM     23  C   UNL     1      -0.058   9.582  23.552  0.00  0.00    +0.000 C 
ATOM     24  O   UNL     1       0.014  10.767  22.767  0.00  0.00    +0.000 OA
ENDBRANCH  16  24
BRANCH  22  25
ATOM     25  O   UNL     1      -1.696  12.320  20.971  0.00  0.00    +0.000 OA
ATOM     26  H   UNL     1      -1.141  13.014  21.370  0.00  0.00    +0.000 HD
ENDBRANCH  22  25
ENDBRANCH   1  18
TORSDOF 4
ENDMDL
