MODEL 1
REMARK VINA RESULT:      -7.6      0.000      0.000
REMARK  Name = 
REMARK  3 active torsions:
REMARK  status: ('A' for Active; 'I' for Inactive)
REMARK    1  A    between atoms: C_2  and  C_3
REMARK    2  A    between atoms: N_7  and  C_8
REMARK    3  A    between atoms: C_15  and  C_16
REMARK                            x       y       z     vdW  Elec       q    Type
REMARK                         _______ _______ _______ _____ _____    ______ ____
ROOT
ATOM      1  C   UNL     1       3.263   3.261  19.395  0.00  0.00    +0.000 A 
ATOM      2  C   UNL     1       2.253   3.406  20.323  0.00  0.00    +0.000 A 
ATOM      3  N   UNL     1       1.762   4.592  20.735  0.00  0.00    +0.000 NA
ATOM      4  C   UNL     1       2.273   5.683  20.156  0.00  0.00    +0.000 A 
ATOM      5  N   UNL     1       1.821   6.917  20.609  0.00  0.00    +0.000 N 
ATOM      6  N   UNL     1       3.230   5.632  19.217  0.00  0.00    +0.000 NA
ATOM      7  C   UNL     1       3.742   4.434  18.841  0.00  0.00    +0.000 A 
ATOM      8  H   UNL     1       1.207   6.809  21.402  0.00  0.00    +0.000 HD
ENDROOT
BRANCH   5   9
ATOM      9  C   UNL     1       1.662   8.107  19.882  0.00  0.00    +0.000 A 
ATOM     10  C   UNL     1       2.159   8.266  18.580  0.00  0.00    +0.000 A 
ATOM     11  C   UNL     1       2.005   9.472  17.893  0.00  0.00    +0.000 A 
ATOM     12  C   UNL     1       1.372  10.546  18.510  0.00  0.00    +0.000 A 
ATOM     13  C   UNL     1       0.886  10.411  19.809  0.00  0.00    +0.000 A 
ATOM     14  C   UNL     1       1.024   9.195  20.486  0.00  0.00    +0.000 A 
ENDBRANCH   5   9
BRANCH   7  15
ATOM     15  C   UNL     1       4.832   4.554  17.837  0.00  0.00    +0.000 A 
ATOM     16  C   UNL     1       4.527   4.531  16.459  0.00  0.00    +0.000 A 
ATOM     17  C   UNL     1       5.522   4.627  15.481  0.00  0.00    +0.000 A 
ATOM     18  C   UNL     1       6.853   4.757  15.859  0.00  0.00    +0.000 A 
ATOM     19  C   UNL     1       7.187   4.772  17.207  0.00  0.00    +0.000 A 
ATOM     20  C   UNL     1       6.190   4.655  18.183  0.00  0.00    +0.000 A 
ENDBRANCH   7  15
BRANCH   1  22
ATOM     21  N   UNL     1       4.139   0.895  18.849  0.00  0.00    +0.000 NA
ATOM     22  C   UNL     1       3.758   1.957  19.110  0.00  0.00    +0.000 C 
ENDBRANCH   1  22
TORSDOF 3
ENDMDL
MODEL 2
REMARK VINA RESULT:      -7.6      0.113      1.487
REMARK  Name = 
REMARK  3 active torsions:
REMARK  status: ('A' for Active; 'I' for Inactive)
REMARK    1  A    between atoms: C_2  and  C_3
REMARK    2  A    between atoms: N_7  and  C_8
REMARK    3  A    between atoms: C_15  and  C_16
REMARK                            x       y       z     vdW  Elec       q    Type
REMARK                         _______ _______ _______ _____ _____    ______ ____
ROOT
ATOM      1  C   UNL     1       3.185   3.185  19.323  0.00  0.00    +0.000 A 
ATOM      2  C   UNL     1       2.178   3.328  20.254  0.00  0.00    +0.000 A 
ATOM      3  N   UNL     1       1.714   4.514  20.698  0.00  0.00    +0.000 NA
ATOM      4  C   UNL     1       2.250   5.608  20.148  0.00  0.00    +0.000 A 
ATOM      5  N   UNL     1       1.827   6.839  20.633  0.00  0.00    +0.000 N 
ATOM      6  N   UNL     1       3.207   5.559  19.207  0.00  0.00    +0.000 NA
ATOM      7  C   UNL     1       3.691   4.361  18.799  0.00  0.00    +0.000 A 
ATOM      8  H   UNL     1       1.211   6.724  21.424  0.00  0.00    +0.000 HD
ENDROOT
BRANCH   5   9
ATOM      9  C   UNL     1       1.695   8.051  19.938  0.00  0.00    +0.000 A 
ATOM     10  C   UNL     1       1.047   9.166  20.486  0.00  0.00    +0.000 A 
ATOM     11  C   UNL     1       0.910  10.350  19.757  0.00  0.00    +0.000 A 
ATOM     12  C   UNL     1       1.401  10.424  18.456  0.00  0.00    +0.000 A 
ATOM     13  C   UNL     1       2.034   9.320  17.891  0.00  0.00    +0.000 A 
ATOM     14  C   UNL     1       2.187   8.144  18.631  0.00  0.00    +0.000 A 
ENDBRANCH   5   9
BRANCH   7  15
ATOM     15  C   UNL     1       4.783   4.481  17.798  0.00  0.00    +0.000 A 
ATOM     16  C   UNL     1       6.117   4.647  18.227  0.00  0.00    +0.000 A 
ATOM     17  C   UNL     1       7.174   4.777  17.320  0.00  0.00    +0.000 A 
ATOM     18  C   UNL     1       6.922   4.737  15.954  0.00  0.00    +0.000 A 
ATOM     19  C   UNL     1       5.617   4.586  15.499  0.00  0.00    +0.000 A 
ATOM     20  C   UNL     1       4.560   4.476  16.410  0.00  0.00    +0.000 A 
ENDBRANCH   7  15
BRANCH   1  22
ATOM     21  N   UNL     1       4.052   0.828  18.720  0.00  0.00    +0.000 NA
ATOM     22  C   UNL     1       3.650   1.877  19.002  0.00  0.00    +0.000 C 
ENDBRANCH   1  22
TORSDOF 3
ENDMDL
MODEL 3
REMARK VINA RESULT:      -7.6      0.051      1.049
REMARK  Name = 
REMARK  3 active torsions:
REMARK  status: ('A' for Active; 'I' for Inactive)
REMARK    1  A    between atoms: C_2  and  C_3
REMARK    2  A    between atoms: N_7  and  C_8
REMARK    3  A    between atoms: C_15  and  C_16
REMARK                            x       y       z     vdW  Elec       q    Type
REMARK                         _______ _______ _______ _____ _____    ______ ____
ROOT
ATOM      1  C   UNL     1       3.248   3.223  19.360  0.00  0.00    +0.000 A 
ATOM      2  C   UNL     1       2.256   3.371  20.306  0.00  0.00    +0.000 A 
ATOM      3  N   UNL     1       1.778   4.560  20.729  0.00  0.00    +0.000 NA
ATOM      4  C   UNL     1       2.283   5.649  20.141  0.00  0.00    +0.000 A 
ATOM      5  N   UNL     1       1.846   6.885  20.603  0.00  0.00    +0.000 N 
ATOM      6  N   UNL     1       3.222   5.594  19.184  0.00  0.00    +0.000 NA
ATOM      7  C   UNL     1       3.721   4.394  18.797  0.00  0.00    +0.000 A 
ATOM      8  H   UNL     1       1.246   6.778  21.407  0.00  0.00    +0.000 HD
ENDROOT
BRANCH   5   9
ATOM      9  C   UNL     1       1.678   8.075  19.879  0.00  0.00    +0.000 A 
ATOM     10  C   UNL     1       2.183   8.245  18.582  0.00  0.00    +0.000 A 
ATOM     11  C   UNL     1       2.020   9.452  17.899  0.00  0.00    +0.000 A 
ATOM     12  C   UNL     1       1.371  10.517  18.517  0.00  0.00    +0.000 A 
ATOM     13  C   UNL     1       0.877  10.371  19.811  0.00  0.00    +0.000 A 
ATOM     14  C   UNL     1       1.024   9.154  20.484  0.00  0.00    +0.000 A 
ENDBRANCH   5   9
BRANCH   7  15
ATOM     15  C   UNL     1       4.792   4.509  17.773  0.00  0.00    +0.000 A 
ATOM     16  C   UNL     1       6.138   4.647  18.173  0.00  0.00    +0.000 A 
ATOM     17  C   UNL     1       7.177   4.771  17.244  0.00  0.00    +0.000 A 
ATOM     18  C   UNL     1       6.893   4.751  15.883  0.00  0.00    +0.000 A 
ATOM     19  C   UNL     1       5.576   4.627  15.457  0.00  0.00    +0.000 A 
ATOM     20  C   UNL     1       4.538   4.523  16.390  0.00  0.00    +0.000 A 
ENDBRANCH   7  15
BRANCH   1  22
ATOM     21  N   UNL     1       4.091   0.841  18.831  0.00  0.00    +0.000 NA
ATOM     22  C   UNL     1       3.731   1.916  19.064  0.00  0.00    +0.000 C 
ENDBRANCH   1  22
TORSDOF 3
ENDMDL
MODEL 4
REMARK VINA RESULT:      -7.6      2.125      4.421
REMARK  Name = 
REMARK  3 active torsions:
REMARK  status: ('A' for Active; 'I' for Inactive)
REMARK    1  A    between atoms: C_2  and  C_3
REMARK    2  A    between atoms: N_7  and  C_8
REMARK    3  A    between atoms: C_15  and  C_16
REMARK                            x       y       z     vdW  Elec       q    Type
REMARK                         _______ _______ _______ _____ _____    ______ ____
ROOT
ATOM      1  C   UNL     1       3.368   6.389  18.052  0.00  0.00    +0.000 A 
ATOM      2  C   UNL     1       3.499   7.666  17.548  0.00  0.00    +0.000 A 
ATOM      3  N   UNL     1       2.751   8.719  17.938  0.00  0.00    +0.000 NA
ATOM      4  C   UNL     1       1.864   8.493  18.911  0.00  0.00    +0.000 A 
ATOM      5  N   UNL     1       1.044   9.550  19.287  0.00  0.00    +0.000 N 
ATOM      6  N   UNL     1       1.698   7.290  19.485  0.00  0.00    +0.000 NA
ATOM      7  C   UNL     1       2.430   6.232  19.056  0.00  0.00    +0.000 A 
ATOM      8  H   UNL     1       1.186  10.348  18.686  0.00  0.00    +0.000 HD
ENDROOT
BRANCH   5   9
ATOM      9  C   UNL     1       0.518   9.837  20.556  0.00  0.00    +0.000 A 
ATOM     10  C   UNL     1       0.812   9.060  21.685  0.00  0.00    +0.000 A 
ATOM     11  C   UNL     1       0.252   9.358  22.929  0.00  0.00    +0.000 A 
ATOM     12  C   UNL     1      -0.633  10.425  23.055  0.00  0.00    +0.000 A 
ATOM     13  C   UNL     1      -0.948  11.198  21.940  0.00  0.00    +0.000 A 
ATOM     14  C   UNL     1      -0.370  10.909  20.700  0.00  0.00    +0.000 A 
ENDBRANCH   5   9
BRANCH   7  15
ATOM     15  C   UNL     1       2.087   4.964  19.750  0.00  0.00    +0.000 A 
ATOM     16  C   UNL     1       1.320   3.982  19.087  0.00  0.00    +0.000 A 
ATOM     17  C   UNL     1       0.963   2.780  19.707  0.00  0.00    +0.000 A 
ATOM     18  C   UNL     1       1.374   2.526  21.011  0.00  0.00    +0.000 A 
ATOM     19  C   UNL     1       2.121   3.477  21.695  0.00  0.00    +0.000 A 
ATOM     20  C   UNL     1       2.459   4.687  21.077  0.00  0.00    +0.000 A 
ENDBRANCH   7  15
BRANCH   1  22
ATOM     21  N   UNL     1       4.766   4.478  17.023  0.00  0.00    +0.000 NA
ATOM     22  C   UNL     1       4.155   5.342  17.493  0.00  0.00    +0.000 C 
ENDBRANCH   1  22
TORSDOF 3
ENDMDL
MODEL 5
REMARK VINA RESULT:      -7.6      0.103      1.055
REMARK  Name = 
REMARK  3 active torsions:
REMARK  status: ('A' for Active; 'I' for Inactive)
REMARK    1  A    between atoms: C_2  and  C_3
REMARK    2  A    between atoms: N_7  and  C_8
REMARK    3  A    between atoms: C_15  and  C_16
REMARK                            x       y       z     vdW  Elec       q    Type
REMARK                         _______ _______ _______ _____ _____    ______ ____
ROOT
ATOM      1  C   UNL     1       3.208   3.198  19.308  0.00  0.00    +0.000 A 
ATOM      2  C   UNL     1       2.190   3.325  20.229  0.00  0.00    +0.000 A 
ATOM      3  N   UNL     1       1.715   4.504  20.681  0.00  0.00    +0.000 NA
ATOM      4  C   UNL     1       2.253   5.607  20.151  0.00  0.00    +0.000 A 
ATOM      5  N   UNL     1       1.818   6.830  20.646  0.00  0.00    +0.000 N 
ATOM      6  N   UNL     1       3.220   5.574  19.221  0.00  0.00    +0.000 NA
ATOM      7  C   UNL     1       3.715   4.382  18.804  0.00  0.00    +0.000 A 
ATOM      8  H   UNL     1       1.192   6.703  21.427  0.00  0.00    +0.000 HD
ENDROOT
BRANCH   5   9
ATOM      9  C   UNL     1       1.689   8.049  19.963  0.00  0.00    +0.000 A 
ATOM     10  C   UNL     1       1.048   9.163  20.525  0.00  0.00    +0.000 A 
ATOM     11  C   UNL     1       0.914  10.354  19.809  0.00  0.00    +0.000 A 
ATOM     12  C   UNL     1       1.399  10.440  18.507  0.00  0.00    +0.000 A 
ATOM     13  C   UNL     1       2.025   9.339  17.928  0.00  0.00    +0.000 A 
ATOM     14  C   UNL     1       2.175   8.154  18.655  0.00  0.00    +0.000 A 
ENDBRANCH   5   9
BRANCH   7  15
ATOM     15  C   UNL     1       4.818   4.520  17.818  0.00  0.00    +0.000 A 
ATOM     16  C   UNL     1       4.543   4.442  16.437  0.00  0.00    +0.000 A 
ATOM     17  C   UNL     1       5.552   4.553  15.474  0.00  0.00    +0.000 A 
ATOM     18  C   UNL     1       6.869   4.754  15.874  0.00  0.00    +0.000 A 
ATOM     19  C   UNL     1       7.174   4.824  17.227  0.00  0.00    +0.000 A 
ATOM     20  C   UNL     1       6.164   4.693  18.187  0.00  0.00    +0.000 A 
ENDBRANCH   7  15
BRANCH   1  22
ATOM     21  N   UNL     1       4.036   0.825  18.717  0.00  0.00    +0.000 NA
ATOM     22  C   UNL     1       3.682   1.897  18.978  0.00  0.00    +0.000 C 
ENDBRANCH   1  22
TORSDOF 3
ENDMDL
MODEL 6
REMARK VINA RESULT:      -7.6      2.056      4.459
REMARK  Name = 
REMARK  3 active torsions:
REMARK  status: ('A' for Active; 'I' for Inactive)
REMARK    1  A    between atoms: C_2  and  C_3
REMARK    2  A    between atoms: N_7  and  C_8
REMARK    3  A    between atoms: C_15  and  C_16
REMARK                            x       y       z     vdW  Elec       q    Type
REMARK                         _______ _______ _______ _____ _____    ______ ____
ROOT
ATOM      1  C   UNL     1       3.445   6.193  17.994  0.00  0.00    +0.000 A 
ATOM      2  C   UNL     1       3.635   7.463  17.492  0.00  0.00    +0.000 A 
ATOM      3  N   UNL     1       2.918   8.544  17.863  0.00  0.00    +0.000 NA
ATOM      4  C   UNL     1       2.002   8.353  18.817  0.00  0.00    +0.000 A 
ATOM      5  N   UNL     1       1.214   9.442  19.172  0.00  0.00    +0.000 N 
ATOM      6  N   UNL     1       1.778   7.159  19.387  0.00  0.00    +0.000 NA
ATOM      7  C   UNL     1       2.479   6.074  18.976  0.00  0.00    +0.000 A 
ATOM      8  H   UNL     1       1.399  10.232  18.574  0.00  0.00    +0.000 HD
ENDROOT
BRANCH   5   9
ATOM      9  C   UNL     1       0.671   9.750  20.429  0.00  0.00    +0.000 A 
ATOM     10  C   UNL     1       0.992   9.027  21.586  0.00  0.00    +0.000 A 
ATOM     11  C   UNL     1       0.414   9.344  22.817  0.00  0.00    +0.000 A 
ATOM     12  C   UNL     1      -0.515  10.377  22.902  0.00  0.00    +0.000 A 
ATOM     13  C   UNL     1      -0.858  11.096  21.760  0.00  0.00    +0.000 A 
ATOM     14  C   UNL     1      -0.262  10.788  20.532  0.00  0.00    +0.000 A 
ENDBRANCH   5   9
BRANCH   7  15
ATOM     15  C   UNL     1       2.073   4.820  19.664  0.00  0.00    +0.000 A 
ATOM     16  C   UNL     1       2.429   4.610  21.013  0.00  0.00    +0.000 A 
ATOM     17  C   UNL     1       2.079   3.440  21.696  0.00  0.00    +0.000 A 
ATOM     18  C   UNL     1       1.352   2.450  21.044  0.00  0.00    +0.000 A 
ATOM     19  C   UNL     1       0.996   2.622  19.712  0.00  0.00    +0.000 A 
ATOM     20  C   UNL     1       1.365   3.786  19.027  0.00  0.00    +0.000 A 
ENDBRANCH   7  15
BRANCH   1  22
ATOM     21  N   UNL     1       4.851   4.261  17.015  0.00  0.00    +0.000 NA
ATOM     22  C   UNL     1       4.204   5.116  17.454  0.00  0.00    +0.000 C 
ENDBRANCH   1  22
TORSDOF 3
ENDMDL
MODEL 7
REMARK VINA RESULT:      -7.5      2.097      4.417
REMARK  Name = 
REMARK  3 active torsions:
REMARK  status: ('A' for Active; 'I' for Inactive)
REMARK    1  A    between atoms: C_2  and  C_3
REMARK    2  A    between atoms: N_7  and  C_8
REMARK    3  A    between atoms: C_15  and  C_16
REMARK                            x       y       z     vdW  Elec       q    Type
REMARK                         _______ _______ _______ _____ _____    ______ ____
ROOT
ATOM      1  C   UNL     1       3.416   6.359  18.032  0.00  0.00    +0.000 A 
ATOM      2  C   UNL     1       3.551   7.634  17.525  0.00  0.00    +0.000 A 
ATOM      3  N   UNL     1       2.788   8.685  17.892  0.00  0.00    +0.000 NA
ATOM      4  C   UNL     1       1.879   8.458  18.845  0.00  0.00    +0.000 A 
ATOM      5  N   UNL     1       1.044   9.512  19.195  0.00  0.00    +0.000 N 
ATOM      6  N   UNL     1       1.707   7.257  19.420  0.00  0.00    +0.000 NA
ATOM      7  C   UNL     1       2.454   6.202  19.014  0.00  0.00    +0.000 A 
ATOM      8  H   UNL     1       1.196  10.308  18.594  0.00  0.00    +0.000 HD
ENDROOT
BRANCH   5   9
ATOM      9  C   UNL     1       0.487   9.802  20.450  0.00  0.00    +0.000 A 
ATOM     10  C   UNL     1      -0.406  10.865  20.650  0.00  0.00    +0.000 A 
ATOM     11  C   UNL     1      -0.923  11.142  21.917  0.00  0.00    +0.000 A 
ATOM     12  C   UNL     1      -0.533  10.372  23.010  0.00  0.00    +0.000 A 
ATOM     13  C   UNL     1       0.365   9.322  22.832  0.00  0.00    +0.000 A 
ATOM     14  C   UNL     1       0.865   9.035  21.558  0.00  0.00    +0.000 A 
ENDBRANCH   5   9
BRANCH   7  15
ATOM     15  C   UNL     1       2.102   4.935  19.707  0.00  0.00    +0.000 A 
ATOM     16  C   UNL     1       1.380   3.934  19.021  0.00  0.00    +0.000 A 
ATOM     17  C   UNL     1       1.017   2.732  19.638  0.00  0.00    +0.000 A 
ATOM     18  C   UNL     1       1.375   2.497  20.960  0.00  0.00    +0.000 A 
ATOM     19  C   UNL     1       2.076   3.467  21.666  0.00  0.00    +0.000 A 
ATOM     20  C   UNL     1       2.421   4.677  21.051  0.00  0.00    +0.000 A 
ENDBRANCH   7  15
BRANCH   1  22
ATOM     21  N   UNL     1       4.892   4.459  17.096  0.00  0.00    +0.000 NA
ATOM     22  C   UNL     1       4.222   5.314  17.498  0.00  0.00    +0.000 C 
ENDBRANCH   1  22
TORSDOF 3
ENDMDL
MODEL 8
REMARK VINA RESULT:      -7.5      2.075      4.502
REMARK  Name = 
REMARK  3 active torsions:
REMARK  status: ('A' for Active; 'I' for Inactive)
REMARK    1  A    between atoms: C_2  and  C_3
REMARK    2  A    between atoms: N_7  and  C_8
REMARK    3  A    between atoms: C_15  and  C_16
REMARK                            x       y       z     vdW  Elec       q    Type
REMARK                         _______ _______ _______ _____ _____    ______ ____
ROOT
ATOM      1  C   UNL     1       3.443   6.280  18.009  0.00  0.00    +0.000 A 
ATOM      2  C   UNL     1       3.616   7.555  17.514  0.00  0.00    +0.000 A 
ATOM      3  N   UNL     1       2.872   8.621  17.875  0.00  0.00    +0.000 NA
ATOM      4  C   UNL     1       1.942   8.409  18.812  0.00  0.00    +0.000 A 
ATOM      5  N   UNL     1       1.126   9.480  19.156  0.00  0.00    +0.000 N 
ATOM      6  N   UNL     1       1.732   7.209  19.375  0.00  0.00    +0.000 NA
ATOM      7  C   UNL     1       2.462   6.139  18.974  0.00  0.00    +0.000 A 
ATOM      8  H   UNL     1       1.306  10.276  18.563  0.00  0.00    +0.000 HD
ENDROOT
BRANCH   5   9
ATOM      9  C   UNL     1       0.555   9.774  20.403  0.00  0.00    +0.000 A 
ATOM     10  C   UNL     1      -0.384  10.801  20.577  0.00  0.00    +0.000 A 
ATOM     11  C   UNL     1      -0.915  11.085  21.838  0.00  0.00    +0.000 A 
ATOM     12  C   UNL     1      -0.493  10.359  22.948  0.00  0.00    +0.000 A 
ATOM     13  C   UNL     1       0.450   9.345  22.795  0.00  0.00    +0.000 A 
ATOM     14  C   UNL     1       0.964   9.051  21.528  0.00  0.00    +0.000 A 
ENDBRANCH   5   9
BRANCH   7  15
ATOM     15  C   UNL     1       2.068   4.876  19.652  0.00  0.00    +0.000 A 
ATOM     16  C   UNL     1       2.448   4.646  20.991  0.00  0.00    +0.000 A 
ATOM     17  C   UNL     1       2.111   3.467  21.663  0.00  0.00    +0.000 A 
ATOM     18  C   UNL     1       1.374   2.485  21.010  0.00  0.00    +0.000 A 
ATOM     19  C   UNL     1       0.993   2.676  19.688  0.00  0.00    +0.000 A 
ATOM     20  C   UNL     1       1.350   3.850  19.013  0.00  0.00    +0.000 A 
ENDBRANCH   7  15
BRANCH   1  22
ATOM     21  N   UNL     1       4.848   4.347  17.032  0.00  0.00    +0.000 NA
ATOM     22  C   UNL     1       4.233   5.220  17.481  0.00  0.00    +0.000 C 
ENDBRANCH   1  22
TORSDOF 3
ENDMDL
MODEL 9
REMARK VINA RESULT:      -7.4      2.019      4.252
REMARK  Name = 
REMARK  3 active torsions:
REMARK  status: ('A' for Active; 'I' for Inactive)
REMARK    1  A    between atoms: C_2  and  C_3
REMARK    2  A    between atoms: N_7  and  C_8
REMARK    3  A    between atoms: C_15  and  C_16
REMARK                            x       y       z     vdW  Elec       q    Type
REMARK                         _______ _______ _______ _____ _____    ______ ____
ROOT
ATOM      1  C   UNL     1       4.281   5.897  18.182  0.00  0.00    +0.000 A 
ATOM      2  C   UNL     1       4.675   7.024  17.493  0.00  0.00    +0.000 A 
ATOM      3  N   UNL     1       3.887   8.097  17.273  0.00  0.00    +0.000 NA
ATOM      4  C   UNL     1       2.664   8.059  17.811  0.00  0.00    +0.000 A 
ATOM      5  N   UNL     1       1.817   9.129  17.547  0.00  0.00    +0.000 N 
ATOM      6  N   UNL     1       2.213   7.019  18.529  0.00  0.00    +0.000 NA
ATOM      7  C   UNL     1       3.002   5.930  18.709  0.00  0.00    +0.000 A 
ATOM      8  H   UNL     1       2.238   9.769  16.891  0.00  0.00    +0.000 HD
ENDROOT
BRANCH   5   9
ATOM      9  C   UNL     1       0.825   9.678  18.373  0.00  0.00    +0.000 A 
ATOM     10  C   UNL     1      -0.476   9.935  17.918  0.00  0.00    +0.000 A 
ATOM     11  C   UNL     1      -1.433  10.506  18.759  0.00  0.00    +0.000 A 
ATOM     12  C   UNL     1      -1.093  10.852  20.064  0.00  0.00    +0.000 A 
ATOM     13  C   UNL     1       0.199  10.617  20.528  0.00  0.00    +0.000 A 
ATOM     14  C   UNL     1       1.149  10.027  19.689  0.00  0.00    +0.000 A 
ENDBRANCH   5   9
BRANCH   7  15
ATOM     15  C   UNL     1       2.336   4.845  19.475  0.00  0.00    +0.000 A 
ATOM     16  C   UNL     1       2.610   4.682  20.849  0.00  0.00    +0.000 A 
ATOM     17  C   UNL     1       2.015   3.667  21.606  0.00  0.00    +0.000 A 
ATOM     18  C   UNL     1       1.121   2.789  21.004  0.00  0.00    +0.000 A 
ATOM     19  C   UNL     1       0.838   2.916  19.649  0.00  0.00    +0.000 A 
ATOM     20  C   UNL     1       1.451   3.922  18.892  0.00  0.00    +0.000 A 
ENDBRANCH   7  15
BRANCH   1  22
ATOM     21  N   UNL     1       5.929   3.915  18.331  0.00  0.00    +0.000 NA
ATOM     22  C   UNL     1       5.174   4.792  18.269  0.00  0.00    +0.000 C 
ENDBRANCH   1  22
TORSDOF 3
ENDMDL
