MODEL 1
REMARK VINA RESULT:      -8.4      0.000      0.000
REMARK  Name = 
REMARK  8 active torsions:
REMARK  status: ('A' for Active; 'I' for Inactive)
REMARK    1  A    between atoms: C_1  and  C_2
REMARK    2  A    between atoms: C_2  and  C_4
REMARK    3  A    between atoms: C_7  and  C_8
REMARK    4  A    between atoms: C_11  and  C_12
REMARK    5  A    between atoms: C_12  and  C_13
REMARK    6  A    between atoms: C_13  and  C_14
REMARK    7  A    between atoms: C_18  and  C_19
REMARK    8  A    between atoms: C_20  and  O_21
REMARK                            x       y       z     vdW  Elec       q    Type
REMARK                         _______ _______ _______ _____ _____    ______ ____
ROOT
ATOM      1  C   UNL     1       1.304   8.514  20.101  0.00  0.00    +0.000 A 
ATOM      2  C   UNL     1       1.815   7.354  20.709  0.00  0.00    +0.000 A 
ATOM      3  C   UNL     1       2.674   6.484  20.021  0.00  0.00    +0.000 A 
ATOM      4  C   UNL     1       3.041   6.741  18.694  0.00  0.00    +0.000 A 
ATOM      5  C   UNL     1       2.523   7.877  18.071  0.00  0.00    +0.000 A 
ATOM      6  C   UNL     1       1.673   8.745  18.763  0.00  0.00    +0.000 A 
ENDROOT
BRANCH   1  10
ATOM      7  C   UNL     1      -0.987  11.448  22.292  0.00  0.00    +0.000 A 
ATOM      8  C   UNL     1      -0.700  10.206  22.864  0.00  0.00    +0.000 A 
ATOM      9  C   UNL     1       0.023   9.247  22.146  0.00  0.00    +0.000 A 
ATOM     10  C   UNL     1       0.461   9.490  20.832  0.00  0.00    +0.000 A 
ATOM     11  C   UNL     1       0.110  10.729  20.259  0.00  0.00    +0.000 A 
ATOM     12  C   UNL     1      -0.591  11.705  20.980  0.00  0.00    +0.000 A 
BRANCH   7  14
ATOM     13  C   UNL     1      -3.125  12.187  23.515  0.00  0.00    +0.000 C 
ATOM     14  C   UNL     1      -1.702  12.461  23.115  0.00  0.00    +0.000 C 
ATOM     15  O   UNL     1      -1.140  13.513  23.409  0.00  0.00    +0.000 OA
ENDBRANCH   7  14
ENDBRANCH   1  10
BRANCH   4  16
ATOM     16  C   UNL     1       3.985   5.821  17.943  0.00  0.00    +0.000 C 
BRANCH  16  17
ATOM     17  C   UNL     1       3.566   4.332  17.797  0.00  0.00    +0.000 C 
ATOM     18  C   UNL     1       4.175   3.744  16.517  0.00  0.00    +0.000 C 
ATOM     19  S   UNL     1       1.741   4.137  17.671  0.00  0.00    +0.000 S 
ATOM     20  C   UNL     1       1.616   3.355  19.229  0.00  0.00    +0.000 C 
ATOM     21  O   UNL     1       0.555   3.040  19.741  0.00  0.00    +0.000 OA
ATOM     22  C   UNL     1       2.943   3.087  19.816  0.00  0.00    +0.000 C 
ATOM     23  C   UNL     1       3.053   2.480  21.167  0.00  0.00    +0.000 C 
ATOM     24  C   UNL     1       3.933   3.535  19.027  0.00  0.00    +0.000 C 
BRANCH  24  25
ATOM     25  O   UNL     1       5.276   3.396  19.305  0.00  0.00    +0.000 OA
ATOM     26  H   UNL     1       5.396   2.724  19.999  0.00  0.00    +0.000 HD
ENDBRANCH  24  25
ENDBRANCH  16  17
ENDBRANCH   4  16
TORSDOF 5
ENDMDL
MODEL 2
REMARK VINA RESULT:      -8.3      1.870      3.428
REMARK  Name = 
REMARK  8 active torsions:
REMARK  status: ('A' for Active; 'I' for Inactive)
REMARK    1  A    between atoms: C_1  and  C_2
REMARK    2  A    between atoms: C_2  and  C_4
REMARK    3  A    between atoms: C_7  and  C_8
REMARK    4  A    between atoms: C_11  and  C_12
REMARK    5  A    between atoms: C_12  and  C_13
REMARK    6  A    between atoms: C_13  and  C_14
REMARK    7  A    between atoms: C_18  and  C_19
REMARK    8  A    between atoms: C_20  and  O_21
REMARK                            x       y       z     vdW  Elec       q    Type
REMARK                         _______ _______ _______ _____ _____    ______ ____
ROOT
ATOM      1  C   UNL     1       1.498   8.371  20.175  0.00  0.00    +0.000 A 
ATOM      2  C   UNL     1       1.902   8.597  18.848  0.00  0.00    +0.000 A 
ATOM      3  C   UNL     1       2.468   7.574  18.071  0.00  0.00    +0.000 A 
ATOM      4  C   UNL     1       2.661   6.294  18.603  0.00  0.00    +0.000 A 
ATOM      5  C   UNL     1       2.286   6.063  19.928  0.00  0.00    +0.000 A 
ATOM      6  C   UNL     1       1.715   7.082  20.695  0.00  0.00    +0.000 A 
ENDROOT
BRANCH   1  10
ATOM      7  C   UNL     1      -0.637  11.353  22.457  0.00  0.00    +0.000 A 
ATOM      8  C   UNL     1       0.050  11.713  21.294  0.00  0.00    +0.000 A 
ATOM      9  C   UNL     1       0.760  10.751  20.567  0.00  0.00    +0.000 A 
ATOM     10  C   UNL     1       0.824   9.411  20.989  0.00  0.00    +0.000 A 
ATOM     11  C   UNL     1       0.169   9.088  22.194  0.00  0.00    +0.000 A 
ATOM     12  C   UNL     1      -0.567  10.038  22.915  0.00  0.00    +0.000 A 
BRANCH   7  14
ATOM     13  C   UNL     1      -2.916  12.195  23.301  0.00  0.00    +0.000 C 
ATOM     14  C   UNL     1      -1.432  12.394  23.162  0.00  0.00    +0.000 C 
ATOM     15  O   UNL     1      -0.876  13.410  23.573  0.00  0.00    +0.000 OA
ENDBRANCH   7  14
ENDBRANCH   1  10
BRANCH   4  16
ATOM     16  C   UNL     1       3.253   5.172  17.770  0.00  0.00    +0.000 C 
BRANCH  16  17
ATOM     17  C   UNL     1       4.732   4.785  18.042  0.00  0.00    +0.000 C 
ATOM     18  C   UNL     1       4.820   3.934  19.317  0.00  0.00    +0.000 C 
ATOM     19  S   UNL     1       5.798   6.263  18.301  0.00  0.00    +0.000 S 
ATOM     20  C   UNL     1       6.677   6.014  16.810  0.00  0.00    +0.000 C 
ATOM     21  O   UNL     1       7.524   6.785  16.391  0.00  0.00    +0.000 OA
ATOM     22  C   UNL     1       6.300   4.745  16.158  0.00  0.00    +0.000 C 
ATOM     23  C   UNL     1       6.893   4.376  14.846  0.00  0.00    +0.000 C 
ATOM     24  C   UNL     1       5.350   4.095  16.847  0.00  0.00    +0.000 C 
BRANCH  24  25
ATOM     25  O   UNL     1       4.827   2.870  16.493  0.00  0.00    +0.000 OA
ATOM     26  H   UNL     1       4.041   3.003  15.933  0.00  0.00    +0.000 HD
ENDBRANCH  24  25
ENDBRANCH  16  17
ENDBRANCH   4  16
TORSDOF 5
ENDMDL
MODEL 3
REMARK VINA RESULT:      -8.2      1.322      1.825
REMARK  Name = 
REMARK  8 active torsions:
REMARK  status: ('A' for Active; 'I' for Inactive)
REMARK    1  A    between atoms: C_1  and  C_2
REMARK    2  A    between atoms: C_2  and  C_4
REMARK    3  A    between atoms: C_7  and  C_8
REMARK    4  A    between atoms: C_11  and  C_12
REMARK    5  A    between atoms: C_12  and  C_13
REMARK    6  A    between atoms: C_13  and  C_14
REMARK    7  A    between atoms: C_18  and  C_19
REMARK    8  A    between atoms: C_20  and  O_21
REMARK                            x       y       z     vdW  Elec       q    Type
REMARK                         _______ _______ _______ _____ _____    ______ ____
ROOT
ATOM      1  C   UNL     1       1.354   8.902  19.096  0.00  0.00    +0.000 A 
ATOM      2  C   UNL     1       1.991   8.850  17.843  0.00  0.00    +0.000 A 
ATOM      3  C   UNL     1       2.927   7.850  17.539  0.00  0.00    +0.000 A 
ATOM      4  C   UNL     1       3.268   6.876  18.485  0.00  0.00    +0.000 A 
ATOM      5  C   UNL     1       2.660   6.930  19.741  0.00  0.00    +0.000 A 
ATOM      6  C   UNL     1       1.722   7.923  20.037  0.00  0.00    +0.000 A 
ENDROOT
BRANCH   1  10
ATOM      7  C   UNL     1      -1.580  11.949  19.969  0.00  0.00    +0.000 A 
ATOM      8  C   UNL     1      -0.795  11.413  20.993  0.00  0.00    +0.000 A 
ATOM      9  C   UNL     1       0.141  10.410  20.714  0.00  0.00    +0.000 A 
ATOM     10  C   UNL     1       0.303   9.899  19.413  0.00  0.00    +0.000 A 
ATOM     11  C   UNL     1      -0.540  10.418  18.412  0.00  0.00    +0.000 A 
ATOM     12  C   UNL     1      -1.461  11.441  18.676  0.00  0.00    +0.000 A 
BRANCH   7  14
ATOM     13  C   UNL     1      -3.993  12.781  20.281  0.00  0.00    +0.000 C 
ATOM     14  C   UNL     1      -2.515  13.058  20.300  0.00  0.00    +0.000 C 
ATOM     15  O   UNL     1      -2.072  14.180  20.532  0.00  0.00    +0.000 OA
ENDBRANCH   7  14
ENDBRANCH   1  10
BRANCH   4  16
ATOM     16  C   UNL     1       4.263   5.776  18.164  0.00  0.00    +0.000 C 
BRANCH  16  17
ATOM     17  C   UNL     1       3.705   4.337  17.993  0.00  0.00    +0.000 C 
ATOM     18  C   UNL     1       4.274   3.708  16.713  0.00  0.00    +0.000 C 
ATOM     19  S   UNL     1       1.871   4.320  17.838  0.00  0.00    +0.000 S 
ATOM     20  C   UNL     1       1.647   3.535  19.383  0.00  0.00    +0.000 C 
ATOM     21  O   UNL     1       0.553   3.317  19.876  0.00  0.00    +0.000 OA
ATOM     22  C   UNL     1       2.934   3.133  19.985  0.00  0.00    +0.000 C 
ATOM     23  C   UNL     1       2.964   2.502  21.329  0.00  0.00    +0.000 C 
ATOM     24  C   UNL     1       3.974   3.493  19.217  0.00  0.00    +0.000 C 
BRANCH  24  25
ATOM     25  O   UNL     1       5.293   3.221  19.512  0.00  0.00    +0.000 OA
ATOM     26  H   UNL     1       5.868   3.653  18.855  0.00  0.00    +0.000 HD
ENDBRANCH  24  25
ENDBRANCH  16  17
ENDBRANCH   4  16
TORSDOF 5
ENDMDL
MODEL 4
REMARK VINA RESULT:      -8.1      1.395      2.033
REMARK  Name = 
REMARK  8 active torsions:
REMARK  status: ('A' for Active; 'I' for Inactive)
REMARK    1  A    between atoms: C_1  and  C_2
REMARK    2  A    between atoms: C_2  and  C_4
REMARK    3  A    between atoms: C_7  and  C_8
REMARK    4  A    between atoms: C_11  and  C_12
REMARK    5  A    between atoms: C_12  and  C_13
REMARK    6  A    between atoms: C_13  and  C_14
REMARK    7  A    between atoms: C_18  and  C_19
REMARK    8  A    between atoms: C_20  and  O_21
REMARK                            x       y       z     vdW  Elec       q    Type
REMARK                         _______ _______ _______ _____ _____    ______ ____
ROOT
ATOM      1  C   UNL     1       1.405   8.937  19.074  0.00  0.00    +0.000 A 
ATOM      2  C   UNL     1       2.040   8.873  17.822  0.00  0.00    +0.000 A 
ATOM      3  C   UNL     1       2.955   7.854  17.516  0.00  0.00    +0.000 A 
ATOM      4  C   UNL     1       3.275   6.872  18.461  0.00  0.00    +0.000 A 
ATOM      5  C   UNL     1       2.669   6.937  19.717  0.00  0.00    +0.000 A 
ATOM      6  C   UNL     1       1.753   7.950  20.014  0.00  0.00    +0.000 A 
ENDROOT
BRANCH   1  10
ATOM      7  C   UNL     1      -1.699  11.761  20.097  0.00  0.00    +0.000 A 
ATOM      8  C   UNL     1      -1.692  11.144  18.843  0.00  0.00    +0.000 A 
ATOM      9  C   UNL     1      -0.674  10.245  18.504  0.00  0.00    +0.000 A 
ATOM     10  C   UNL     1       0.375   9.955  19.394  0.00  0.00    +0.000 A 
ATOM     11  C   UNL     1       0.374  10.634  20.628  0.00  0.00    +0.000 A 
ATOM     12  C   UNL     1      -0.656  11.514  20.988  0.00  0.00    +0.000 A 
BRANCH   7  14
ATOM     13  C   UNL     1      -2.681  13.603  21.599  0.00  0.00    +0.000 C 
ATOM     14  C   UNL     1      -2.835  12.659  20.439  0.00  0.00    +0.000 C 
ATOM     15  O   UNL     1      -3.886  12.580  19.807  0.00  0.00    +0.000 OA
ENDBRANCH   7  14
ENDBRANCH   1  10
BRANCH   4  16
ATOM     16  C   UNL     1       4.247   5.752  18.138  0.00  0.00    +0.000 C 
BRANCH  16  17
ATOM     17  C   UNL     1       3.660   4.323  17.977  0.00  0.00    +0.000 C 
ATOM     18  C   UNL     1       4.229   3.667  16.711  0.00  0.00    +0.000 C 
ATOM     19  S   UNL     1       1.829   4.343  17.803  0.00  0.00    +0.000 S 
ATOM     20  C   UNL     1       1.572   3.580  19.355  0.00  0.00    +0.000 C 
ATOM     21  O   UNL     1       0.469   3.391  19.839  0.00  0.00    +0.000 OA
ATOM     22  C   UNL     1       2.844   3.159  19.975  0.00  0.00    +0.000 C 
ATOM     23  C   UNL     1       2.847   2.542  21.326  0.00  0.00    +0.000 C 
ATOM     24  C   UNL     1       3.899   3.487  19.214  0.00  0.00    +0.000 C 
BRANCH  24  25
ATOM     25  O   UNL     1       5.209   3.191  19.525  0.00  0.00    +0.000 OA
ATOM     26  H   UNL     1       5.773   3.957  19.315  0.00  0.00    +0.000 HD
ENDBRANCH  24  25
ENDBRANCH  16  17
ENDBRANCH   4  16
TORSDOF 5
ENDMDL
MODEL 5
REMARK VINA RESULT:      -8.1      1.160      1.543
REMARK  Name = 
REMARK  8 active torsions:
REMARK  status: ('A' for Active; 'I' for Inactive)
REMARK    1  A    between atoms: C_1  and  C_2
REMARK    2  A    between atoms: C_2  and  C_4
REMARK    3  A    between atoms: C_7  and  C_8
REMARK    4  A    between atoms: C_11  and  C_12
REMARK    5  A    between atoms: C_12  and  C_13
REMARK    6  A    between atoms: C_13  and  C_14
REMARK    7  A    between atoms: C_18  and  C_19
REMARK    8  A    between atoms: C_20  and  O_21
REMARK                            x       y       z     vdW  Elec       q    Type
REMARK                         _______ _______ _______ _____ _____    ______ ____
ROOT
ATOM      1  C   UNL     1       1.286   8.917  19.254  0.00  0.00    +0.000 A 
ATOM      2  C   UNL     1       1.673   7.909  20.154  0.00  0.00    +0.000 A 
ATOM      3  C   UNL     1       2.602   6.922  19.791  0.00  0.00    +0.000 A 
ATOM      4  C   UNL     1       3.165   6.904  18.509  0.00  0.00    +0.000 A 
ATOM      5  C   UNL     1       2.771   7.886  17.598  0.00  0.00    +0.000 A 
ATOM      6  C   UNL     1       1.851   8.871  17.967  0.00  0.00    +0.000 A 
ENDROOT
BRANCH   1  10
ATOM      7  C   UNL     1      -1.496  11.989  20.473  0.00  0.00    +0.000 A 
ATOM      8  C   UNL     1      -1.623  11.379  19.223  0.00  0.00    +0.000 A 
ATOM      9  C   UNL     1      -0.709  10.399  18.818  0.00  0.00    +0.000 A 
ATOM     10  C   UNL     1       0.368  10.017  19.638  0.00  0.00    +0.000 A 
ATOM     11  C   UNL     1       0.505  10.688  20.870  0.00  0.00    +0.000 A 
ATOM     12  C   UNL     1      -0.421  11.651  21.294  0.00  0.00    +0.000 A 
BRANCH   7  14
ATOM     13  C   UNL     1      -3.907  12.866  20.301  0.00  0.00    +0.000 C 
ATOM     14  C   UNL     1      -2.527  12.977  20.888  0.00  0.00    +0.000 C 
ATOM     15  O   UNL     1      -2.225  13.886  21.657  0.00  0.00    +0.000 OA
ENDBRANCH   7  14
ENDBRANCH   1  10
BRANCH   4  16
ATOM     16  C   UNL     1       4.186   5.856  18.109  0.00  0.00    +0.000 C 
BRANCH  16  17
ATOM     17  C   UNL     1       3.679   4.399  17.927  0.00  0.00    +0.000 C 
ATOM     18  C   UNL     1       4.279   3.795  16.649  0.00  0.00    +0.000 C 
ATOM     19  S   UNL     1       1.849   4.319  17.759  0.00  0.00    +0.000 S 
ATOM     20  C   UNL     1       1.641   3.520  19.300  0.00  0.00    +0.000 C 
ATOM     21  O   UNL     1       0.552   3.262  19.783  0.00  0.00    +0.000 OA
ATOM     22  C   UNL     1       2.937   3.161  19.909  0.00  0.00    +0.000 C 
ATOM     23  C   UNL     1       2.979   2.524  21.251  0.00  0.00    +0.000 C 
ATOM     24  C   UNL     1       3.970   3.559  19.150  0.00  0.00    +0.000 C 
BRANCH  24  25
ATOM     25  O   UNL     1       5.295   3.332  19.453  0.00  0.00    +0.000 OA
ATOM     26  H   UNL     1       5.439   3.474  20.405  0.00  0.00    +0.000 HD
ENDBRANCH  24  25
ENDBRANCH  16  17
ENDBRANCH   4  16
TORSDOF 5
ENDMDL
MODEL 6
REMARK VINA RESULT:      -8.1      0.842      1.249
REMARK  Name = 
REMARK  8 active torsions:
REMARK  status: ('A' for Active; 'I' for Inactive)
REMARK    1  A    between atoms: C_1  and  C_2
REMARK    2  A    between atoms: C_2  and  C_4
REMARK    3  A    between atoms: C_7  and  C_8
REMARK    4  A    between atoms: C_11  and  C_12
REMARK    5  A    between atoms: C_12  and  C_13
REMARK    6  A    between atoms: C_13  and  C_14
REMARK    7  A    between atoms: C_18  and  C_19
REMARK    8  A    between atoms: C_20  and  O_21
REMARK                            x       y       z     vdW  Elec       q    Type
REMARK                         _______ _______ _______ _____ _____    ______ ____
ROOT
ATOM      1  C   UNL     1       1.316   8.737  19.779  0.00  0.00    +0.000 A 
ATOM      2  C   UNL     1       1.776   7.627  20.508  0.00  0.00    +0.000 A 
ATOM      3  C   UNL     1       2.661   6.697  19.944  0.00  0.00    +0.000 A 
ATOM      4  C   UNL     1       3.106   6.840  18.624  0.00  0.00    +0.000 A 
ATOM      5  C   UNL     1       2.639   7.925  17.881  0.00  0.00    +0.000 A 
ATOM      6  C   UNL     1       1.762   8.854  18.450  0.00  0.00    +0.000 A 
ENDROOT
BRANCH   1  10
ATOM      7  C   UNL     1      -1.364  11.629  21.544  0.00  0.00    +0.000 A 
ATOM      8  C   UNL     1      -1.252  11.527  20.154  0.00  0.00    +0.000 A 
ATOM      9  C   UNL     1      -0.368  10.605  19.582  0.00  0.00    +0.000 A 
ATOM     10  C   UNL     1       0.445   9.777  20.378  0.00  0.00    +0.000 A 
ATOM     11  C   UNL     1       0.352   9.940  21.774  0.00  0.00    +0.000 A 
ATOM     12  C   UNL     1      -0.550  10.841  22.356  0.00  0.00    +0.000 A 
BRANCH   7  14
ATOM     13  C   UNL     1      -1.982  13.390  23.313  0.00  0.00    +0.000 C 
ATOM     14  C   UNL     1      -2.364  12.576  22.107  0.00  0.00    +0.000 C 
ATOM     15  O   UNL     1      -3.487  12.641  21.614  0.00  0.00    +0.000 OA
ENDBRANCH   7  14
ENDBRANCH   1  10
BRANCH   4  16
ATOM     16  C   UNL     1       4.080   5.853  18.006  0.00  0.00    +0.000 C 
BRANCH  16  17
ATOM     17  C   UNL     1       3.609   4.380  17.864  0.00  0.00    +0.000 C 
ATOM     18  C   UNL     1       4.205   3.764  16.590  0.00  0.00    +0.000 C 
ATOM     19  S   UNL     1       1.779   4.249  17.727  0.00  0.00    +0.000 S 
ATOM     20  C   UNL     1       1.617   3.478  19.288  0.00  0.00    +0.000 C 
ATOM     21  O   UNL     1       0.542   3.203  19.795  0.00  0.00    +0.000 OA
ATOM     22  C   UNL     1       2.930   3.167  19.884  0.00  0.00    +0.000 C 
ATOM     23  C   UNL     1       3.011   2.562  21.239  0.00  0.00    +0.000 C 
ATOM     24  C   UNL     1       3.941   3.576  19.100  0.00  0.00    +0.000 C 
BRANCH  24  25
ATOM     25  O   UNL     1       5.276   3.390  19.386  0.00  0.00    +0.000 OA
ATOM     26  H   UNL     1       5.815   3.925  18.777  0.00  0.00    +0.000 HD
ENDBRANCH  24  25
ENDBRANCH  16  17
ENDBRANCH   4  16
TORSDOF 5
ENDMDL
MODEL 7
REMARK VINA RESULT:      -8.0      2.003      3.402
REMARK  Name = 
REMARK  8 active torsions:
REMARK  status: ('A' for Active; 'I' for Inactive)
REMARK    1  A    between atoms: C_1  and  C_2
REMARK    2  A    between atoms: C_2  and  C_4
REMARK    3  A    between atoms: C_7  and  C_8
REMARK    4  A    between atoms: C_11  and  C_12
REMARK    5  A    between atoms: C_12  and  C_13
REMARK    6  A    between atoms: C_13  and  C_14
REMARK    7  A    between atoms: C_18  and  C_19
REMARK    8  A    between atoms: C_20  and  O_21
REMARK                            x       y       z     vdW  Elec       q    Type
REMARK                         _______ _______ _______ _____ _____    ______ ____
ROOT
ATOM      1  C   UNL     1       1.429   8.123  20.006  0.00  0.00    +0.000 A 
ATOM      2  C   UNL     1       1.660   6.836  20.522  0.00  0.00    +0.000 A 
ATOM      3  C   UNL     1       2.311   5.850  19.764  0.00  0.00    +0.000 A 
ATOM      4  C   UNL     1       2.739   6.116  18.458  0.00  0.00    +0.000 A 
ATOM      5  C   UNL     1       2.495   7.384  17.926  0.00  0.00    +0.000 A 
ATOM      6  C   UNL     1       1.854   8.365  18.687  0.00  0.00    +0.000 A 
ENDROOT
BRANCH   1  10
ATOM      7  C   UNL     1      -0.526  11.239  22.270  0.00  0.00    +0.000 A 
ATOM      8  C   UNL     1       0.181  11.551  21.106  0.00  0.00    +0.000 A 
ATOM      9  C   UNL     1       0.833  10.544  20.384  0.00  0.00    +0.000 A 
ATOM     10  C   UNL     1       0.817   9.206  20.814  0.00  0.00    +0.000 A 
ATOM     11  C   UNL     1       0.144   8.928  22.020  0.00  0.00    +0.000 A 
ATOM     12  C   UNL     1      -0.534   9.925  22.736  0.00  0.00    +0.000 A 
BRANCH   7  14
ATOM     13  C   UNL     1      -2.659  12.064  23.448  0.00  0.00    +0.000 C 
ATOM     14  C   UNL     1      -1.258  12.330  22.969  0.00  0.00    +0.000 C 
ATOM     15  O   UNL     1      -0.730  13.431  23.100  0.00  0.00    +0.000 OA
ENDBRANCH   7  14
ENDBRANCH   1  10
BRANCH   4  16
ATOM     16  C   UNL     1       3.462   5.068  17.634  0.00  0.00    +0.000 C 
BRANCH  16  17
ATOM     17  C   UNL     1       4.955   4.801  17.969  0.00  0.00    +0.000 C 
ATOM     18  C   UNL     1       5.056   3.887  19.198  0.00  0.00    +0.000 C 
ATOM     19  S   UNL     1       5.862   6.351  18.368  0.00  0.00    +0.000 S 
ATOM     20  C   UNL     1       6.837   6.273  16.919  0.00  0.00    +0.000 C 
ATOM     21  O   UNL     1       7.627   7.142  16.591  0.00  0.00    +0.000 OA
ATOM     22  C   UNL     1       6.615   5.016  16.177  0.00  0.00    +0.000 C 
ATOM     23  C   UNL     1       7.307   4.781  14.884  0.00  0.00    +0.000 C 
ATOM     24  C   UNL     1       5.695   4.243  16.775  0.00  0.00    +0.000 C 
BRANCH  24  25
ATOM     25  O   UNL     1       5.309   2.999  16.325  0.00  0.00    +0.000 OA
ATOM     26  H   UNL     1       4.338   2.961  16.270  0.00  0.00    +0.000 HD
ENDBRANCH  24  25
ENDBRANCH  16  17
ENDBRANCH   4  16
TORSDOF 5
ENDMDL
MODEL 8
REMARK VINA RESULT:      -8.0      0.736      1.211
REMARK  Name = 
REMARK  8 active torsions:
REMARK  status: ('A' for Active; 'I' for Inactive)
REMARK    1  A    between atoms: C_1  and  C_2
REMARK    2  A    between atoms: C_2  and  C_4
REMARK    3  A    between atoms: C_7  and  C_8
REMARK    4  A    between atoms: C_11  and  C_12
REMARK    5  A    between atoms: C_12  and  C_13
REMARK    6  A    between atoms: C_13  and  C_14
REMARK    7  A    between atoms: C_18  and  C_19
REMARK    8  A    between atoms: C_20  and  O_21
REMARK                            x       y       z     vdW  Elec       q    Type
REMARK                         _______ _______ _______ _____ _____    ______ ____
ROOT
ATOM      1  C   UNL     1       1.358   8.718  19.695  0.00  0.00    +0.000 A 
ATOM      2  C   UNL     1       1.821   8.819  18.372  0.00  0.00    +0.000 A 
ATOM      3  C   UNL     1       2.703   7.871  17.831  0.00  0.00    +0.000 A 
ATOM      4  C   UNL     1       3.162   6.797  18.603  0.00  0.00    +0.000 A 
ATOM      5  C   UNL     1       2.728   6.698  19.926  0.00  0.00    +0.000 A 
ATOM      6  C   UNL     1       1.843   7.641  20.458  0.00  0.00    +0.000 A 
ENDROOT
BRANCH   1  10
ATOM      7  C   UNL     1      -1.394  11.600  21.364  0.00  0.00    +0.000 A 
ATOM      8  C   UNL     1      -0.769  10.662  22.190  0.00  0.00    +0.000 A 
ATOM      9  C   UNL     1       0.107   9.714  21.646  0.00  0.00    +0.000 A 
ATOM     10  C   UNL     1       0.364   9.660  20.264  0.00  0.00    +0.000 A 
ATOM     11  C   UNL     1      -0.323  10.581  19.449  0.00  0.00    +0.000 A 
ATOM     12  C   UNL     1      -1.180  11.551  19.987  0.00  0.00    +0.000 A 
BRANCH   7  14
ATOM     13  C   UNL     1      -2.814  12.364  23.367  0.00  0.00    +0.000 C 
ATOM     14  C   UNL     1      -2.265  12.629  21.992  0.00  0.00    +0.000 C 
ATOM     15  O   UNL     1      -2.557  13.645  21.366  0.00  0.00    +0.000 OA
ENDBRANCH   7  14
ENDBRANCH   1  10
BRANCH   4  16
ATOM     16  C   UNL     1       4.099   5.752  18.027  0.00  0.00    +0.000 C 
BRANCH  16  17
ATOM     17  C   UNL     1       3.559   4.301  17.901  0.00  0.00    +0.000 C 
ATOM     18  C   UNL     1       4.116   3.648  16.627  0.00  0.00    +0.000 C 
ATOM     19  S   UNL     1       1.724   4.254  17.778  0.00  0.00    +0.000 S 
ATOM     20  C   UNL     1       1.538   3.505  19.347  0.00  0.00    +0.000 C 
ATOM     21  O   UNL     1       0.456   3.284  19.864  0.00  0.00    +0.000 OA
ATOM     22  C   UNL     1       2.841   3.137  19.936  0.00  0.00    +0.000 C 
ATOM     23  C   UNL     1       2.903   2.540  21.295  0.00  0.00    +0.000 C 
ATOM     24  C   UNL     1       3.863   3.492  19.141  0.00  0.00    +0.000 C 
BRANCH  24  25
ATOM     25  O   UNL     1       5.190   3.247  19.419  0.00  0.00    +0.000 OA
ATOM     26  H   UNL     1       5.469   2.427  18.974  0.00  0.00    +0.000 HD
ENDBRANCH  24  25
ENDBRANCH  16  17
ENDBRANCH   4  16
TORSDOF 5
ENDMDL
MODEL 9
REMARK VINA RESULT:      -7.9      0.943      1.066
REMARK  Name = 
REMARK  8 active torsions:
REMARK  status: ('A' for Active; 'I' for Inactive)
REMARK    1  A    between atoms: C_1  and  C_2
REMARK    2  A    between atoms: C_2  and  C_4
REMARK    3  A    between atoms: C_7  and  C_8
REMARK    4  A    between atoms: C_11  and  C_12
REMARK    5  A    between atoms: C_12  and  C_13
REMARK    6  A    between atoms: C_13  and  C_14
REMARK    7  A    between atoms: C_18  and  C_19
REMARK    8  A    between atoms: C_20  and  O_21
REMARK                            x       y       z     vdW  Elec       q    Type
REMARK                         _______ _______ _______ _____ _____    ______ ____
ROOT
ATOM      1  C   UNL     1       1.212   8.782  19.643  0.00  0.00    +0.000 A 
ATOM      2  C   UNL     1       1.672   7.714  20.433  0.00  0.00    +0.000 A 
ATOM      3  C   UNL     1       2.602   6.786  19.939  0.00  0.00    +0.000 A 
ATOM      4  C   UNL     1       3.092   6.889  18.632  0.00  0.00    +0.000 A 
ATOM      5  C   UNL     1       2.625   7.932  17.829  0.00  0.00    +0.000 A 
ATOM      6  C   UNL     1       1.705   8.858  18.328  0.00  0.00    +0.000 A 
ENDROOT
BRANCH   1  10
ATOM      7  C   UNL     1      -1.322  11.943  21.141  0.00  0.00    +0.000 A 
ATOM      8  C   UNL     1      -0.595  11.143  22.026  0.00  0.00    +0.000 A 
ATOM      9  C   UNL     1       0.209  10.104  21.542  0.00  0.00    +0.000 A 
ATOM     10  C   UNL     1       0.293   9.821  20.168  0.00  0.00    +0.000 A 
ATOM     11  C   UNL     1      -0.494  10.607  19.303  0.00  0.00    +0.000 A 
ATOM     12  C   UNL     1      -1.281  11.666  19.775  0.00  0.00    +0.000 A 
BRANCH   7  14
ATOM     13  C   UNL     1      -1.383  14.176  22.416  0.00  0.00    +0.000 C 
ATOM     14  C   UNL     1      -2.112  13.076  21.694  0.00  0.00    +0.000 C 
ATOM     15  O   UNL     1      -3.336  13.070  21.596  0.00  0.00    +0.000 OA
ENDBRANCH   7  14
ENDBRANCH   1  10
BRANCH   4  16
ATOM     16  C   UNL     1       4.113   5.906  18.090  0.00  0.00    +0.000 C 
BRANCH  16  17
ATOM     17  C   UNL     1       3.654   4.434  17.899  0.00  0.00    +0.000 C 
ATOM     18  C   UNL     1       4.270   3.861  16.614  0.00  0.00    +0.000 C 
ATOM     19  S   UNL     1       1.827   4.295  17.735  0.00  0.00    +0.000 S 
ATOM     20  C   UNL     1       1.651   3.477  19.270  0.00  0.00    +0.000 C 
ATOM     21  O   UNL     1       0.572   3.180  19.755  0.00  0.00    +0.000 OA
ATOM     22  C   UNL     1       2.959   3.157  19.873  0.00  0.00    +0.000 C 
ATOM     23  C   UNL     1       3.027   2.512  21.210  0.00  0.00    +0.000 C 
ATOM     24  C   UNL     1       3.976   3.596  19.114  0.00  0.00    +0.000 C 
BRANCH  24  25
ATOM     25  O   UNL     1       5.309   3.411  19.412  0.00  0.00    +0.000 OA
ATOM     26  H   UNL     1       5.831   3.434  18.590  0.00  0.00    +0.000 HD
ENDBRANCH  24  25
ENDBRANCH  16  17
ENDBRANCH   4  16
TORSDOF 5
ENDMDL
