MODEL 1
REMARK VINA RESULT:      -6.9      0.000      0.000
REMARK  Name = 
REMARK  15 active torsions:
REMARK  status: ('A' for Active; 'I' for Inactive)
REMARK    1  A    between atoms: C_1  and  C_2
REMARK    2  A    between atoms: C_2  and  C_3
REMARK    3  A    between atoms: C_3  and  C_4
REMARK    4  A    between atoms: C_4  and  C_5
REMARK    5  A    between atoms: C_4  and  N_13
REMARK    6  A    between atoms: N_7  and  C_8
REMARK    7  A    between atoms: C_8  and  C_9
REMARK    8  A    between atoms: C_9  and  C_10
REMARK    9  A    between atoms: C_10  and  C_11
REMARK   10  A    between atoms: C_10  and  C_12
REMARK   11  A    between atoms: N_13  and  C_14
REMARK   12  A    between atoms: C_14  and  C_15
REMARK   13  A    between atoms: C_22  and  C_24
REMARK   14  A    between atoms: C_27  and  C_28
REMARK   15  A    between atoms: C_31  and  N_32
REMARK                            x       y       z     vdW  Elec       q    Type
REMARK                         _______ _______ _______ _____ _____    ______ ____
ROOT
ATOM      1  N   UNL     1       3.483   6.167  18.149  0.00  0.00    +0.000 N 
ATOM      2  C   UNL     1       3.390   7.573  18.340  0.00  0.00    +0.000 C 
ATOM      3  O   UNL     1       4.352   8.266  18.006  0.00  0.00    +0.000 OA
ENDROOT
BRANCH   2   4
ATOM      4  C   UNL     1       2.216   8.215  18.921  0.00  0.00    +0.000 A 
ATOM      5  S   UNL     1       1.578   7.853  20.465  0.00  0.00    +0.000 S 
ATOM      6  N   UNL     1       0.379   8.988  20.483  0.00  0.00    +0.000 NA
ATOM      7  C   UNL     1       0.502   9.764  19.394  0.00  0.00    +0.000 A 
ATOM      8  C   UNL     1       1.541   9.344  18.473  0.00  0.00    +0.000 A 
BRANCH   7   9
ATOM      9  C   UNL     1      -0.343  10.958  19.211  0.00  0.00    +0.000 C 
ATOM     10  N   UNL     1      -0.366  11.845  20.259  0.00  0.00    +0.000 N 
ATOM     11  O   UNL     1      -0.981  11.195  18.196  0.00  0.00    +0.000 OA
ATOM     12  H   UNL     1       0.169  11.673  21.096  0.00  0.00    +0.000 HD
ATOM     13  H   UNL     1      -0.918  12.687  20.159  0.00  0.00    +0.000 HD
ENDBRANCH   7   9
BRANCH   8  14
ATOM     14  N   UNL     1       1.827   9.995  17.316  0.00  0.00    +0.000 N 
ATOM     15  H   UNL     1       1.084  10.122  16.620  0.00  0.00    +0.000 HD
ATOM     16  H   UNL     1       2.540  10.721  17.279  0.00  0.00    +0.000 HD
ENDBRANCH   8  14
ENDBRANCH   2   4
BRANCH   1  17
ATOM     17  C   UNL     1       4.783   5.608  17.595  0.00  0.00    +0.000 C 
BRANCH  17  18
ATOM     18  C   UNL     1       4.595   4.533  16.473  0.00  0.00    +0.000 C 
ATOM     19  O   UNL     1       4.048   3.453  16.671  0.00  0.00    +0.000 OA
ATOM     20  N   UNL     1       5.259   4.768  15.288  0.00  0.00    +0.000 N 
ATOM     21  H   UNL     1       5.609   5.699  15.115  0.00  0.00    +0.000 HD
BRANCH  20  22
ATOM     22  C   UNL     1       5.128   3.845  14.175  0.00  0.00    +0.000 C 
BRANCH  22  23
ATOM     23  C   UNL     1       6.336   3.852  13.228  0.00  0.00    +0.000 C 
BRANCH  23  24
ATOM     24  C   UNL     1       6.026   3.363  11.800  0.00  0.00    +0.000 C 
ATOM     25  C   UNL     1       6.691   2.022  11.497  0.00  0.00    +0.000 C 
ATOM     26  C   UNL     1       4.515   3.251  11.584  0.00  0.00    +0.000 C 
ENDBRANCH  23  24
ENDBRANCH  22  23
ENDBRANCH  20  22
ENDBRANCH  17  18
BRANCH  17  27
ATOM     27  C   UNL     1       5.747   5.130  18.704  0.00  0.00    +0.000 C 
BRANCH  27  29
ATOM     28  C   UNL     1       7.432   6.649  17.646  0.00  0.00    +0.000 C 
ATOM     29  C   UNL     1       7.081   5.870  18.911  0.00  0.00    +0.000 C 
ENDBRANCH  27  29
ENDBRANCH  17  27
ENDBRANCH   1  17
BRANCH   1  30
ATOM     30  C   UNL     1       2.288   5.295  18.070  0.00  0.00    +0.000 C 
BRANCH  30  31
ATOM     31  C   UNL     1       2.067   4.307  19.200  0.00  0.00    +0.000 A 
ATOM     32  C   UNL     1       1.299   3.138  19.082  0.00  0.00    +0.000 A 
ATOM     33  C   UNL     1       0.983   2.363  20.201  0.00  0.00    +0.000 A 
ATOM     34  C   UNL     1       1.458   2.731  21.450  0.00  0.00    +0.000 A 
ATOM     35  F   UNL     1       1.086   2.034  22.530  0.00  0.00    +0.000 F 
ATOM     36  C   UNL     1       2.296   3.827  21.591  0.00  0.00    +0.000 A 
ATOM     37  C   UNL     1       2.606   4.607  20.472  0.00  0.00    +0.000 A 
ENDBRANCH  30  31
ENDBRANCH   1  30
TORSDOF 12
ENDMDL
MODEL 2
REMARK VINA RESULT:      -6.6      5.106     10.301
REMARK  Name = 
REMARK  15 active torsions:
REMARK  status: ('A' for Active; 'I' for Inactive)
REMARK    1  A    between atoms: C_1  and  C_2
REMARK    2  A    between atoms: C_2  and  C_3
REMARK    3  A    between atoms: C_3  and  C_4
REMARK    4  A    between atoms: C_4  and  C_5
REMARK    5  A    between atoms: C_4  and  N_13
REMARK    6  A    between atoms: N_7  and  C_8
REMARK    7  A    between atoms: C_8  and  C_9
REMARK    8  A    between atoms: C_9  and  C_10
REMARK    9  A    between atoms: C_10  and  C_11
REMARK   10  A    between atoms: C_10  and  C_12
REMARK   11  A    between atoms: N_13  and  C_14
REMARK   12  A    between atoms: C_14  and  C_15
REMARK   13  A    between atoms: C_22  and  C_24
REMARK   14  A    between atoms: C_27  and  C_28
REMARK   15  A    between atoms: C_31  and  N_32
REMARK                            x       y       z     vdW  Elec       q    Type
REMARK                         _______ _______ _______ _____ _____    ______ ____
ROOT
ATOM      1  N   UNL     1      -0.464  11.373  19.576  0.00  0.00    +0.000 N 
ATOM      2  C   UNL     1       0.866  10.909  19.769  0.00  0.00    +0.000 C 
ATOM      3  O   UNL     1       1.681  11.684  20.273  0.00  0.00    +0.000 OA
ENDROOT
BRANCH   2   4
ATOM      4  C   UNL     1       1.298   9.568  19.386  0.00  0.00    +0.000 A 
ATOM      5  S   UNL     1       1.846   9.136  17.826  0.00  0.00    +0.000 S 
ATOM      6  N   UNL     1       2.240   7.567  18.155  0.00  0.00    +0.000 NA
ATOM      7  C   UNL     1       2.102   7.354  19.474  0.00  0.00    +0.000 A 
ATOM      8  C   UNL     1       1.556   8.479  20.209  0.00  0.00    +0.000 A 
BRANCH   7   9
ATOM      9  C   UNL     1       2.523   6.081  20.088  0.00  0.00    +0.000 C 
ATOM     10  N   UNL     1       3.803   5.672  19.808  0.00  0.00    +0.000 N 
ATOM     11  O   UNL     1       1.814   5.411  20.825  0.00  0.00    +0.000 OA
ATOM     12  H   UNL     1       4.405   6.222  19.216  0.00  0.00    +0.000 HD
ATOM     13  H   UNL     1       4.132   4.814  20.231  0.00  0.00    +0.000 HD
ENDBRANCH   7   9
BRANCH   8  14
ATOM     14  N   UNL     1       1.342   8.467  21.550  0.00  0.00    +0.000 N 
ATOM     15  H   UNL     1       1.995   7.957  22.153  0.00  0.00    +0.000 HD
ATOM     16  H   UNL     1       0.887   9.248  22.021  0.00  0.00    +0.000 HD
ENDBRANCH   8  14
ENDBRANCH   2   4
BRANCH   1  17
ATOM     17  C   UNL     1      -0.778  12.812  19.955  0.00  0.00    +0.000 C 
BRANCH  17  18
ATOM     18  C   UNL     1      -2.062  12.979  20.835  0.00  0.00    +0.000 C 
ATOM     19  O   UNL     1      -2.195  12.438  21.927  0.00  0.00    +0.000 OA
ATOM     20  N   UNL     1      -3.134  13.603  20.233  0.00  0.00    +0.000 N 
ATOM     21  H   UNL     1      -2.966  14.125  19.385  0.00  0.00    +0.000 HD
BRANCH  20  22
ATOM     22  C   UNL     1      -4.363  13.831  20.972  0.00  0.00    +0.000 C 
BRANCH  22  23
ATOM     23  C   UNL     1      -5.465  12.811  20.657  0.00  0.00    +0.000 C 
BRANCH  23  24
ATOM     24  C   UNL     1      -6.183  13.046  19.314  0.00  0.00    +0.000 C 
ATOM     25  C   UNL     1      -7.124  11.896  18.959  0.00  0.00    +0.000 C 
ATOM     26  C   UNL     1      -6.964  14.362  19.342  0.00  0.00    +0.000 C 
ENDBRANCH  23  24
ENDBRANCH  22  23
ENDBRANCH  20  22
ENDBRANCH  17  18
BRANCH  17  27
ATOM     27  C   UNL     1      -0.778  13.762  18.736  0.00  0.00    +0.000 C 
BRANCH  27  29
ATOM     28  C   UNL     1       1.452  14.886  18.913  0.00  0.00    +0.000 C 
ATOM     29  C   UNL     1      -0.056  15.117  18.839  0.00  0.00    +0.000 C 
ENDBRANCH  27  29
ENDBRANCH  17  27
ENDBRANCH   1  17
BRANCH   1  30
ATOM     30  C   UNL     1      -1.614  10.451  19.425  0.00  0.00    +0.000 C 
BRANCH  30  31
ATOM     31  C   UNL     1      -2.288  10.393  18.066  0.00  0.00    +0.000 A 
ATOM     32  C   UNL     1      -1.763   9.711  16.957  0.00  0.00    +0.000 A 
ATOM     33  C   UNL     1      -2.333   9.842  15.689  0.00  0.00    +0.000 A 
ATOM     34  C   UNL     1      -3.458  10.635  15.519  0.00  0.00    +0.000 A 
ATOM     35  F   UNL     1      -3.954  10.824  14.290  0.00  0.00    +0.000 F 
ATOM     36  C   UNL     1      -4.059  11.250  16.607  0.00  0.00    +0.000 A 
ATOM     37  C   UNL     1      -3.483  11.124  17.876  0.00  0.00    +0.000 A 
ENDBRANCH  30  31
ENDBRANCH   1  30
TORSDOF 12
ENDMDL
MODEL 3
REMARK VINA RESULT:      -6.6      4.675      7.903
REMARK  Name = 
REMARK  15 active torsions:
REMARK  status: ('A' for Active; 'I' for Inactive)
REMARK    1  A    between atoms: C_1  and  C_2
REMARK    2  A    between atoms: C_2  and  C_3
REMARK    3  A    between atoms: C_3  and  C_4
REMARK    4  A    between atoms: C_4  and  C_5
REMARK    5  A    between atoms: C_4  and  N_13
REMARK    6  A    between atoms: N_7  and  C_8
REMARK    7  A    between atoms: C_8  and  C_9
REMARK    8  A    between atoms: C_9  and  C_10
REMARK    9  A    between atoms: C_10  and  C_11
REMARK   10  A    between atoms: C_10  and  C_12
REMARK   11  A    between atoms: N_13  and  C_14
REMARK   12  A    between atoms: C_14  and  C_15
REMARK   13  A    between atoms: C_22  and  C_24
REMARK   14  A    between atoms: C_27  and  C_28
REMARK   15  A    between atoms: C_31  and  N_32
REMARK                            x       y       z     vdW  Elec       q    Type
REMARK                         _______ _______ _______ _____ _____    ______ ____
ROOT
ATOM      1  N   UNL     1       0.628  11.453  19.813  0.00  0.00    +0.000 N 
ATOM      2  C   UNL     1       1.288  12.635  20.246  0.00  0.00    +0.000 C 
ATOM      3  O   UNL     1       1.994  12.566  21.253  0.00  0.00    +0.000 OA
ENDROOT
BRANCH   2   4
ATOM      4  C   UNL     1       1.152  13.914  19.555  0.00  0.00    +0.000 A 
ATOM      5  S   UNL     1      -0.230  14.916  19.637  0.00  0.00    +0.000 S 
ATOM      6  N   UNL     1       0.353  16.172  18.738  0.00  0.00    +0.000 NA
ATOM      7  C   UNL     1       1.647  15.942  18.461  0.00  0.00    +0.000 A 
ATOM      8  C   UNL     1       2.135  14.652  18.909  0.00  0.00    +0.000 A 
BRANCH   7   9
ATOM      9  C   UNL     1       2.475  16.963  17.793  0.00  0.00    +0.000 C 
ATOM     10  N   UNL     1       1.819  17.788  16.914  0.00  0.00    +0.000 N 
ATOM     11  O   UNL     1       3.671  17.114  17.997  0.00  0.00    +0.000 OA
ATOM     12  H   UNL     1       0.831  17.688  16.747  0.00  0.00    +0.000 HD
ATOM     13  H   UNL     1       2.353  18.515  16.454  0.00  0.00    +0.000 HD
ENDBRANCH   7   9
BRANCH   8  14
ATOM     14  N   UNL     1       3.413  14.229  18.729  0.00  0.00    +0.000 N 
ATOM     15  H   UNL     1       4.146  14.923  18.550  0.00  0.00    +0.000 HD
ATOM     16  H   UNL     1       3.761  13.386  19.182  0.00  0.00    +0.000 HD
ENDBRANCH   8  14
ENDBRANCH   2   4
BRANCH   1  17
ATOM     17  C   UNL     1       0.794  10.196  20.652  0.00  0.00    +0.000 C 
BRANCH  17  18
ATOM     18  C   UNL     1       1.445   8.995  19.889  0.00  0.00    +0.000 C 
ATOM     19  O   UNL     1       1.630   8.998  18.676  0.00  0.00    +0.000 OA
ATOM     20  N   UNL     1       1.616   7.835  20.614  0.00  0.00    +0.000 N 
ATOM     21  H   UNL     1       1.556   7.890  21.621  0.00  0.00    +0.000 HD
BRANCH  20  22
ATOM     22  C   UNL     1       2.236   6.671  20.006  0.00  0.00    +0.000 C 
BRANCH  22  23
ATOM     23  C   UNL     1       1.859   5.349  20.690  0.00  0.00    +0.000 C 
BRANCH  23  24
ATOM     24  C   UNL     1       2.349   4.090  19.950  0.00  0.00    +0.000 C 
ATOM     25  C   UNL     1       3.778   4.249  19.434  0.00  0.00    +0.000 C 
ATOM     26  C   UNL     1       2.263   2.861  20.859  0.00  0.00    +0.000 C 
ENDBRANCH  23  24
ENDBRANCH  22  23
ENDBRANCH  20  22
ENDBRANCH  17  18
BRANCH  17  27
ATOM     27  C   UNL     1      -0.507   9.789  21.380  0.00  0.00    +0.000 C 
BRANCH  27  29
ATOM     28  C   UNL     1       0.123   9.431  23.776  0.00  0.00    +0.000 C 
ATOM     29  C   UNL     1      -0.739  10.261  22.827  0.00  0.00    +0.000 C 
ENDBRANCH  27  29
ENDBRANCH  17  27
ENDBRANCH   1  17
BRANCH   1  30
ATOM     30  C   UNL     1       0.147  11.274  18.423  0.00  0.00    +0.000 C 
BRANCH  30  31
ATOM     31  C   UNL     1      -1.335  11.010  18.225  0.00  0.00    +0.000 A 
ATOM     32  C   UNL     1      -1.848  10.031  17.359  0.00  0.00    +0.000 A 
ATOM     33  C   UNL     1      -3.215   9.955  17.082  0.00  0.00    +0.000 A 
ATOM     34  C   UNL     1      -4.092  10.838  17.692  0.00  0.00    +0.000 A 
ATOM     35  F   UNL     1      -5.389  10.816  17.363  0.00  0.00    +0.000 F 
ATOM     36  C   UNL     1      -3.633  11.757  18.624  0.00  0.00    +0.000 A 
ATOM     37  C   UNL     1      -2.262  11.838  18.896  0.00  0.00    +0.000 A 
ENDBRANCH  30  31
ENDBRANCH   1  30
TORSDOF 12
ENDMDL
MODEL 4
REMARK VINA RESULT:      -6.6      4.639      7.839
REMARK  Name = 
REMARK  15 active torsions:
REMARK  status: ('A' for Active; 'I' for Inactive)
REMARK    1  A    between atoms: C_1  and  C_2
REMARK    2  A    between atoms: C_2  and  C_3
REMARK    3  A    between atoms: C_3  and  C_4
REMARK    4  A    between atoms: C_4  and  C_5
REMARK    5  A    between atoms: C_4  and  N_13
REMARK    6  A    between atoms: N_7  and  C_8
REMARK    7  A    between atoms: C_8  and  C_9
REMARK    8  A    between atoms: C_9  and  C_10
REMARK    9  A    between atoms: C_10  and  C_11
REMARK   10  A    between atoms: C_10  and  C_12
REMARK   11  A    between atoms: N_13  and  C_14
REMARK   12  A    between atoms: C_14  and  C_15
REMARK   13  A    between atoms: C_22  and  C_24
REMARK   14  A    between atoms: C_27  and  C_28
REMARK   15  A    between atoms: C_31  and  N_32
REMARK                            x       y       z     vdW  Elec       q    Type
REMARK                         _______ _______ _______ _____ _____    ______ ____
ROOT
ATOM      1  N   UNL     1       0.818  11.431  19.938  0.00  0.00    +0.000 N 
ATOM      2  C   UNL     1       1.543  12.552  20.426  0.00  0.00    +0.000 C 
ATOM      3  O   UNL     1       2.229  12.400  21.437  0.00  0.00    +0.000 OA
ENDROOT
BRANCH   2   4
ATOM      4  C   UNL     1       1.494  13.863  19.787  0.00  0.00    +0.000 A 
ATOM      5  S   UNL     1       2.546  14.372  18.539  0.00  0.00    +0.000 S 
ATOM      6  N   UNL     1       1.860  15.847  18.258  0.00  0.00    +0.000 NA
ATOM      7  C   UNL     1       0.740  15.951  18.993  0.00  0.00    +0.000 A 
ATOM      8  C   UNL     1       0.505  14.834  19.887  0.00  0.00    +0.000 A 
BRANCH   7   9
ATOM      9  C   UNL     1      -0.166  17.104  18.840  0.00  0.00    +0.000 C 
ATOM     10  N   UNL     1      -0.031  18.103  19.773  0.00  0.00    +0.000 N 
ATOM     11  O   UNL     1      -0.985  17.216  17.940  0.00  0.00    +0.000 OA
ATOM     12  H   UNL     1       0.652  18.034  20.511  0.00  0.00    +0.000 HD
ATOM     13  H   UNL     1      -0.622  18.920  19.685  0.00  0.00    +0.000 HD
ENDBRANCH   7   9
BRANCH   8  14
ATOM     14  N   UNL     1      -0.571  14.746  20.711  0.00  0.00    +0.000 N 
ATOM     15  H   UNL     1      -0.461  14.992  21.700  0.00  0.00    +0.000 HD
ATOM     16  H   UNL     1      -1.517  14.892  20.364  0.00  0.00    +0.000 HD
ENDBRANCH   8  14
ENDBRANCH   2   4
BRANCH   1  17
ATOM     17  C   UNL     1       0.897  10.134  20.727  0.00  0.00    +0.000 C 
BRANCH  17  18
ATOM     18  C   UNL     1       1.477   8.924  19.920  0.00  0.00    +0.000 C 
ATOM     19  O   UNL     1       1.540   8.910  18.695  0.00  0.00    +0.000 OA
ATOM     20  N   UNL     1       1.727   7.776  20.642  0.00  0.00    +0.000 N 
ATOM     21  H   UNL     1       1.767   7.846  21.649  0.00  0.00    +0.000 HD
BRANCH  20  22
ATOM     22  C   UNL     1       2.291   6.607  19.992  0.00  0.00    +0.000 C 
BRANCH  22  23
ATOM     23  C   UNL     1       1.716   5.282  20.510  0.00  0.00    +0.000 C 
BRANCH  23  24
ATOM     24  C   UNL     1       1.868   4.099  19.534  0.00  0.00    +0.000 C 
ATOM     25  C   UNL     1       0.838   3.002  19.798  0.00  0.00    +0.000 C 
ATOM     26  C   UNL     1       1.754   4.576  18.085  0.00  0.00    +0.000 C 
ENDBRANCH  23  24
ENDBRANCH  22  23
ENDBRANCH  20  22
ENDBRANCH  17  18
BRANCH  17  27
ATOM     27  C   UNL     1      -0.434   9.782  21.430  0.00  0.00    +0.000 C 
BRANCH  27  29
ATOM     28  C   UNL     1      -1.303  11.619  22.892  0.00  0.00    +0.000 C 
ATOM     29  C   UNL     1      -0.659  10.234  22.884  0.00  0.00    +0.000 C 
ENDBRANCH  27  29
ENDBRANCH  17  27
ENDBRANCH   1  17
BRANCH   1  30
ATOM     30  C   UNL     1       0.346  11.338  18.537  0.00  0.00    +0.000 C 
BRANCH  30  31
ATOM     31  C   UNL     1      -1.151  11.226  18.310  0.00  0.00    +0.000 A 
ATOM     32  C   UNL     1      -2.101  12.070  18.908  0.00  0.00    +0.000 A 
ATOM     33  C   UNL     1      -3.469  11.807  18.806  0.00  0.00    +0.000 A 
ATOM     34  C   UNL     1      -3.907  10.712  18.078  0.00  0.00    +0.000 A 
ATOM     35  F   UNL     1      -5.212  10.416  18.050  0.00  0.00    +0.000 F 
ATOM     36  C   UNL     1      -3.003   9.909  17.397  0.00  0.00    +0.000 A 
ATOM     37  C   UNL     1      -1.633  10.168  17.505  0.00  0.00    +0.000 A 
ENDBRANCH  30  31
ENDBRANCH   1  30
TORSDOF 12
ENDMDL
MODEL 5
REMARK VINA RESULT:      -6.5      1.198      1.395
REMARK  Name = 
REMARK  15 active torsions:
REMARK  status: ('A' for Active; 'I' for Inactive)
REMARK    1  A    between atoms: C_1  and  C_2
REMARK    2  A    between atoms: C_2  and  C_3
REMARK    3  A    between atoms: C_3  and  C_4
REMARK    4  A    between atoms: C_4  and  C_5
REMARK    5  A    between atoms: C_4  and  N_13
REMARK    6  A    between atoms: N_7  and  C_8
REMARK    7  A    between atoms: C_8  and  C_9
REMARK    8  A    between atoms: C_9  and  C_10
REMARK    9  A    between atoms: C_10  and  C_11
REMARK   10  A    between atoms: C_10  and  C_12
REMARK   11  A    between atoms: N_13  and  C_14
REMARK   12  A    between atoms: C_14  and  C_15
REMARK   13  A    between atoms: C_22  and  C_24
REMARK   14  A    between atoms: C_27  and  C_28
REMARK   15  A    between atoms: C_31  and  N_32
REMARK                            x       y       z     vdW  Elec       q    Type
REMARK                         _______ _______ _______ _____ _____    ______ ____
ROOT
ATOM      1  N   UNL     1       4.100   6.465  18.700  0.00  0.00    +0.000 N 
ATOM      2  C   UNL     1       3.215   7.454  18.193  0.00  0.00    +0.000 C 
ATOM      3  O   UNL     1       3.366   7.823  17.027  0.00  0.00    +0.000 OA
ENDROOT
BRANCH   2   4
ATOM      4  C   UNL     1       2.152   8.050  18.997  0.00  0.00    +0.000 A 
ATOM      5  S   UNL     1       1.820   7.637  20.623  0.00  0.00    +0.000 S 
ATOM      6  N   UNL     1       0.618   8.736  20.890  0.00  0.00    +0.000 NA
ATOM      7  C   UNL     1       0.518   9.538  19.818  0.00  0.00    +0.000 A 
ATOM      8  C   UNL     1       1.378   9.168  18.711  0.00  0.00    +0.000 A 
BRANCH   7   9
ATOM      9  C   UNL     1      -0.375  10.711  19.825  0.00  0.00    +0.000 C 
ATOM     10  N   UNL     1      -0.115  11.660  20.783  0.00  0.00    +0.000 N 
ATOM     11  O   UNL     1      -1.289  10.879  19.031  0.00  0.00    +0.000 OA
ATOM     12  H   UNL     1       0.645  11.544  21.434  0.00  0.00    +0.000 HD
ATOM     13  H   UNL     1      -0.695  12.489  20.802  0.00  0.00    +0.000 HD
ENDBRANCH   7   9
BRANCH   8  14
ATOM     14  N   UNL     1       1.429   9.851  17.538  0.00  0.00    +0.000 N 
ATOM     15  H   UNL     1       1.215  10.853  17.537  0.00  0.00    +0.000 HD
ATOM     16  H   UNL     1       2.065   9.576  16.792  0.00  0.00    +0.000 HD
ENDBRANCH   8  14
ENDBRANCH   2   4
BRANCH   1  17
ATOM     17  C   UNL     1       5.209   5.967  17.787  0.00  0.00    +0.000 C 
BRANCH  17  18
ATOM     18  C   UNL     1       4.709   5.119  16.571  0.00  0.00    +0.000 C 
ATOM     19  O   UNL     1       3.717   4.399  16.624  0.00  0.00    +0.000 OA
ATOM     20  N   UNL     1       5.556   5.055  15.485  0.00  0.00    +0.000 N 
ATOM     21  H   UNL     1       6.304   5.731  15.424  0.00  0.00    +0.000 HD
BRANCH  20  22
ATOM     22  C   UNL     1       5.173   4.316  14.295  0.00  0.00    +0.000 C 
BRANCH  22  23
ATOM     23  C   UNL     1       6.368   3.790  13.490  0.00  0.00    +0.000 C 
BRANCH  23  24
ATOM     24  C   UNL     1       6.047   3.458  12.020  0.00  0.00    +0.000 C 
ATOM     25  C   UNL     1       6.743   2.179  11.556  0.00  0.00    +0.000 C 
ATOM     26  C   UNL     1       4.536   3.326  11.814  0.00  0.00    +0.000 C 
ENDBRANCH  23  24
ENDBRANCH  22  23
ENDBRANCH  20  22
ENDBRANCH  17  18
BRANCH  17  27
ATOM     27  C   UNL     1       6.346   5.262  18.561  0.00  0.00    +0.000 C 
BRANCH  27  29
ATOM     28  C   UNL     1       7.706   7.243  17.860  0.00  0.00    +0.000 C 
ATOM     29  C   UNL     1       7.728   5.934  18.646  0.00  0.00    +0.000 C 
ENDBRANCH  27  29
ENDBRANCH  17  27
ENDBRANCH   1  17
BRANCH   1  30
ATOM     30  C   UNL     1       3.766   5.623  19.873  0.00  0.00    +0.000 C 
BRANCH  30  31
ATOM     31  C   UNL     1       2.950   4.368  19.622  0.00  0.00    +0.000 A 
ATOM     32  C   UNL     1       3.502   3.082  19.512  0.00  0.00    +0.000 A 
ATOM     33  C   UNL     1       2.728   1.994  19.103  0.00  0.00    +0.000 A 
ATOM     34  C   UNL     1       1.381   2.173  18.827  0.00  0.00    +0.000 A 
ATOM     35  F   UNL     1       0.661   1.147  18.357  0.00  0.00    +0.000 F 
ATOM     36  C   UNL     1       0.780   3.409  19.013  0.00  0.00    +0.000 A 
ATOM     37  C   UNL     1       1.558   4.500  19.416  0.00  0.00    +0.000 A 
ENDBRANCH  30  31
ENDBRANCH   1  30
TORSDOF 12
ENDMDL
MODEL 6
REMARK VINA RESULT:      -6.5      4.374      7.778
REMARK  Name = 
REMARK  15 active torsions:
REMARK  status: ('A' for Active; 'I' for Inactive)
REMARK    1  A    between atoms: C_1  and  C_2
REMARK    2  A    between atoms: C_2  and  C_3
REMARK    3  A    between atoms: C_3  and  C_4
REMARK    4  A    between atoms: C_4  and  C_5
REMARK    5  A    between atoms: C_4  and  N_13
REMARK    6  A    between atoms: N_7  and  C_8
REMARK    7  A    between atoms: C_8  and  C_9
REMARK    8  A    between atoms: C_9  and  C_10
REMARK    9  A    between atoms: C_10  and  C_11
REMARK   10  A    between atoms: C_10  and  C_12
REMARK   11  A    between atoms: N_13  and  C_14
REMARK   12  A    between atoms: C_14  and  C_15
REMARK   13  A    between atoms: C_22  and  C_24
REMARK   14  A    between atoms: C_27  and  C_28
REMARK   15  A    between atoms: C_31  and  N_32
REMARK                            x       y       z     vdW  Elec       q    Type
REMARK                         _______ _______ _______ _____ _____    ______ ____
ROOT
ATOM      1  N   UNL     1       0.469  11.581  19.740  0.00  0.00    +0.000 N 
ATOM      2  C   UNL     1       1.034  12.721  20.374  0.00  0.00    +0.000 C 
ATOM      3  O   UNL     1       1.877  12.535  21.252  0.00  0.00    +0.000 OA
ENDROOT
BRANCH   2   4
ATOM      4  C   UNL     1       0.646  14.086  20.033  0.00  0.00    +0.000 A 
ATOM      5  S   UNL     1      -0.740  14.880  20.642  0.00  0.00    +0.000 S 
ATOM      6  N   UNL     1      -0.481  16.351  19.938  0.00  0.00    +0.000 NA
ATOM      7  C   UNL     1       0.720  16.337  19.336  0.00  0.00    +0.000 A 
ATOM      8  C   UNL     1       1.389  15.051  19.365  0.00  0.00    +0.000 A 
BRANCH   7   9
ATOM      9  C   UNL     1       1.288  17.562  18.744  0.00  0.00    +0.000 C 
ATOM     10  N   UNL     1       0.813  17.906  17.502  0.00  0.00    +0.000 N 
ATOM     11  O   UNL     1       2.115  18.269  19.299  0.00  0.00    +0.000 OA
ATOM     12  H   UNL     1       0.118  17.343  17.039  0.00  0.00    +0.000 HD
ATOM     13  H   UNL     1       1.165  18.754  17.076  0.00  0.00    +0.000 HD
ENDBRANCH   7   9
BRANCH   8  14
ATOM     14  N   UNL     1       2.611  14.829  18.814  0.00  0.00    +0.000 N 
ATOM     15  H   UNL     1       3.118  13.972  19.058  0.00  0.00    +0.000 HD
ATOM     16  H   UNL     1       2.849  15.187  17.891  0.00  0.00    +0.000 HD
ENDBRANCH   8  14
ENDBRANCH   2   4
BRANCH   1  17
ATOM     17  C   UNL     1       0.905  10.207  20.226  0.00  0.00    +0.000 C 
BRANCH  17  18
ATOM     18  C   UNL     1       1.653   9.352  19.149  0.00  0.00    +0.000 C 
ATOM     19  O   UNL     1       1.955   9.789  18.044  0.00  0.00    +0.000 OA
ATOM     20  N   UNL     1       1.778   8.006  19.422  0.00  0.00    +0.000 N 
ATOM     21  H   UNL     1       1.619   7.696  20.370  0.00  0.00    +0.000 HD
BRANCH  20  22
ATOM     22  C   UNL     1       2.479   7.130  18.500  0.00  0.00    +0.000 C 
BRANCH  22  23
ATOM     23  C   UNL     1       2.760   5.735  19.075  0.00  0.00    +0.000 C 
BRANCH  23  24
ATOM     24  C   UNL     1       1.795   4.640  18.582  0.00  0.00    +0.000 C 
ATOM     25  C   UNL     1       2.484   3.649  17.644  0.00  0.00    +0.000 C 
ATOM     26  C   UNL     1       1.183   3.888  19.766  0.00  0.00    +0.000 C 
ENDBRANCH  23  24
ENDBRANCH  22  23
ENDBRANCH  20  22
ENDBRANCH  17  18
BRANCH  17  27
ATOM     27  C   UNL     1      -0.243   9.423  20.900  0.00  0.00    +0.000 C 
BRANCH  27  29
ATOM     28  C   UNL     1      -0.886  10.558  23.037  0.00  0.00    +0.000 C 
ATOM     29  C   UNL     1      -0.268   9.298  22.434  0.00  0.00    +0.000 C 
ENDBRANCH  27  29
ENDBRANCH  17  27
ENDBRANCH   1  17
BRANCH   1  30
ATOM     30  C   UNL     1      -0.177  11.649  18.409  0.00  0.00    +0.000 C 
BRANCH  30  31
ATOM     31  C   UNL     1      -1.641  11.257  18.322  0.00  0.00    +0.000 A 
ATOM     32  C   UNL     1      -2.120  10.173  17.568  0.00  0.00    +0.000 A 
ATOM     33  C   UNL     1      -3.489   9.971  17.380  0.00  0.00    +0.000 A 
ATOM     34  C   UNL     1      -4.399  10.833  17.971  0.00  0.00    +0.000 A 
ATOM     35  F   UNL     1      -5.707  10.684  17.723  0.00  0.00    +0.000 F 
ATOM     36  C   UNL     1      -3.967  11.859  18.797  0.00  0.00    +0.000 A 
ATOM     37  C   UNL     1      -2.595  12.066  18.979  0.00  0.00    +0.000 A 
ENDBRANCH  30  31
ENDBRANCH   1  30
TORSDOF 12
ENDMDL
MODEL 7
REMARK VINA RESULT:      -6.4      1.144      1.512
REMARK  Name = 
REMARK  15 active torsions:
REMARK  status: ('A' for Active; 'I' for Inactive)
REMARK    1  A    between atoms: C_1  and  C_2
REMARK    2  A    between atoms: C_2  and  C_3
REMARK    3  A    between atoms: C_3  and  C_4
REMARK    4  A    between atoms: C_4  and  C_5
REMARK    5  A    between atoms: C_4  and  N_13
REMARK    6  A    between atoms: N_7  and  C_8
REMARK    7  A    between atoms: C_8  and  C_9
REMARK    8  A    between atoms: C_9  and  C_10
REMARK    9  A    between atoms: C_10  and  C_11
REMARK   10  A    between atoms: C_10  and  C_12
REMARK   11  A    between atoms: N_13  and  C_14
REMARK   12  A    between atoms: C_14  and  C_15
REMARK   13  A    between atoms: C_22  and  C_24
REMARK   14  A    between atoms: C_27  and  C_28
REMARK   15  A    between atoms: C_31  and  N_32
REMARK                            x       y       z     vdW  Elec       q    Type
REMARK                         _______ _______ _______ _____ _____    ______ ____
ROOT
ATOM      1  N   UNL     1       4.235   6.473  18.764  0.00  0.00    +0.000 N 
ATOM      2  C   UNL     1       3.441   7.532  18.246  0.00  0.00    +0.000 C 
ATOM      3  O   UNL     1       3.753   8.008  17.154  0.00  0.00    +0.000 OA
ENDROOT
BRANCH   2   4
ATOM      4  C   UNL     1       2.289   8.077  18.959  0.00  0.00    +0.000 A 
ATOM      5  S   UNL     1       1.832   7.631  20.545  0.00  0.00    +0.000 S 
ATOM      6  N   UNL     1       0.569   8.679  20.715  0.00  0.00    +0.000 NA
ATOM      7  C   UNL     1       0.532   9.490  19.645  0.00  0.00    +0.000 A 
ATOM      8  C   UNL     1       1.500   9.166  18.615  0.00  0.00    +0.000 A 
BRANCH   7   9
ATOM      9  C   UNL     1      -0.405  10.627  19.584  0.00  0.00    +0.000 C 
ATOM     10  N   UNL     1      -0.771  11.171  20.790  0.00  0.00    +0.000 N 
ATOM     11  O   UNL     1      -0.835  11.103  18.543  0.00  0.00    +0.000 OA
ATOM     12  H   UNL     1      -0.412  10.801  21.656  0.00  0.00    +0.000 HD
ATOM     13  H   UNL     1      -1.396  11.967  20.784  0.00  0.00    +0.000 HD
ENDBRANCH   7   9
BRANCH   8  14
ATOM     14  N   UNL     1       1.626   9.865  17.457  0.00  0.00    +0.000 N 
ATOM     15  H   UNL     1       2.399   9.641  16.823  0.00  0.00    +0.000 HD
ATOM     16  H   UNL     1       0.812  10.249  16.979  0.00  0.00    +0.000 HD
ENDBRANCH   8  14
ENDBRANCH   2   4
BRANCH   1  17
ATOM     17  C   UNL     1       5.449   6.035  17.960  0.00  0.00    +0.000 C 
BRANCH  17  18
ATOM     18  C   UNL     1       5.154   4.913  16.910  0.00  0.00    +0.000 C 
ATOM     19  O   UNL     1       5.060   3.728  17.210  0.00  0.00    +0.000 OA
ATOM     20  N   UNL     1       5.209   5.292  15.584  0.00  0.00    +0.000 N 
ATOM     21  H   UNL     1       5.183   6.278  15.370  0.00  0.00    +0.000 HD
BRANCH  20  22
ATOM     22  C   UNL     1       4.925   4.332  14.533  0.00  0.00    +0.000 C 
BRANCH  22  23
ATOM     23  C   UNL     1       6.065   4.182  13.516  0.00  0.00    +0.000 C 
BRANCH  23  24
ATOM     24  C   UNL     1       5.826   3.094  12.451  0.00  0.00    +0.000 C 
ATOM     25  C   UNL     1       4.601   3.395  11.590  0.00  0.00    +0.000 C 
ATOM     26  C   UNL     1       7.058   2.934  11.558  0.00  0.00    +0.000 C 
ENDBRANCH  23  24
ENDBRANCH  22  23
ENDBRANCH  20  22
ENDBRANCH  17  18
BRANCH  17  27
ATOM     27  C   UNL     1       6.663   5.694  18.853  0.00  0.00    +0.000 C 
BRANCH  27  29
ATOM     28  C   UNL     1       7.729   7.692  17.786  0.00  0.00    +0.000 C 
ATOM     29  C   UNL     1       7.982   6.462  18.655  0.00  0.00    +0.000 C 
ENDBRANCH  27  29
ENDBRANCH  17  27
ENDBRANCH   1  17
BRANCH   1  30
ATOM     30  C   UNL     1       3.733   5.531  19.791  0.00  0.00    +0.000 C 
BRANCH  30  31
ATOM     31  C   UNL     1       2.858   4.384  19.319  0.00  0.00    +0.000 A 
ATOM     32  C   UNL     1       1.889   4.500  18.310  0.00  0.00    +0.000 A 
ATOM     33  C   UNL     1       0.993   3.462  18.044  0.00  0.00    +0.000 A 
ATOM     34  C   UNL     1       1.075   2.280  18.764  0.00  0.00    +0.000 A 
ATOM     35  F   UNL     1       0.164   1.319  18.564  0.00  0.00    +0.000 F 
ATOM     36  C   UNL     1       2.078   2.095  19.704  0.00  0.00    +0.000 A 
ATOM     37  C   UNL     1       2.971   3.137  19.975  0.00  0.00    +0.000 A 
ENDBRANCH  30  31
ENDBRANCH   1  30
TORSDOF 12
ENDMDL
MODEL 8
REMARK VINA RESULT:      -6.4      1.883      4.214
REMARK  Name = 
REMARK  15 active torsions:
REMARK  status: ('A' for Active; 'I' for Inactive)
REMARK    1  A    between atoms: C_1  and  C_2
REMARK    2  A    between atoms: C_2  and  C_3
REMARK    3  A    between atoms: C_3  and  C_4
REMARK    4  A    between atoms: C_4  and  C_5
REMARK    5  A    between atoms: C_4  and  N_13
REMARK    6  A    between atoms: N_7  and  C_8
REMARK    7  A    between atoms: C_8  and  C_9
REMARK    8  A    between atoms: C_9  and  C_10
REMARK    9  A    between atoms: C_10  and  C_11
REMARK   10  A    between atoms: C_10  and  C_12
REMARK   11  A    between atoms: N_13  and  C_14
REMARK   12  A    between atoms: C_14  and  C_15
REMARK   13  A    between atoms: C_22  and  C_24
REMARK   14  A    between atoms: C_27  and  C_28
REMARK   15  A    between atoms: C_31  and  N_32
REMARK                            x       y       z     vdW  Elec       q    Type
REMARK                         _______ _______ _______ _____ _____    ______ ____
ROOT
ATOM      1  N   UNL     1       3.563   6.316  17.867  0.00  0.00    +0.000 N 
ATOM      2  C   UNL     1       3.411   7.695  18.175  0.00  0.00    +0.000 C 
ATOM      3  O   UNL     1       4.318   8.463  17.851  0.00  0.00    +0.000 OA
ENDROOT
BRANCH   2   4
ATOM      4  C   UNL     1       2.239   8.226  18.865  0.00  0.00    +0.000 A 
ATOM      5  S   UNL     1       1.741   7.754  20.431  0.00  0.00    +0.000 S 
ATOM      6  N   UNL     1       0.470   8.797  20.583  0.00  0.00    +0.000 NA
ATOM      7  C   UNL     1       0.460   9.624  19.525  0.00  0.00    +0.000 A 
ATOM      8  C   UNL     1       1.457   9.319  18.517  0.00  0.00    +0.000 A 
BRANCH   7   9
ATOM      9  C   UNL     1      -0.477  10.760  19.456  0.00  0.00    +0.000 C 
ATOM     10  N   UNL     1      -0.898  11.267  20.661  0.00  0.00    +0.000 N 
ATOM     11  O   UNL     1      -0.863  11.266  18.413  0.00  0.00    +0.000 OA
ATOM     12  H   UNL     1      -0.575  10.873  21.530  0.00  0.00    +0.000 HD
ATOM     13  H   UNL     1      -1.525  12.062  20.651  0.00  0.00    +0.000 HD
ENDBRANCH   7   9
BRANCH   8  14
ATOM     14  N   UNL     1       1.613  10.037  17.374  0.00  0.00    +0.000 N 
ATOM     15  H   UNL     1       0.786  10.260  16.811  0.00  0.00    +0.000 HD
ATOM     16  H   UNL     1       2.362  10.719  17.275  0.00  0.00    +0.000 HD
ENDBRANCH   8  14
ENDBRANCH   2   4
BRANCH   1  17
ATOM     17  C   UNL     1       4.858   5.873  17.204  0.00  0.00    +0.000 C 
BRANCH  17  18
ATOM     18  C   UNL     1       6.153   6.387  17.917  0.00  0.00    +0.000 C 
ATOM     19  O   UNL     1       6.488   6.017  19.037  0.00  0.00    +0.000 OA
ATOM     20  N   UNL     1       6.803   7.442  17.311  0.00  0.00    +0.000 N 
ATOM     21  H   UNL     1       6.572   7.655  16.351  0.00  0.00    +0.000 HD
BRANCH  20  22
ATOM     22  C   UNL     1       8.028   7.975  17.878  0.00  0.00    +0.000 C 
BRANCH  22  23
ATOM     23  C   UNL     1       8.058   9.508  17.940  0.00  0.00    +0.000 C 
BRANCH  23  24
ATOM     24  C   UNL     1       9.356  10.094  18.528  0.00  0.00    +0.000 C 
ATOM     25  C   UNL     1       9.761  11.396  17.836  0.00  0.00    +0.000 C 
ATOM     26  C   UNL     1       9.208  10.334  20.032  0.00  0.00    +0.000 C 
ENDBRANCH  23  24
ENDBRANCH  22  23
ENDBRANCH  20  22
ENDBRANCH  17  18
BRANCH  17  27
ATOM     27  C   UNL     1       4.877   6.155  15.685  0.00  0.00    +0.000 C 
BRANCH  27  29
ATOM     28  C   UNL     1       5.697   3.814  15.343  0.00  0.00    +0.000 C 
ATOM     29  C   UNL     1       5.679   5.224  14.757  0.00  0.00    +0.000 C 
ENDBRANCH  27  29
ENDBRANCH  17  27
ENDBRANCH   1  17
BRANCH   1  30
ATOM     30  C   UNL     1       2.411   5.389  17.777  0.00  0.00    +0.000 C 
BRANCH  30  31
ATOM     31  C   UNL     1       2.183   4.442  18.941  0.00  0.00    +0.000 A 
ATOM     32  C   UNL     1       1.315   3.340  18.897  0.00  0.00    +0.000 A 
ATOM     33  C   UNL     1       1.009   2.613  20.050  0.00  0.00    +0.000 A 
ATOM     34  C   UNL     1       1.592   2.961  21.258  0.00  0.00    +0.000 A 
ATOM     35  F   UNL     1       1.235   2.316  22.375  0.00  0.00    +0.000 F 
ATOM     36  C   UNL     1       2.525   3.985  21.323  0.00  0.00    +0.000 A 
ATOM     37  C   UNL     1       2.826   4.718  20.169  0.00  0.00    +0.000 A 
ENDBRANCH  30  31
ENDBRANCH   1  30
TORSDOF 12
ENDMDL
MODEL 9
REMARK VINA RESULT:      -6.4      1.476      1.795
REMARK  Name = 
REMARK  15 active torsions:
REMARK  status: ('A' for Active; 'I' for Inactive)
REMARK    1  A    between atoms: C_1  and  C_2
REMARK    2  A    between atoms: C_2  and  C_3
REMARK    3  A    between atoms: C_3  and  C_4
REMARK    4  A    between atoms: C_4  and  C_5
REMARK    5  A    between atoms: C_4  and  N_13
REMARK    6  A    between atoms: N_7  and  C_8
REMARK    7  A    between atoms: C_8  and  C_9
REMARK    8  A    between atoms: C_9  and  C_10
REMARK    9  A    between atoms: C_10  and  C_11
REMARK   10  A    between atoms: C_10  and  C_12
REMARK   11  A    between atoms: N_13  and  C_14
REMARK   12  A    between atoms: C_14  and  C_15
REMARK   13  A    between atoms: C_22  and  C_24
REMARK   14  A    between atoms: C_27  and  C_28
REMARK   15  A    between atoms: C_31  and  N_32
REMARK                            x       y       z     vdW  Elec       q    Type
REMARK                         _______ _______ _______ _____ _____    ______ ____
ROOT
ATOM      1  N   UNL     1       4.921   6.364  17.825  0.00  0.00    +0.000 N 
ATOM      2  C   UNL     1       3.887   7.295  17.537  0.00  0.00    +0.000 C 
ATOM      3  O   UNL     1       3.883   7.828  16.426  0.00  0.00    +0.000 OA
ENDROOT
BRANCH   2   4
ATOM      4  C   UNL     1       2.849   7.647  18.501  0.00  0.00    +0.000 A 
ATOM      5  S   UNL     1       2.594   6.840  19.987  0.00  0.00    +0.000 S 
ATOM      6  N   UNL     1       1.385   7.807  20.559  0.00  0.00    +0.000 NA
ATOM      7  C   UNL     1       1.225   8.844  19.720  0.00  0.00    +0.000 A 
ATOM      8  C   UNL     1       2.044   8.778  18.525  0.00  0.00    +0.000 A 
BRANCH   7   9
ATOM      9  C   UNL     1       0.312   9.954  20.048  0.00  0.00    +0.000 C 
ATOM     10  N   UNL     1       0.409  10.458  21.321  0.00  0.00    +0.000 N 
ATOM     11  O   UNL     1      -0.483  10.441  19.257  0.00  0.00    +0.000 OA
ATOM     12  H   UNL     1       1.071  10.079  21.979  0.00  0.00    +0.000 HD
ATOM     13  H   UNL     1      -0.188  11.236  21.572  0.00  0.00    +0.000 HD
ENDBRANCH   7   9
BRANCH   8  14
ATOM     14  N   UNL     1       2.032   9.728  17.554  0.00  0.00    +0.000 N 
ATOM     15  H   UNL     1       1.207   9.815  16.953  0.00  0.00    +0.000 HD
ATOM     16  H   UNL     1       2.543  10.603  17.663  0.00  0.00    +0.000 HD
ENDBRANCH   8  14
ENDBRANCH   2   4
BRANCH   1  17
ATOM     17  C   UNL     1       5.984   6.128  16.764  0.00  0.00    +0.000 C 
BRANCH  17  18
ATOM     18  C   UNL     1       5.796   4.805  15.948  0.00  0.00    +0.000 C 
ATOM     19  O   UNL     1       6.203   3.717  16.341  0.00  0.00    +0.000 OA
ATOM     20  N   UNL     1       5.329   4.948  14.658  0.00  0.00    +0.000 N 
ATOM     21  H   UNL     1       4.908   5.828  14.400  0.00  0.00    +0.000 HD
BRANCH  20  22
ATOM     22  C   UNL     1       5.095   3.781  13.827  0.00  0.00    +0.000 C 
BRANCH  22  23
ATOM     23  C   UNL     1       6.196   3.539  12.786  0.00  0.00    +0.000 C 
BRANCH  23  24
ATOM     24  C   UNL     1       5.694   2.936  11.460  0.00  0.00    +0.000 C 
ATOM     25  C   UNL     1       5.963   1.435  11.375  0.00  0.00    +0.000 C 
ATOM     26  C   UNL     1       4.198   3.203  11.277  0.00  0.00    +0.000 C 
ENDBRANCH  23  24
ENDBRANCH  22  23
ENDBRANCH  20  22
ENDBRANCH  17  18
BRANCH  17  27
ATOM     27  C   UNL     1       7.420   6.273  17.316  0.00  0.00    +0.000 C 
BRANCH  27  29
ATOM     28  C   UNL     1       7.987   8.671  17.759  0.00  0.00    +0.000 C 
ATOM     29  C   UNL     1       7.703   7.319  18.409  0.00  0.00    +0.000 C 
ENDBRANCH  27  29
ENDBRANCH  17  27
ENDBRANCH   1  17
BRANCH   1  30
ATOM     30  C   UNL     1       4.797   5.342  18.891  0.00  0.00    +0.000 C 
BRANCH  30  31
ATOM     31  C   UNL     1       3.742   4.265  18.707  0.00  0.00    +0.000 A 
ATOM     32  C   UNL     1       2.972   4.112  17.544  0.00  0.00    +0.000 A 
ATOM     33  C   UNL     1       1.895   3.223  17.500  0.00  0.00    +0.000 A 
ATOM     34  C   UNL     1       1.595   2.451  18.611  0.00  0.00    +0.000 A 
ATOM     35  F   UNL     1       0.515   1.660  18.595  0.00  0.00    +0.000 F 
ATOM     36  C   UNL     1       2.390   2.508  19.746  0.00  0.00    +0.000 A 
ATOM     37  C   UNL     1       3.463   3.404  19.792  0.00  0.00    +0.000 A 
ENDBRANCH  30  31
ENDBRANCH   1  30
TORSDOF 12
ENDMDL
