MODEL 1
REMARK VINA RESULT:      -7.3      0.000      0.000
REMARK  Name = 
REMARK  7 active torsions:
REMARK  status: ('A' for Active; 'I' for Inactive)
REMARK    1  A    between atoms: C_1  and  C_2
REMARK    2  A    between atoms: C_2  and  C_3
REMARK    3  A    between atoms: C_2  and  C_4
REMARK    4  A    between atoms: C_2  and  C_5
REMARK    5  A    between atoms: C_8  and  C_9
REMARK    6  A    between atoms: N_11  and  C_12
REMARK    7  A    between atoms: C_18  and  O_19
REMARK                            x       y       z     vdW  Elec       q    Type
REMARK                         _______ _______ _______ _____ _____    ______ ____
ROOT
ATOM      1  C   UNL     1       3.234   6.473  18.149  0.00  0.00    +0.000 C 
ATOM      2  O   UNL     1       2.873   5.323  18.373  0.00  0.00    +0.000 OA
ATOM      3  N   UNL     1       4.400   6.852  17.500  0.00  0.00    +0.000 N 
ATOM      4  H   UNL     1       4.721   7.806  17.559  0.00  0.00    +0.000 HD
ENDROOT
BRANCH   3   5
ATOM      5  C   UNL     1       5.327   5.931  16.937  0.00  0.00    +0.000 A 
ATOM      6  C   UNL     1       5.205   5.474  15.623  0.00  0.00    +0.000 A 
ATOM      7  C   UNL     1       6.123   4.571  15.099  0.00  0.00    +0.000 A 
ATOM      8 CL   UNL     1       5.923   4.000  13.489  0.00  0.00    +0.000 Cl
ATOM      9  C   UNL     1       7.193   4.129  15.869  0.00  0.00    +0.000 A 
ATOM     10  C   UNL     1       7.339   4.582  17.183  0.00  0.00    +0.000 A 
ATOM     11  C   UNL     1       6.405   5.482  17.710  0.00  0.00    +0.000 A 
BRANCH  11  12
ATOM     12  O   UNL     1       6.523   5.914  19.005  0.00  0.00    +0.000 OA
ATOM     13  H   UNL     1       7.119   5.308  19.477  0.00  0.00    +0.000 HD
ENDBRANCH  11  12
ENDBRANCH   3   5
BRANCH   1  17
ATOM     14  C   UNL     1       0.828   9.741  19.587  0.00  0.00    +0.000 A 
ATOM     15  C   UNL     1       1.301   9.676  18.269  0.00  0.00    +0.000 A 
ATOM     16  C   UNL     1       2.068   8.600  17.831  0.00  0.00    +0.000 A 
ATOM     17  C   UNL     1       2.385   7.552  18.699  0.00  0.00    +0.000 A 
ATOM     18  C   UNL     1       1.960   7.601  20.025  0.00  0.00    +0.000 A 
ATOM     19  C   UNL     1       1.186   8.689  20.460  0.00  0.00    +0.000 A 
BRANCH  14  21
ATOM     20  C   UNL     1      -0.480  10.784  21.548  0.00  0.00    +0.000 C 
ATOM     21  C   UNL     1      -0.042  10.916  20.070  0.00  0.00    +0.000 C 
ATOM     22  C   UNL     1      -1.320  11.005  19.215  0.00  0.00    +0.000 C 
ATOM     23  C   UNL     1       0.744  12.238  19.953  0.00  0.00    +0.000 C 
ENDBRANCH  14  21
ENDBRANCH   1  17
TORSDOF 4
ENDMDL
MODEL 2
REMARK VINA RESULT:      -7.3      0.320      1.466
REMARK  Name = 
REMARK  7 active torsions:
REMARK  status: ('A' for Active; 'I' for Inactive)
REMARK    1  A    between atoms: C_1  and  C_2
REMARK    2  A    between atoms: C_2  and  C_3
REMARK    3  A    between atoms: C_2  and  C_4
REMARK    4  A    between atoms: C_2  and  C_5
REMARK    5  A    between atoms: C_8  and  C_9
REMARK    6  A    between atoms: N_11  and  C_12
REMARK    7  A    between atoms: C_18  and  O_19
REMARK                            x       y       z     vdW  Elec       q    Type
REMARK                         _______ _______ _______ _____ _____    ______ ____
ROOT
ATOM      1  C   UNL     1       3.207   6.600  17.996  0.00  0.00    +0.000 C 
ATOM      2  O   UNL     1       2.729   5.475  18.091  0.00  0.00    +0.000 OA
ATOM      3  N   UNL     1       4.450   6.917  17.467  0.00  0.00    +0.000 N 
ATOM      4  H   UNL     1       4.849   7.828  17.633  0.00  0.00    +0.000 HD
ENDROOT
BRANCH   3   5
ATOM      5  C   UNL     1       5.331   5.961  16.890  0.00  0.00    +0.000 A 
ATOM      6  C   UNL     1       5.163   5.497  15.584  0.00  0.00    +0.000 A 
ATOM      7  C   UNL     1       6.038   4.559  15.046  0.00  0.00    +0.000 A 
ATOM      8 CL   UNL     1       5.779   3.982  13.447  0.00  0.00    +0.000 Cl
ATOM      9  C   UNL     1       7.111   4.089  15.795  0.00  0.00    +0.000 A 
ATOM     10  C   UNL     1       7.304   4.549  17.100  0.00  0.00    +0.000 A 
ATOM     11  C   UNL     1       6.414   5.483  17.641  0.00  0.00    +0.000 A 
BRANCH  11  12
ATOM     12  O   UNL     1       6.577   5.923  18.929  0.00  0.00    +0.000 OA
ATOM     13  H   UNL     1       6.275   5.223  19.532  0.00  0.00    +0.000 HD
ENDBRANCH  11  12
ENDBRANCH   3   5
BRANCH   1  17
ATOM     14  C   UNL     1       0.850   9.687  19.851  0.00  0.00    +0.000 A 
ATOM     15  C   UNL     1       1.286   8.551  20.547  0.00  0.00    +0.000 A 
ATOM     16  C   UNL     1       2.056   7.575  19.922  0.00  0.00    +0.000 A 
ATOM     17  C   UNL     1       2.418   7.706  18.578  0.00  0.00    +0.000 A 
ATOM     18  C   UNL     1       1.972   8.805  17.848  0.00  0.00    +0.000 A 
ATOM     19  C   UNL     1       1.195   9.786  18.485  0.00  0.00    +0.000 A 
BRANCH  14  21
ATOM     20  C   UNL     1      -1.242  11.190  19.743  0.00  0.00    +0.000 C 
ATOM     21  C   UNL     1       0.017  10.782  20.544  0.00  0.00    +0.000 C 
ATOM     22  C   UNL     1       0.875  12.047  20.733  0.00  0.00    +0.000 C 
ATOM     23  C   UNL     1      -0.470  10.285  21.920  0.00  0.00    +0.000 C 
ENDBRANCH  14  21
ENDBRANCH   1  17
TORSDOF 4
ENDMDL
MODEL 3
REMARK VINA RESULT:      -7.0      5.279      6.863
REMARK  Name = 
REMARK  7 active torsions:
REMARK  status: ('A' for Active; 'I' for Inactive)
REMARK    1  A    between atoms: C_1  and  C_2
REMARK    2  A    between atoms: C_2  and  C_3
REMARK    3  A    between atoms: C_2  and  C_4
REMARK    4  A    between atoms: C_2  and  C_5
REMARK    5  A    between atoms: C_8  and  C_9
REMARK    6  A    between atoms: N_11  and  C_12
REMARK    7  A    between atoms: C_18  and  O_19
REMARK                            x       y       z     vdW  Elec       q    Type
REMARK                         _______ _______ _______ _____ _____    ______ ____
ROOT
ATOM      1  C   UNL     1       7.674   7.829  18.019  0.00  0.00    +0.000 C 
ATOM      2  O   UNL     1       8.186   6.941  18.691  0.00  0.00    +0.000 OA
ATOM      3  N   UNL     1       6.649   7.667  17.097  0.00  0.00    +0.000 N 
ATOM      4  H   UNL     1       6.447   8.402  16.436  0.00  0.00    +0.000 HD
ENDROOT
BRANCH   3   5
ATOM      5  C   UNL     1       5.997   6.428  16.848  0.00  0.00    +0.000 A 
ATOM      6  C   UNL     1       4.805   6.082  17.487  0.00  0.00    +0.000 A 
ATOM      7  C   UNL     1       4.189   4.862  17.229  0.00  0.00    +0.000 A 
ATOM      8 CL   UNL     1       2.741   4.452  18.061  0.00  0.00    +0.000 Cl
ATOM      9  C   UNL     1       4.741   3.978  16.308  0.00  0.00    +0.000 A 
ATOM     10  C   UNL     1       5.928   4.309  15.650  0.00  0.00    +0.000 A 
ATOM     11  C   UNL     1       6.550   5.533  15.922  0.00  0.00    +0.000 A 
BRANCH  11  12
ATOM     12  O   UNL     1       7.728   5.859  15.302  0.00  0.00    +0.000 OA
ATOM     13  H   UNL     1       7.635   5.675  14.352  0.00  0.00    +0.000 HD
ENDBRANCH  11  12
ENDBRANCH   3   5
BRANCH   1  17
ATOM     14  C   UNL     1       9.451  11.708  18.587  0.00  0.00    +0.000 A 
ATOM     15  C   UNL     1       9.784  10.602  19.382  0.00  0.00    +0.000 A 
ATOM     16  C   UNL     1       9.199   9.358  19.166  0.00  0.00    +0.000 A 
ATOM     17  C   UNL     1       8.263   9.178  18.145  0.00  0.00    +0.000 A 
ATOM     18  C   UNL     1       7.883  10.264  17.358  0.00  0.00    +0.000 A 
ATOM     19  C   UNL     1       8.478  11.517  17.581  0.00  0.00    +0.000 A 
BRANCH  14  21
ATOM     20  C   UNL     1      10.807  13.633  17.537  0.00  0.00    +0.000 C 
ATOM     21  C   UNL     1      10.112  13.082  18.805  0.00  0.00    +0.000 C 
ATOM     22  C   UNL     1      11.181  12.975  19.909  0.00  0.00    +0.000 C 
ATOM     23  C   UNL     1       9.050  14.120  19.220  0.00  0.00    +0.000 C 
ENDBRANCH  14  21
ENDBRANCH   1  17
TORSDOF 4
ENDMDL
MODEL 4
REMARK VINA RESULT:      -6.9      3.217      3.744
REMARK  Name = 
REMARK  7 active torsions:
REMARK  status: ('A' for Active; 'I' for Inactive)
REMARK    1  A    between atoms: C_1  and  C_2
REMARK    2  A    between atoms: C_2  and  C_3
REMARK    3  A    between atoms: C_2  and  C_4
REMARK    4  A    between atoms: C_2  and  C_5
REMARK    5  A    between atoms: C_8  and  C_9
REMARK    6  A    between atoms: N_11  and  C_12
REMARK    7  A    between atoms: C_18  and  O_19
REMARK                            x       y       z     vdW  Elec       q    Type
REMARK                         _______ _______ _______ _____ _____    ______ ____
ROOT
ATOM      1  C   UNL     1       2.594   6.584  19.080  0.00  0.00    +0.000 C 
ATOM      2  O   UNL     1       3.557   6.691  18.328  0.00  0.00    +0.000 OA
ATOM      3  N   UNL     1       2.026   5.395  19.514  0.00  0.00    +0.000 N 
ATOM      4  H   UNL     1       1.113   5.401  19.942  0.00  0.00    +0.000 HD
ENDROOT
BRANCH   3   5
ATOM      5  C   UNL     1       2.537   4.108  19.187  0.00  0.00    +0.000 A 
ATOM      6  C   UNL     1       3.477   3.462  19.993  0.00  0.00    +0.000 A 
ATOM      7  C   UNL     1       3.963   2.206  19.649  0.00  0.00    +0.000 A 
ATOM      8 CL   UNL     1       5.148   1.455  20.644  0.00  0.00    +0.000 Cl
ATOM      9  C   UNL     1       3.498   1.562  18.507  0.00  0.00    +0.000 A 
ATOM     10  C   UNL     1       2.550   2.185  17.693  0.00  0.00    +0.000 A 
ATOM     11  C   UNL     1       2.073   3.456  18.037  0.00  0.00    +0.000 A 
BRANCH  11  12
ATOM     12  O   UNL     1       1.162   4.089  17.233  0.00  0.00    +0.000 OA
ATOM     13  H   UNL     1       0.269   3.859  17.543  0.00  0.00    +0.000 HD
ENDBRANCH  11  12
ENDBRANCH   3   5
BRANCH   1  17
ATOM     14  C   UNL     1       0.576  10.135  20.440  0.00  0.00    +0.000 A 
ATOM     15  C   UNL     1       0.817   9.037  21.278  0.00  0.00    +0.000 A 
ATOM     16  C   UNL     1       1.482   7.907  20.810  0.00  0.00    +0.000 A 
ATOM     17  C   UNL     1       1.931   7.839  19.489  0.00  0.00    +0.000 A 
ATOM     18  C   UNL     1       1.677   8.899  18.620  0.00  0.00    +0.000 A 
ATOM     19  C   UNL     1       1.006  10.036  19.098  0.00  0.00    +0.000 A 
BRANCH  14  21
ATOM     20  C   UNL     1      -0.664  11.251  22.405  0.00  0.00    +0.000 C 
ATOM     21  C   UNL     1      -0.137  11.398  20.957  0.00  0.00    +0.000 C 
ATOM     22  C   UNL     1      -1.345  11.719  20.056  0.00  0.00    +0.000 C 
ATOM     23  C   UNL     1       0.835  12.594  20.954  0.00  0.00    +0.000 C 
ENDBRANCH  14  21
ENDBRANCH   1  17
TORSDOF 4
ENDMDL
MODEL 5
REMARK VINA RESULT:      -6.8      3.185      3.825
REMARK  Name = 
REMARK  7 active torsions:
REMARK  status: ('A' for Active; 'I' for Inactive)
REMARK    1  A    between atoms: C_1  and  C_2
REMARK    2  A    between atoms: C_2  and  C_3
REMARK    3  A    between atoms: C_2  and  C_4
REMARK    4  A    between atoms: C_2  and  C_5
REMARK    5  A    between atoms: C_8  and  C_9
REMARK    6  A    between atoms: N_11  and  C_12
REMARK    7  A    between atoms: C_18  and  O_19
REMARK                            x       y       z     vdW  Elec       q    Type
REMARK                         _______ _______ _______ _____ _____    ______ ____
ROOT
ATOM      1  C   UNL     1       2.557   6.639  18.735  0.00  0.00    +0.000 C 
ATOM      2  O   UNL     1       3.341   6.666  17.793  0.00  0.00    +0.000 OA
ATOM      3  N   UNL     1       2.116   5.503  19.398  0.00  0.00    +0.000 N 
ATOM      4  H   UNL     1       1.312   5.555  20.004  0.00  0.00    +0.000 HD
ENDROOT
BRANCH   3   5
ATOM      5  C   UNL     1       2.577   4.189  19.107  0.00  0.00    +0.000 A 
ATOM      6  C   UNL     1       3.502   3.535  19.923  0.00  0.00    +0.000 A 
ATOM      7  C   UNL     1       3.938   2.251  19.614  0.00  0.00    +0.000 A 
ATOM      8 CL   UNL     1       5.107   1.490  20.620  0.00  0.00    +0.000 Cl
ATOM      9  C   UNL     1       3.437   1.589  18.498  0.00  0.00    +0.000 A 
ATOM     10  C   UNL     1       2.502   2.221  17.675  0.00  0.00    +0.000 A 
ATOM     11  C   UNL     1       2.076   3.518  17.984  0.00  0.00    +0.000 A 
BRANCH  11  12
ATOM     12  O   UNL     1       1.178   4.159  17.170  0.00  0.00    +0.000 OA
ATOM     13  H   UNL     1       0.301   4.115  17.587  0.00  0.00    +0.000 HD
ENDBRANCH  11  12
ENDBRANCH   3   5
BRANCH   1  17
ATOM     14  C   UNL     1       0.750  10.304  20.091  0.00  0.00    +0.000 A 
ATOM     15  C   UNL     1       0.969   9.211  20.941  0.00  0.00    +0.000 A 
ATOM     16  C   UNL     1       1.566   8.044  20.475  0.00  0.00    +0.000 A 
ATOM     17  C   UNL     1       1.965   7.932  19.141  0.00  0.00    +0.000 A 
ATOM     18  C   UNL     1       1.731   8.986  18.260  0.00  0.00    +0.000 A 
ATOM     19  C   UNL     1       1.129  10.161  18.737  0.00  0.00    +0.000 A 
BRANCH  14  21
ATOM     20  C   UNL     1      -1.052  12.110  19.719  0.00  0.00    +0.000 C 
ATOM     21  C   UNL     1       0.112  11.607  20.606  0.00  0.00    +0.000 C 
ATOM     22  C   UNL     1       1.173  12.723  20.654  0.00  0.00    +0.000 C 
ATOM     23  C   UNL     1      -0.465  11.391  22.020  0.00  0.00    +0.000 C 
ENDBRANCH  14  21
ENDBRANCH   1  17
TORSDOF 4
ENDMDL
MODEL 6
REMARK VINA RESULT:      -6.8      4.004      7.721
REMARK  Name = 
REMARK  7 active torsions:
REMARK  status: ('A' for Active; 'I' for Inactive)
REMARK    1  A    between atoms: C_1  and  C_2
REMARK    2  A    between atoms: C_2  and  C_3
REMARK    3  A    between atoms: C_2  and  C_4
REMARK    4  A    between atoms: C_2  and  C_5
REMARK    5  A    between atoms: C_8  and  C_9
REMARK    6  A    between atoms: N_11  and  C_12
REMARK    7  A    between atoms: C_18  and  O_19
REMARK                            x       y       z     vdW  Elec       q    Type
REMARK                         _______ _______ _______ _____ _____    ______ ____
ROOT
ATOM      1  C   UNL     1       1.826   8.635  18.437  0.00  0.00    +0.000 C 
ATOM      2  O   UNL     1       2.365   8.948  17.382  0.00  0.00    +0.000 OA
ATOM      3  N   UNL     1       1.089   9.477  19.258  0.00  0.00    +0.000 N 
ATOM      4  H   UNL     1       0.876   9.197  20.204  0.00  0.00    +0.000 HD
ENDROOT
BRANCH   3   5
ATOM      5  C   UNL     1       0.800  10.834  18.945  0.00  0.00    +0.000 A 
ATOM      6  C   UNL     1       1.805  11.798  18.849  0.00  0.00    +0.000 A 
ATOM      7  C   UNL     1       1.495  13.119  18.544  0.00  0.00    +0.000 A 
ATOM      8 CL   UNL     1       2.754  14.288  18.470  0.00  0.00    +0.000 Cl
ATOM      9  C   UNL     1       0.177  13.493  18.303  0.00  0.00    +0.000 A 
ATOM     10  C   UNL     1      -0.843  12.542  18.383  0.00  0.00    +0.000 A 
ATOM     11  C   UNL     1      -0.526  11.216  18.703  0.00  0.00    +0.000 A 
BRANCH  11  12
ATOM     12  O   UNL     1      -1.520  10.279  18.809  0.00  0.00    +0.000 OA
ATOM     13  H   UNL     1      -2.071  10.503  19.578  0.00  0.00    +0.000 HD
ENDBRANCH  11  12
ENDBRANCH   3   5
BRANCH   1  17
ATOM     14  C   UNL     1       2.476   4.550  19.628  0.00  0.00    +0.000 A 
ATOM     15  C   UNL     1       2.623   4.981  18.303  0.00  0.00    +0.000 A 
ATOM     16  C   UNL     1       2.416   6.312  17.951  0.00  0.00    +0.000 A 
ATOM     17  C   UNL     1       2.057   7.256  18.916  0.00  0.00    +0.000 A 
ATOM     18  C   UNL     1       1.869   6.855  20.237  0.00  0.00    +0.000 A 
ATOM     19  C   UNL     1       2.080   5.510  20.585  0.00  0.00    +0.000 A 
BRANCH  14  21
ATOM     20  C   UNL     1       4.201   2.647  19.853  0.00  0.00    +0.000 C 
ATOM     21  C   UNL     1       2.727   3.084  20.028  0.00  0.00    +0.000 C 
ATOM     22  C   UNL     1       1.862   2.152  19.158  0.00  0.00    +0.000 C 
ATOM     23  C   UNL     1       2.371   2.872  21.513  0.00  0.00    +0.000 C 
ENDBRANCH  14  21
ENDBRANCH   1  17
TORSDOF 4
ENDMDL
MODEL 7
REMARK VINA RESULT:      -6.8      3.210      3.708
REMARK  Name = 
REMARK  7 active torsions:
REMARK  status: ('A' for Active; 'I' for Inactive)
REMARK    1  A    between atoms: C_1  and  C_2
REMARK    2  A    between atoms: C_2  and  C_3
REMARK    3  A    between atoms: C_2  and  C_4
REMARK    4  A    between atoms: C_2  and  C_5
REMARK    5  A    between atoms: C_8  and  C_9
REMARK    6  A    between atoms: N_11  and  C_12
REMARK    7  A    between atoms: C_18  and  O_19
REMARK                            x       y       z     vdW  Elec       q    Type
REMARK                         _______ _______ _______ _____ _____    ______ ____
ROOT
ATOM      1  C   UNL     1       2.572   6.566  19.087  0.00  0.00    +0.000 C 
ATOM      2  O   UNL     1       3.552   6.679  18.359  0.00  0.00    +0.000 OA
ATOM      3  N   UNL     1       1.994   5.375  19.501  0.00  0.00    +0.000 N 
ATOM      4  H   UNL     1       1.072   5.378  19.907  0.00  0.00    +0.000 HD
ENDROOT
BRANCH   3   5
ATOM      5  C   UNL     1       2.514   4.090  19.179  0.00  0.00    +0.000 A 
ATOM      6  C   UNL     1       3.457   3.453  19.988  0.00  0.00    +0.000 A 
ATOM      7  C   UNL     1       3.951   2.198  19.648  0.00  0.00    +0.000 A 
ATOM      8 CL   UNL     1       5.139   1.458  20.647  0.00  0.00    +0.000 Cl
ATOM      9  C   UNL     1       3.492   1.548  18.507  0.00  0.00    +0.000 A 
ATOM     10  C   UNL     1       2.541   2.163  17.690  0.00  0.00    +0.000 A 
ATOM     11  C   UNL     1       2.056   3.432  18.030  0.00  0.00    +0.000 A 
BRANCH  11  12
ATOM     12  O   UNL     1       1.141   4.057  17.223  0.00  0.00    +0.000 OA
ATOM     13  H   UNL     1       1.131   3.603  16.364  0.00  0.00    +0.000 HD
ENDBRANCH  11  12
ENDBRANCH   3   5
BRANCH   1  17
ATOM     14  C   UNL     1       0.704  10.314  20.088  0.00  0.00    +0.000 A 
ATOM     15  C   UNL     1       1.226  10.048  18.814  0.00  0.00    +0.000 A 
ATOM     16  C   UNL     1       1.814   8.822  18.518  0.00  0.00    +0.000 A 
ATOM     17  C   UNL     1       1.898   7.820  19.488  0.00  0.00    +0.000 A 
ATOM     18  C   UNL     1       1.420   8.063  20.775  0.00  0.00    +0.000 A 
ATOM     19  C   UNL     1       0.827   9.302  21.066  0.00  0.00    +0.000 A 
BRANCH  14  21
ATOM     20  C   UNL     1      -1.237  11.929  19.567  0.00  0.00    +0.000 C 
ATOM     21  C   UNL     1       0.030  11.659  20.414  0.00  0.00    +0.000 C 
ATOM     22  C   UNL     1       1.016  12.813  20.151  0.00  0.00    +0.000 C 
ATOM     23  C   UNL     1      -0.407  11.688  21.893  0.00  0.00    +0.000 C 
ENDBRANCH  14  21
ENDBRANCH   1  17
TORSDOF 4
ENDMDL
MODEL 8
REMARK VINA RESULT:      -6.8      3.249      3.736
REMARK  Name = 
REMARK  7 active torsions:
REMARK  status: ('A' for Active; 'I' for Inactive)
REMARK    1  A    between atoms: C_1  and  C_2
REMARK    2  A    between atoms: C_2  and  C_3
REMARK    3  A    between atoms: C_2  and  C_4
REMARK    4  A    between atoms: C_2  and  C_5
REMARK    5  A    between atoms: C_8  and  C_9
REMARK    6  A    between atoms: N_11  and  C_12
REMARK    7  A    between atoms: C_18  and  O_19
REMARK                            x       y       z     vdW  Elec       q    Type
REMARK                         _______ _______ _______ _____ _____    ______ ____
ROOT
ATOM      1  C   UNL     1       2.494   6.600  19.267  0.00  0.00    +0.000 C 
ATOM      2  O   UNL     1       3.464   6.756  18.535  0.00  0.00    +0.000 OA
ATOM      3  N   UNL     1       1.935   5.385  19.637  0.00  0.00    +0.000 N 
ATOM      4  H   UNL     1       1.017   5.360  20.053  0.00  0.00    +0.000 HD
ENDROOT
BRANCH   3   5
ATOM      5  C   UNL     1       2.467   4.122  19.255  0.00  0.00    +0.000 A 
ATOM      6  C   UNL     1       3.412   3.454  20.036  0.00  0.00    +0.000 A 
ATOM      7  C   UNL     1       3.918   2.222  19.637  0.00  0.00    +0.000 A 
ATOM      8 CL   UNL     1       5.109   1.444  20.604  0.00  0.00    +0.000 Cl
ATOM      9  C   UNL     1       3.468   1.623  18.466  0.00  0.00    +0.000 A 
ATOM     10  C   UNL     1       2.515   2.269  17.676  0.00  0.00    +0.000 A 
ATOM     11  C   UNL     1       2.018   3.516  18.075  0.00  0.00    +0.000 A 
BRANCH  11  12
ATOM     12  O   UNL     1       1.100   4.172  17.295  0.00  0.00    +0.000 OA
ATOM     13  H   UNL     1       1.581   4.710  16.645  0.00  0.00    +0.000 HD
ENDBRANCH  11  12
ENDBRANCH   3   5
BRANCH   1  17
ATOM     14  C   UNL     1       0.588  10.277  20.442  0.00  0.00    +0.000 A 
ATOM     15  C   UNL     1       1.071  10.060  19.144  0.00  0.00    +0.000 A 
ATOM     16  C   UNL     1       1.673   8.855  18.793  0.00  0.00    +0.000 A 
ATOM     17  C   UNL     1       1.809   7.827  19.728  0.00  0.00    +0.000 A 
ATOM     18  C   UNL     1       1.372   8.023  21.037  0.00  0.00    +0.000 A 
ATOM     19  C   UNL     1       0.765   9.240  21.385  0.00  0.00    +0.000 A 
BRANCH  14  21
ATOM     20  C   UNL     1       0.847  12.821  20.774  0.00  0.00    +0.000 C 
ATOM     21  C   UNL     1      -0.101  11.599  20.831  0.00  0.00    +0.000 C 
ATOM     22  C   UNL     1      -0.642  11.500  22.270  0.00  0.00    +0.000 C 
ATOM     23  C   UNL     1      -1.267  11.892  19.866  0.00  0.00    +0.000 C 
ENDBRANCH  14  21
ENDBRANCH   1  17
TORSDOF 4
ENDMDL
MODEL 9
REMARK VINA RESULT:      -6.7      1.925      2.687
REMARK  Name = 
REMARK  7 active torsions:
REMARK  status: ('A' for Active; 'I' for Inactive)
REMARK    1  A    between atoms: C_1  and  C_2
REMARK    2  A    between atoms: C_2  and  C_3
REMARK    3  A    between atoms: C_2  and  C_4
REMARK    4  A    between atoms: C_2  and  C_5
REMARK    5  A    between atoms: C_8  and  C_9
REMARK    6  A    between atoms: N_11  and  C_12
REMARK    7  A    between atoms: C_18  and  O_19
REMARK                            x       y       z     vdW  Elec       q    Type
REMARK                         _______ _______ _______ _____ _____    ______ ____
ROOT
ATOM      1  C   UNL     1       2.237   8.168  18.355  0.00  0.00    +0.000 C 
ATOM      2  O   UNL     1       2.437   8.562  17.211  0.00  0.00    +0.000 OA
ATOM      3  N   UNL     1       2.633   6.946  18.878  0.00  0.00    +0.000 N 
ATOM      4  H   UNL     1       2.236   6.618  19.745  0.00  0.00    +0.000 HD
ENDROOT
BRANCH   3   5
ATOM      5  C   UNL     1       3.398   5.987  18.157  0.00  0.00    +0.000 A 
ATOM      6  C   UNL     1       4.735   6.212  17.823  0.00  0.00    +0.000 A 
ATOM      7  C   UNL     1       5.460   5.260  17.115  0.00  0.00    +0.000 A 
ATOM      8 CL   UNL     1       7.094   5.585  16.688  0.00  0.00    +0.000 Cl
ATOM      9  C   UNL     1       4.868   4.055  16.750  0.00  0.00    +0.000 A 
ATOM     10  C   UNL     1       3.534   3.806  17.084  0.00  0.00    +0.000 A 
ATOM     11  C   UNL     1       2.806   4.773  17.787  0.00  0.00    +0.000 A 
BRANCH  11  12
ATOM     12  O   UNL     1       1.490   4.551  18.098  0.00  0.00    +0.000 OA
ATOM     13  H   UNL     1       1.379   3.607  18.303  0.00  0.00    +0.000 HD
ENDBRANCH  11  12
ENDBRANCH   3   5
BRANCH   1  17
ATOM     14  C   UNL     1      -0.078  10.888  20.758  0.00  0.00    +0.000 A 
ATOM     15  C   UNL     1       0.250  11.155  19.421  0.00  0.00    +0.000 A 
ATOM     16  C   UNL     1       0.992  10.250  18.667  0.00  0.00    +0.000 A 
ATOM     17  C   UNL     1       1.427   9.046  19.226  0.00  0.00    +0.000 A 
ATOM     18  C   UNL     1       1.148   8.764  20.562  0.00  0.00    +0.000 A 
ATOM     19  C   UNL     1       0.399   9.682  21.316  0.00  0.00    +0.000 A 
BRANCH  14  21
ATOM     20  C   UNL     1      -1.367  11.295  22.953  0.00  0.00    +0.000 C 
ATOM     21  C   UNL     1      -0.919  11.874  21.590  0.00  0.00    +0.000 C 
ATOM     22  C   UNL     1      -2.190  12.262  20.811  0.00  0.00    +0.000 C 
ATOM     23  C   UNL     1      -0.098  13.144  21.892  0.00  0.00    +0.000 C 
ENDBRANCH  14  21
ENDBRANCH   1  17
TORSDOF 4
ENDMDL
