MODEL 1
REMARK VINA RESULT:      -8.3      0.000      0.000
REMARK  Name = 
REMARK  7 active torsions:
REMARK  status: ('A' for Active; 'I' for Inactive)
REMARK    1  A    between atoms: C_1  and  N_2
REMARK    2  A    between atoms: N_2  and  C_3
REMARK    3  A    between atoms: N_2  and  C_20
REMARK    4  A    between atoms: C_3  and  C_4
REMARK    5  A    between atoms: C_7  and  C_8
REMARK    6  A    between atoms: C_8  and  C_10
REMARK    7  A    between atoms: C_13  and  O_14
REMARK                            x       y       z     vdW  Elec       q    Type
REMARK                         _______ _______ _______ _____ _____    ______ ____
ROOT
ATOM      1  C   UNL     1       2.565   7.106  18.561  0.00  0.00    +0.000 A 
ATOM      2  C   UNL     1       2.141   7.173  19.896  0.00  0.00    +0.000 A 
ATOM      3  C   UNL     1       1.461   8.297  20.369  0.00  0.00    +0.000 A 
ATOM      4  C   UNL     1       1.215   9.375  19.514  0.00  0.00    +0.000 A 
ATOM      5  C   UNL     1       1.696   9.348  18.202  0.00  0.00    +0.000 A 
ATOM      6  C   UNL     1       2.348   8.208  17.722  0.00  0.00    +0.000 A 
ENDROOT
BRANCH   4   7
ATOM      7  C   UNL     1       0.452  10.537  20.046  0.00  0.00    +0.000 C 
ATOM      8  O   UNL     1       0.930  11.212  20.953  0.00  0.00    +0.000 OA
BRANCH   7   9
ATOM      9  C   UNL     1      -0.879  10.909  19.501  0.00  0.00    +0.000 A 
ATOM     10  C   UNL     1      -1.558  11.985  20.087  0.00  0.00    +0.000 A 
ATOM     11  C   UNL     1      -2.800  12.391  19.593  0.00  0.00    +0.000 A 
ATOM     12  C   UNL     1      -3.363  11.712  18.515  0.00  0.00    +0.000 A 
ATOM     13  C   UNL     1      -2.699  10.622  17.953  0.00  0.00    +0.000 A 
ATOM     14  F   UNL     1      -3.237   9.961  16.917  0.00  0.00    +0.000 F 
ATOM     15  C   UNL     1      -1.468  10.205  18.446  0.00  0.00    +0.000 A 
BRANCH  12  16
ATOM     16  O   UNL     1      -4.565  12.096  17.996  0.00  0.00    +0.000 OA
ATOM     17  H   UNL     1      -4.510  12.095  17.027  0.00  0.00    +0.000 HD
ENDBRANCH  12  16
ENDBRANCH   7   9
ENDBRANCH   4   7
BRANCH   1  18
ATOM     18  C   UNL     1       3.241   5.857  18.027  0.00  0.00    +0.000 C 
BRANCH  18  20
ATOM     19  C   UNL     1       5.091   4.797  19.181  0.00  0.00    +0.000 C 
ATOM     20  N   UNL     1       3.626   4.873  19.067  0.00  0.00    +0.000 NA
BRANCH  20  21
ATOM     21  C   UNL     1       3.043   3.526  18.780  0.00  0.00    +0.000 C 
ATOM     22  C   UNL     1       3.427   2.447  19.828  0.00  0.00    +0.000 C 
ATOM     23  C   UNL     1       2.836   2.732  21.211  0.00  0.00    +0.000 C 
ATOM     24  C   UNL     1       1.318   2.901  21.155  0.00  0.00    +0.000 C 
ATOM     25  C   UNL     1       0.889   3.900  20.084  0.00  0.00    +0.000 C 
ATOM     26  C   UNL     1       1.496   3.532  18.730  0.00  0.00    +0.000 C 
ENDBRANCH  20  21
ENDBRANCH  18  20
ENDBRANCH   1  18
TORSDOF 6
ENDMDL
MODEL 2
REMARK VINA RESULT:      -8.3      0.960      1.096
REMARK  Name = 
REMARK  7 active torsions:
REMARK  status: ('A' for Active; 'I' for Inactive)
REMARK    1  A    between atoms: C_1  and  N_2
REMARK    2  A    between atoms: N_2  and  C_3
REMARK    3  A    between atoms: N_2  and  C_20
REMARK    4  A    between atoms: C_3  and  C_4
REMARK    5  A    between atoms: C_7  and  C_8
REMARK    6  A    between atoms: C_8  and  C_10
REMARK    7  A    between atoms: C_13  and  O_14
REMARK                            x       y       z     vdW  Elec       q    Type
REMARK                         _______ _______ _______ _____ _____    ______ ____
ROOT
ATOM      1  C   UNL     1       3.156   6.966  18.326  0.00  0.00    +0.000 A 
ATOM      2  C   UNL     1       2.560   6.852  19.591  0.00  0.00    +0.000 A 
ATOM      3  C   UNL     1       1.700   7.846  20.062  0.00  0.00    +0.000 A 
ATOM      4  C   UNL     1       1.442   8.975  19.279  0.00  0.00    +0.000 A 
ATOM      5  C   UNL     1       2.086   9.132  18.048  0.00  0.00    +0.000 A 
ATOM      6  C   UNL     1       2.921   8.120  17.566  0.00  0.00    +0.000 A 
ENDROOT
BRANCH   4   7
ATOM      7  C   UNL     1       0.489   9.991  19.800  0.00  0.00    +0.000 C 
ATOM      8  O   UNL     1       0.667  10.475  20.914  0.00  0.00    +0.000 OA
BRANCH   7   9
ATOM      9  C   UNL     1      -0.679  10.445  19.001  0.00  0.00    +0.000 A 
ATOM     10  C   UNL     1      -1.470  11.482  19.513  0.00  0.00    +0.000 A 
ATOM     11  C   UNL     1      -2.563  11.963  18.787  0.00  0.00    +0.000 A 
ATOM     12  C   UNL     1      -2.863  11.399  17.550  0.00  0.00    +0.000 A 
ATOM     13  C   UNL     1      -2.092  10.347  17.056  0.00  0.00    +0.000 A 
ATOM     14  F   UNL     1      -2.378   9.797  15.867  0.00  0.00    +0.000 F 
ATOM     15  C   UNL     1      -1.010   9.856  17.778  0.00  0.00    +0.000 A 
BRANCH  12  16
ATOM     16  O   UNL     1      -3.911  11.859  16.806  0.00  0.00    +0.000 OA
ATOM     17  H   UNL     1      -3.851  12.825  16.732  0.00  0.00    +0.000 HD
ENDBRANCH  12  16
ENDBRANCH   7   9
ENDBRANCH   4   7
BRANCH   1  18
ATOM     18  C   UNL     1       4.034   5.855  17.783  0.00  0.00    +0.000 C 
BRANCH  18  20
ATOM     19  C   UNL     1       5.519   4.577  19.210  0.00  0.00    +0.000 C 
ATOM     20  N   UNL     1       4.153   4.675  18.672  0.00  0.00    +0.000 NA
BRANCH  20  21
ATOM     21  C   UNL     1       3.769   3.418  17.959  0.00  0.00    +0.000 C 
ATOM     22  C   UNL     1       3.553   2.207  18.907  0.00  0.00    +0.000 C 
ATOM     23  C   UNL     1       2.351   2.394  19.836  0.00  0.00    +0.000 C 
ATOM     24  C   UNL     1       1.072   2.692  19.055  0.00  0.00    +0.000 C 
ATOM     25  C   UNL     1       1.259   3.829  18.055  0.00  0.00    +0.000 C 
ATOM     26  C   UNL     1       2.459   3.557  17.147  0.00  0.00    +0.000 C 
ENDBRANCH  20  21
ENDBRANCH  18  20
ENDBRANCH   1  18
TORSDOF 6
ENDMDL
MODEL 3
REMARK VINA RESULT:      -8.2      0.983      1.379
REMARK  Name = 
REMARK  7 active torsions:
REMARK  status: ('A' for Active; 'I' for Inactive)
REMARK    1  A    between atoms: C_1  and  N_2
REMARK    2  A    between atoms: N_2  and  C_3
REMARK    3  A    between atoms: N_2  and  C_20
REMARK    4  A    between atoms: C_3  and  C_4
REMARK    5  A    between atoms: C_7  and  C_8
REMARK    6  A    between atoms: C_8  and  C_10
REMARK    7  A    between atoms: C_13  and  O_14
REMARK                            x       y       z     vdW  Elec       q    Type
REMARK                         _______ _______ _______ _____ _____    ______ ____
ROOT
ATOM      1  C   UNL     1       2.499   7.030  18.675  0.00  0.00    +0.000 A 
ATOM      2  C   UNL     1       2.066   7.075  20.008  0.00  0.00    +0.000 A 
ATOM      3  C   UNL     1       1.439   8.216  20.512  0.00  0.00    +0.000 A 
ATOM      4  C   UNL     1       1.254   9.332  19.690  0.00  0.00    +0.000 A 
ATOM      5  C   UNL     1       1.745   9.323  18.381  0.00  0.00    +0.000 A 
ATOM      6  C   UNL     1       2.344   8.168  17.870  0.00  0.00    +0.000 A 
ENDROOT
BRANCH   4   7
ATOM      7  C   UNL     1       0.545  10.513  20.253  0.00  0.00    +0.000 C 
ATOM      8  O   UNL     1       1.043  11.128  21.192  0.00  0.00    +0.000 OA
BRANCH   7   9
ATOM      9  C   UNL     1      -0.755  10.975  19.704  0.00  0.00    +0.000 A 
ATOM     10  C   UNL     1      -1.253  10.342  18.557  0.00  0.00    +0.000 A 
ATOM     11  C   UNL     1      -2.485  10.722  18.018  0.00  0.00    +0.000 A 
ATOM     12  C   UNL     1      -3.213  11.741  18.626  0.00  0.00    +0.000 A 
ATOM     13  C   UNL     1      -2.702  12.390  19.750  0.00  0.00    +0.000 A 
ATOM     14  F   UNL     1      -3.396  13.374  20.339  0.00  0.00    +0.000 F 
ATOM     15  C   UNL     1      -1.472  12.025  20.286  0.00  0.00    +0.000 A 
BRANCH  12  16
ATOM     16  O   UNL     1      -4.429  12.122  18.137  0.00  0.00    +0.000 OA
ATOM     17  H   UNL     1      -5.005  11.344  18.070  0.00  0.00    +0.000 HD
ENDBRANCH  12  16
ENDBRANCH   7   9
ENDBRANCH   4   7
BRANCH   1  18
ATOM     18  C   UNL     1       3.117   5.767  18.105  0.00  0.00    +0.000 C 
BRANCH  18  20
ATOM     19  C   UNL     1       5.075   4.804  19.160  0.00  0.00    +0.000 C 
ATOM     20  N   UNL     1       3.604   4.807  19.125  0.00  0.00    +0.000 NA
BRANCH  20  21
ATOM     21  C   UNL     1       3.074   3.433  18.873  0.00  0.00    +0.000 C 
ATOM     22  C   UNL     1       3.461   2.405  19.971  0.00  0.00    +0.000 C 
ATOM     23  C   UNL     1       2.821   2.721  21.325  0.00  0.00    +0.000 C 
ATOM     24  C   UNL     1       1.301   2.838  21.220  0.00  0.00    +0.000 C 
ATOM     25  C   UNL     1       0.871   3.782  20.101  0.00  0.00    +0.000 C 
ATOM     26  C   UNL     1       1.529   3.385  18.779  0.00  0.00    +0.000 C 
ENDBRANCH  20  21
ENDBRANCH  18  20
ENDBRANCH   1  18
TORSDOF 6
ENDMDL
MODEL 4
REMARK VINA RESULT:      -8.0      1.610      2.917
REMARK  Name = 
REMARK  7 active torsions:
REMARK  status: ('A' for Active; 'I' for Inactive)
REMARK    1  A    between atoms: C_1  and  N_2
REMARK    2  A    between atoms: N_2  and  C_3
REMARK    3  A    between atoms: N_2  and  C_20
REMARK    4  A    between atoms: C_3  and  C_4
REMARK    5  A    between atoms: C_7  and  C_8
REMARK    6  A    between atoms: C_8  and  C_10
REMARK    7  A    between atoms: C_13  and  O_14
REMARK                            x       y       z     vdW  Elec       q    Type
REMARK                         _______ _______ _______ _____ _____    ______ ____
ROOT
ATOM      1  C   UNL     1       2.429   7.011  19.213  0.00  0.00    +0.000 A 
ATOM      2  C   UNL     1       1.756   7.604  20.291  0.00  0.00    +0.000 A 
ATOM      3  C   UNL     1       1.113   8.834  20.135  0.00  0.00    +0.000 A 
ATOM      4  C   UNL     1       1.152   9.491  18.902  0.00  0.00    +0.000 A 
ATOM      5  C   UNL     1       1.880   8.943  17.843  0.00  0.00    +0.000 A 
ATOM      6  C   UNL     1       2.497   7.697  17.992  0.00  0.00    +0.000 A 
ENDROOT
BRANCH   4   7
ATOM      7  C   UNL     1       0.421  10.780  18.767  0.00  0.00    +0.000 C 
ATOM      8  O   UNL     1       1.005  11.836  18.991  0.00  0.00    +0.000 OA
BRANCH   7   9
ATOM      9  C   UNL     1      -1.007  10.824  18.359  0.00  0.00    +0.000 A 
ATOM     10  C   UNL     1      -1.870  11.679  19.057  0.00  0.00    +0.000 A 
ATOM     11  C   UNL     1      -3.216  11.777  18.694  0.00  0.00    +0.000 A 
ATOM     12  C   UNL     1      -3.695  11.012  17.633  0.00  0.00    +0.000 A 
ATOM     13  C   UNL     1      -2.841  10.140  16.958  0.00  0.00    +0.000 A 
ATOM     14  F   UNL     1      -3.297   9.399  15.938  0.00  0.00    +0.000 F 
ATOM     15  C   UNL     1      -1.504  10.029  17.322  0.00  0.00    +0.000 A 
BRANCH  12  16
ATOM     16  O   UNL     1      -4.999  11.100  17.240  0.00  0.00    +0.000 OA
ATOM     17  H   UNL     1      -5.541  11.393  17.989  0.00  0.00    +0.000 HD
ENDBRANCH  12  16
ENDBRANCH   7   9
ENDBRANCH   4   7
BRANCH   1  18
ATOM     18  C   UNL     1       3.068   5.643  19.360  0.00  0.00    +0.000 C 
BRANCH  18  20
ATOM     19  C   UNL     1       2.296   3.950  17.806  0.00  0.00    +0.000 C 
ATOM     20  N   UNL     1       3.340   4.951  18.077  0.00  0.00    +0.000 NA
BRANCH  20  21
ATOM     21  C   UNL     1       4.696   4.320  18.078  0.00  0.00    +0.000 C 
ATOM     22  C   UNL     1       5.122   3.759  16.694  0.00  0.00    +0.000 C 
ATOM     23  C   UNL     1       5.313   4.859  15.647  0.00  0.00    +0.000 C 
ATOM     24  C   UNL     1       6.304   5.923  16.116  0.00  0.00    +0.000 C 
ATOM     25  C   UNL     1       5.967   6.450  17.508  0.00  0.00    +0.000 C 
ATOM     26  C   UNL     1       5.820   5.297  18.500  0.00  0.00    +0.000 C 
ENDBRANCH  20  21
ENDBRANCH  18  20
ENDBRANCH   1  18
TORSDOF 6
ENDMDL
MODEL 5
REMARK VINA RESULT:      -7.9      0.978      1.684
REMARK  Name = 
REMARK  7 active torsions:
REMARK  status: ('A' for Active; 'I' for Inactive)
REMARK    1  A    between atoms: C_1  and  N_2
REMARK    2  A    between atoms: N_2  and  C_3
REMARK    3  A    between atoms: N_2  and  C_20
REMARK    4  A    between atoms: C_3  and  C_4
REMARK    5  A    between atoms: C_7  and  C_8
REMARK    6  A    between atoms: C_8  and  C_10
REMARK    7  A    between atoms: C_13  and  O_14
REMARK                            x       y       z     vdW  Elec       q    Type
REMARK                         _______ _______ _______ _____ _____    ______ ____
ROOT
ATOM      1  C   UNL     1       2.740   7.195  18.390  0.00  0.00    +0.000 A 
ATOM      2  C   UNL     1       2.515   8.307  17.565  0.00  0.00    +0.000 A 
ATOM      3  C   UNL     1       1.788   9.403  18.034  0.00  0.00    +0.000 A 
ATOM      4  C   UNL     1       1.262   9.389  19.330  0.00  0.00    +0.000 A 
ATOM      5  C   UNL     1       1.420   8.257  20.134  0.00  0.00    +0.000 A 
ATOM      6  C   UNL     1       2.175   7.174  19.673  0.00  0.00    +0.000 A 
ENDROOT
BRANCH   4   7
ATOM      7  C   UNL     1       0.528  10.592  19.805  0.00  0.00    +0.000 C 
ATOM      8  O   UNL     1       1.043  11.325  20.645  0.00  0.00    +0.000 OA
BRANCH   7   9
ATOM      9  C   UNL     1      -0.819  10.938  19.284  0.00  0.00    +0.000 A 
ATOM     10  C   UNL     1      -1.264  10.299  18.119  0.00  0.00    +0.000 A 
ATOM     11  C   UNL     1      -2.534  10.570  17.604  0.00  0.00    +0.000 A 
ATOM     12  C   UNL     1      -3.355  11.486  18.256  0.00  0.00    +0.000 A 
ATOM     13  C   UNL     1      -2.900  12.143  19.399  0.00  0.00    +0.000 A 
ATOM     14  F   UNL     1      -3.684  13.029  20.030  0.00  0.00    +0.000 F 
ATOM     15  C   UNL     1      -1.632  11.887  19.910  0.00  0.00    +0.000 A 
BRANCH  12  16
ATOM     16  O   UNL     1      -4.610  11.757  17.791  0.00  0.00    +0.000 OA
ATOM     17  H   UNL     1      -4.545  12.149  16.905  0.00  0.00    +0.000 HD
ENDBRANCH  12  16
ENDBRANCH   7   9
ENDBRANCH   4   7
BRANCH   1  18
ATOM     18  C   UNL     1       3.589   6.034  17.907  0.00  0.00    +0.000 C 
BRANCH  18  20
ATOM     19  C   UNL     1       5.386   5.196  19.302  0.00  0.00    +0.000 C 
ATOM     20  N   UNL     1       3.960   5.062  18.964  0.00  0.00    +0.000 NA
BRANCH  20  21
ATOM     21  C   UNL     1       3.639   3.662  18.550  0.00  0.00    +0.000 C 
ATOM     22  C   UNL     1       3.829   2.619  19.684  0.00  0.00    +0.000 C 
ATOM     23  C   UNL     1       2.841   2.815  20.836  0.00  0.00    +0.000 C 
ATOM     24  C   UNL     1       1.393   2.811  20.349  0.00  0.00    +0.000 C 
ATOM     25  C   UNL     1       1.175   3.769  19.181  0.00  0.00    +0.000 C 
ATOM     26  C   UNL     1       2.180   3.492  18.062  0.00  0.00    +0.000 C 
ENDBRANCH  20  21
ENDBRANCH  18  20
ENDBRANCH   1  18
TORSDOF 6
ENDMDL
MODEL 6
REMARK VINA RESULT:      -7.9      1.733      3.114
REMARK  Name = 
REMARK  7 active torsions:
REMARK  status: ('A' for Active; 'I' for Inactive)
REMARK    1  A    between atoms: C_1  and  N_2
REMARK    2  A    between atoms: N_2  and  C_3
REMARK    3  A    between atoms: N_2  and  C_20
REMARK    4  A    between atoms: C_3  and  C_4
REMARK    5  A    between atoms: C_7  and  C_8
REMARK    6  A    between atoms: C_8  and  C_10
REMARK    7  A    between atoms: C_13  and  O_14
REMARK                            x       y       z     vdW  Elec       q    Type
REMARK                         _______ _______ _______ _____ _____    ______ ____
ROOT
ATOM      1  C   UNL     1       2.352   7.292  19.339  0.00  0.00    +0.000 A 
ATOM      2  C   UNL     1       1.655   7.916  20.385  0.00  0.00    +0.000 A 
ATOM      3  C   UNL     1       0.988   9.123  20.173  0.00  0.00    +0.000 A 
ATOM      4  C   UNL     1       1.025   9.729  18.913  0.00  0.00    +0.000 A 
ATOM      5  C   UNL     1       1.775   9.153  17.884  0.00  0.00    +0.000 A 
ATOM      6  C   UNL     1       2.416   7.928  18.091  0.00  0.00    +0.000 A 
ENDROOT
BRANCH   4   7
ATOM      7  C   UNL     1       0.267  10.994  18.717  0.00  0.00    +0.000 C 
ATOM      8  O   UNL     1       0.854  12.070  18.785  0.00  0.00    +0.000 OA
BRANCH   7   9
ATOM      9  C   UNL     1      -1.192  10.992  18.435  0.00  0.00    +0.000 A 
ATOM     10  C   UNL     1      -1.681  10.085  17.486  0.00  0.00    +0.000 A 
ATOM     11  C   UNL     1      -3.049  10.024  17.204  0.00  0.00    +0.000 A 
ATOM     12  C   UNL     1      -3.922  10.879  17.872  0.00  0.00    +0.000 A 
ATOM     13  C   UNL     1      -3.429  11.802  18.794  0.00  0.00    +0.000 A 
ATOM     14  F   UNL     1      -4.265  12.629  19.438  0.00  0.00    +0.000 F 
ATOM     15  C   UNL     1      -2.069  11.875  19.071  0.00  0.00    +0.000 A 
BRANCH  12  16
ATOM     16  O   UNL     1      -5.266  10.832  17.635  0.00  0.00    +0.000 OA
ATOM     17  H   UNL     1      -5.443  11.129  16.729  0.00  0.00    +0.000 HD
ENDBRANCH  12  16
ENDBRANCH   7   9
ENDBRANCH   4   7
BRANCH   1  18
ATOM     18  C   UNL     1       3.019   5.946  19.549  0.00  0.00    +0.000 C 
BRANCH  18  20
ATOM     19  C   UNL     1       2.142   4.174  18.146  0.00  0.00    +0.000 C 
ATOM     20  N   UNL     1       3.222   5.161  18.308  0.00  0.00    +0.000 NA
BRANCH  20  21
ATOM     21  C   UNL     1       4.559   4.492  18.302  0.00  0.00    +0.000 C 
ATOM     22  C   UNL     1       4.877   3.748  16.977  0.00  0.00    +0.000 C 
ATOM     23  C   UNL     1       5.022   4.701  15.787  0.00  0.00    +0.000 C 
ATOM     24  C   UNL     1       6.067   5.784  16.051  0.00  0.00    +0.000 C 
ATOM     25  C   UNL     1       5.838   6.493  17.383  0.00  0.00    +0.000 C 
ATOM     26  C   UNL     1       5.732   5.479  18.523  0.00  0.00    +0.000 C 
ENDBRANCH  20  21
ENDBRANCH  18  20
ENDBRANCH   1  18
TORSDOF 6
ENDMDL
MODEL 7
REMARK VINA RESULT:      -7.8      0.985      1.445
REMARK  Name = 
REMARK  7 active torsions:
REMARK  status: ('A' for Active; 'I' for Inactive)
REMARK    1  A    between atoms: C_1  and  N_2
REMARK    2  A    between atoms: N_2  and  C_3
REMARK    3  A    between atoms: N_2  and  C_20
REMARK    4  A    between atoms: C_3  and  C_4
REMARK    5  A    between atoms: C_7  and  C_8
REMARK    6  A    between atoms: C_8  and  C_10
REMARK    7  A    between atoms: C_13  and  O_14
REMARK                            x       y       z     vdW  Elec       q    Type
REMARK                         _______ _______ _______ _____ _____    ______ ____
ROOT
ATOM      1  C   UNL     1       3.097   7.038  18.378  0.00  0.00    +0.000 A 
ATOM      2  C   UNL     1       2.697   8.148  17.619  0.00  0.00    +0.000 A 
ATOM      3  C   UNL     1       1.849   9.113  18.165  0.00  0.00    +0.000 A 
ATOM      4  C   UNL     1       1.377   8.968  19.473  0.00  0.00    +0.000 A 
ATOM      5  C   UNL     1       1.711   7.831  20.213  0.00  0.00    +0.000 A 
ATOM      6  C   UNL     1       2.586   6.882  19.674  0.00  0.00    +0.000 A 
ENDROOT
BRANCH   4   7
ATOM      7  C   UNL     1       0.507  10.039  20.031  0.00  0.00    +0.000 C 
ATOM      8  O   UNL     1       0.779  10.535  21.120  0.00  0.00    +0.000 OA
BRANCH   7   9
ATOM      9  C   UNL     1      -0.687  10.532  19.298  0.00  0.00    +0.000 A 
ATOM     10  C   UNL     1      -1.011  11.892  19.397  0.00  0.00    +0.000 A 
ATOM     11  C   UNL     1      -2.109  12.410  18.704  0.00  0.00    +0.000 A 
ATOM     12  C   UNL     1      -2.883  11.561  17.917  0.00  0.00    +0.000 A 
ATOM     13  C   UNL     1      -2.576  10.203  17.843  0.00  0.00    +0.000 A 
ATOM     14  F   UNL     1      -3.319   9.380  17.089  0.00  0.00    +0.000 F 
ATOM     15  C   UNL     1      -1.492   9.678  18.538  0.00  0.00    +0.000 A 
BRANCH  12  16
ATOM     16  O   UNL     1      -3.949  12.040  17.212  0.00  0.00    +0.000 OA
ATOM     17  H   UNL     1      -3.666  12.801  16.681  0.00  0.00    +0.000 HD
ENDBRANCH  12  16
ENDBRANCH   7   9
ENDBRANCH   4   7
BRANCH   1  18
ATOM     18  C   UNL     1       4.074   6.025  17.812  0.00  0.00    +0.000 C 
BRANCH  18  20
ATOM     19  C   UNL     1       5.231   4.041  18.588  0.00  0.00    +0.000 C 
ATOM     20  N   UNL     1       3.914   4.652  18.346  0.00  0.00    +0.000 NA
BRANCH  20  21
ATOM     21  C   UNL     1       3.094   3.804  17.427  0.00  0.00    +0.000 C 
ATOM     22  C   UNL     1       3.306   2.279  17.632  0.00  0.00    +0.000 C 
ATOM     23  C   UNL     1       2.808   1.795  18.996  0.00  0.00    +0.000 C 
ATOM     24  C   UNL     1       1.344   2.163  19.230  0.00  0.00    +0.000 C 
ATOM     25  C   UNL     1       1.073   3.642  18.966  0.00  0.00    +0.000 C 
ATOM     26  C   UNL     1       1.572   4.042  17.577  0.00  0.00    +0.000 C 
ENDBRANCH  20  21
ENDBRANCH  18  20
ENDBRANCH   1  18
TORSDOF 6
ENDMDL
MODEL 8
REMARK VINA RESULT:      -7.7      2.460      2.975
REMARK  Name = 
REMARK  7 active torsions:
REMARK  status: ('A' for Active; 'I' for Inactive)
REMARK    1  A    between atoms: C_1  and  N_2
REMARK    2  A    between atoms: N_2  and  C_3
REMARK    3  A    between atoms: N_2  and  C_20
REMARK    4  A    between atoms: C_3  and  C_4
REMARK    5  A    between atoms: C_7  and  C_8
REMARK    6  A    between atoms: C_8  and  C_10
REMARK    7  A    between atoms: C_13  and  O_14
REMARK                            x       y       z     vdW  Elec       q    Type
REMARK                         _______ _______ _______ _____ _____    ______ ____
ROOT
ATOM      1  C   UNL     1       2.474   7.231  18.603  0.00  0.00    +0.000 A 
ATOM      2  C   UNL     1       2.126   7.319  19.959  0.00  0.00    +0.000 A 
ATOM      3  C   UNL     1       1.419   8.423  20.440  0.00  0.00    +0.000 A 
ATOM      4  C   UNL     1       1.069   9.460  19.571  0.00  0.00    +0.000 A 
ATOM      5  C   UNL     1       1.473   9.416  18.233  0.00  0.00    +0.000 A 
ATOM      6  C   UNL     1       2.153   8.295  17.748  0.00  0.00    +0.000 A 
ENDROOT
BRANCH   4   7
ATOM      7  C   UNL     1       0.282  10.599  20.114  0.00  0.00    +0.000 C 
ATOM      8  O   UNL     1      -0.614  10.385  20.926  0.00  0.00    +0.000 OA
BRANCH   7   9
ATOM      9  C   UNL     1       0.556  12.001  19.704  0.00  0.00    +0.000 A 
ATOM     10  C   UNL     1      -0.404  12.664  18.929  0.00  0.00    +0.000 A 
ATOM     11  C   UNL     1      -0.206  13.992  18.541  0.00  0.00    +0.000 A 
ATOM     12  C   UNL     1       0.959  14.650  18.926  0.00  0.00    +0.000 A 
ATOM     13  C   UNL     1       1.927  13.978  19.672  0.00  0.00    +0.000 A 
ATOM     14  F   UNL     1       3.053  14.605  20.044  0.00  0.00    +0.000 F 
ATOM     15  C   UNL     1       1.741  12.654  20.053  0.00  0.00    +0.000 A 
BRANCH  12  16
ATOM     16  O   UNL     1       1.175  15.953  18.581  0.00  0.00    +0.000 OA
ATOM     17  H   UNL     1       0.570  16.199  17.863  0.00  0.00    +0.000 HD
ENDBRANCH  12  16
ENDBRANCH   7   9
ENDBRANCH   4   7
BRANCH   1  18
ATOM     18  C   UNL     1       3.180   6.001  18.064  0.00  0.00    +0.000 C 
BRANCH  18  20
ATOM     19  C   UNL     1       5.025   4.962  19.245  0.00  0.00    +0.000 C 
ATOM     20  N   UNL     1       3.561   5.009  19.098  0.00  0.00    +0.000 NA
BRANCH  20  21
ATOM     21  C   UNL     1       3.015   3.655  18.778  0.00  0.00    +0.000 C 
ATOM     22  C   UNL     1       3.437   2.557  19.792  0.00  0.00    +0.000 C 
ATOM     23  C   UNL     1       2.849   2.787  21.186  0.00  0.00    +0.000 C 
ATOM     24  C   UNL     1       1.327   2.914  21.146  0.00  0.00    +0.000 C 
ATOM     25  C   UNL     1       0.861   3.930  20.107  0.00  0.00    +0.000 C 
ATOM     26  C   UNL     1       1.467   3.618  18.738  0.00  0.00    +0.000 C 
ENDBRANCH  20  21
ENDBRANCH  18  20
ENDBRANCH   1  18
TORSDOF 6
ENDMDL
MODEL 9
REMARK VINA RESULT:      -7.7      2.162      2.531
REMARK  Name = 
REMARK  7 active torsions:
REMARK  status: ('A' for Active; 'I' for Inactive)
REMARK    1  A    between atoms: C_1  and  N_2
REMARK    2  A    between atoms: N_2  and  C_3
REMARK    3  A    between atoms: N_2  and  C_20
REMARK    4  A    between atoms: C_3  and  C_4
REMARK    5  A    between atoms: C_7  and  C_8
REMARK    6  A    between atoms: C_8  and  C_10
REMARK    7  A    between atoms: C_13  and  O_14
REMARK                            x       y       z     vdW  Elec       q    Type
REMARK                         _______ _______ _______ _____ _____    ______ ____
ROOT
ATOM      1  C   UNL     1       2.985   6.899  18.449  0.00  0.00    +0.000 A 
ATOM      2  C   UNL     1       2.533   6.703  19.762  0.00  0.00    +0.000 A 
ATOM      3  C   UNL     1       1.679   7.629  20.363  0.00  0.00    +0.000 A 
ATOM      4  C   UNL     1       1.282   8.772  19.662  0.00  0.00    +0.000 A 
ATOM      5  C   UNL     1       1.783   9.012  18.380  0.00  0.00    +0.000 A 
ATOM      6  C   UNL     1       2.614   8.067  17.768  0.00  0.00    +0.000 A 
ENDROOT
BRANCH   4   7
ATOM      7  C   UNL     1       0.339   9.713  20.324  0.00  0.00    +0.000 C 
ATOM      8  O   UNL     1      -0.299   9.343  21.305  0.00  0.00    +0.000 OA
BRANCH   7   9
ATOM      9  C   UNL     1       0.151  11.102  19.830  0.00  0.00    +0.000 A 
ATOM     10  C   UNL     1      -0.895  11.350  18.931  0.00  0.00    +0.000 A 
ATOM     11  C   UNL     1      -1.130  12.645  18.459  0.00  0.00    +0.000 A 
ATOM     12  C   UNL     1      -0.311  13.687  18.885  0.00  0.00    +0.000 A 
ATOM     13  C   UNL     1       0.748  13.432  19.757  0.00  0.00    +0.000 A 
ATOM     14  F   UNL     1       1.542  14.431  20.168  0.00  0.00    +0.000 F 
ATOM     15  C   UNL     1       0.995  12.145  20.222  0.00  0.00    +0.000 A 
BRANCH  12  16
ATOM     16  O   UNL     1      -0.526  14.965  18.459  0.00  0.00    +0.000 OA
ATOM     17  H   UNL     1      -0.401  15.576  19.203  0.00  0.00    +0.000 HD
ENDBRANCH  12  16
ENDBRANCH   7   9
ENDBRANCH   4   7
BRANCH   1  18
ATOM     18  C   UNL     1       3.856   5.860  17.768  0.00  0.00    +0.000 C 
BRANCH  18  20
ATOM     19  C   UNL     1       5.643   4.755  18.978  0.00  0.00    +0.000 C 
ATOM     20  N   UNL     1       4.215   4.704  18.623  0.00  0.00    +0.000 NA
BRANCH  20  21
ATOM     21  C   UNL     1       3.879   3.410  17.955  0.00  0.00    +0.000 C 
ATOM     22  C   UNL     1       3.754   2.214  18.938  0.00  0.00    +0.000 C 
ATOM     23  C   UNL     1       2.571   2.363  19.898  0.00  0.00    +0.000 C 
ATOM     24  C   UNL     1       1.256   2.573  19.150  0.00  0.00    +0.000 C 
ATOM     25  C   UNL     1       1.354   3.691  18.116  0.00  0.00    +0.000 C 
ATOM     26  C   UNL     1       2.539   3.457  17.179  0.00  0.00    +0.000 C 
ENDBRANCH  20  21
ENDBRANCH  18  20
ENDBRANCH   1  18
TORSDOF 6
ENDMDL
