MODEL 1
REMARK VINA RESULT:      -7.7      0.000      0.000
REMARK  Name = 
REMARK  4 active torsions:
REMARK  status: ('A' for Active; 'I' for Inactive)
REMARK    1  A    between atoms: C_1  and  N_2
REMARK    2  A    between atoms: C_8  and  N_9
REMARK    3  A    between atoms: C_10  and  C_12
REMARK    4  A    between atoms: C_15  and  C_16
REMARK                            x       y       z     vdW  Elec       q    Type
REMARK                         _______ _______ _______ _____ _____    ______ ____
ROOT
ATOM      1  N   UNL     1       2.389   6.030  18.370  0.00  0.00    +0.000 N 
ATOM      2  C   UNL     1       2.858   7.302  18.104  0.00  0.00    +0.000 C 
ATOM      3  O   UNL     1       3.898   7.494  17.481  0.00  0.00    +0.000 OA
ATOM      4  H   UNL     1       1.484   5.994  18.818  0.00  0.00    +0.000 HD
ENDROOT
BRANCH   1  12
ATOM      5  C   UNL     1       3.467   1.273  18.576  0.00  0.00    +0.000 C 
ATOM      6  N   UNL     1       2.708   2.201  19.388  0.00  0.00    +0.000 NA
ATOM      7  C   UNL     1       1.548   2.837  18.759  0.00  0.00    +0.000 C 
ATOM      8  C   UNL     1       1.045   3.666  19.949  0.00  0.00    +0.000 C 
ATOM      9  C   UNL     1       2.305   3.946  20.783  0.00  0.00    +0.000 C 
ATOM     10  C   UNL     1       3.448   3.317  19.977  0.00  0.00    +0.000 C 
ATOM     11  C   UNL     1       4.029   4.272  18.911  0.00  0.00    +0.000 C 
ATOM     12  C   UNL     1       2.995   4.791  17.893  0.00  0.00    +0.000 C 
ATOM     13  C   UNL     1       1.943   3.717  17.555  0.00  0.00    +0.000 C 
ENDBRANCH   1  12
BRANCH   2  14
ATOM     14  C   UNL     1       2.016   8.379  18.618  0.00  0.00    +0.000 A 
ATOM     15  C   UNL     1       1.471   9.432  17.909  0.00  0.00    +0.000 A 
ATOM     16  C   UNL     1       0.659  10.284  18.724  0.00  0.00    +0.000 A 
ATOM     17  C   UNL     1       0.602   9.862  20.041  0.00  0.00    +0.000 A 
ATOM     18  S   UNL     1       1.572   8.469  20.272  0.00  0.00    +0.000 S 
BRANCH  17  19
ATOM     19  C   UNL     1      -0.151  10.433  21.133  0.00  0.00    +0.000 A 
ATOM     20  C   UNL     1      -0.338   9.913  22.402  0.00  0.00    +0.000 A 
ATOM     21  C   UNL     1      -1.204  10.711  23.206  0.00  0.00    +0.000 A 
ATOM     22  C   UNL     1      -1.646  11.824  22.531  0.00  0.00    +0.000 A 
ATOM     23  S   UNL     1      -1.002  11.915  20.951  0.00  0.00    +0.000 S 
ENDBRANCH  17  19
ENDBRANCH   2  14
TORSDOF 3
ENDMDL
MODEL 2
REMARK VINA RESULT:      -7.6      1.262      1.782
REMARK  Name = 
REMARK  4 active torsions:
REMARK  status: ('A' for Active; 'I' for Inactive)
REMARK    1  A    between atoms: C_1  and  N_2
REMARK    2  A    between atoms: C_8  and  N_9
REMARK    3  A    between atoms: C_10  and  C_12
REMARK    4  A    between atoms: C_15  and  C_16
REMARK                            x       y       z     vdW  Elec       q    Type
REMARK                         _______ _______ _______ _____ _____    ______ ____
ROOT
ATOM      1  N   UNL     1       2.377   6.471  19.553  0.00  0.00    +0.000 N 
ATOM      2  C   UNL     1       2.057   7.765  19.190  0.00  0.00    +0.000 C 
ATOM      3  O   UNL     1       2.295   8.203  18.068  0.00  0.00    +0.000 OA
ATOM      4  H   UNL     1       2.062   6.195  20.473  0.00  0.00    +0.000 HD
ENDROOT
BRANCH   1  12
ATOM      5  C   UNL     1       3.234   1.915  18.020  0.00  0.00    +0.000 C 
ATOM      6  N   UNL     1       2.496   2.522  19.107  0.00  0.00    +0.000 NA
ATOM      7  C   UNL     1       1.384   3.403  18.741  0.00  0.00    +0.000 C 
ATOM      8  C   UNL     1       0.885   3.767  20.146  0.00  0.00    +0.000 C 
ATOM      9  C   UNL     1       2.132   3.658  21.038  0.00  0.00    +0.000 C 
ATOM     10  C   UNL     1       3.268   3.308  20.069  0.00  0.00    +0.000 C 
ATOM     11  C   UNL     1       3.921   4.553  19.431  0.00  0.00    +0.000 C 
ATOM     12  C   UNL     1       2.940   5.460  18.663  0.00  0.00    +0.000 C 
ATOM     13  C   UNL     1       1.852   4.639  17.946  0.00  0.00    +0.000 C 
ENDBRANCH   1  12
BRANCH   2  14
ATOM     14  C   UNL     1       1.417   8.549  20.242  0.00  0.00    +0.000 A 
ATOM     15  C   UNL     1       1.277   8.213  21.575  0.00  0.00    +0.000 A 
ATOM     16  C   UNL     1       0.633   9.238  22.338  0.00  0.00    +0.000 A 
ATOM     17  C   UNL     1       0.295  10.338  21.570  0.00  0.00    +0.000 A 
ATOM     18  S   UNL     1       0.721  10.085  19.931  0.00  0.00    +0.000 S 
BRANCH  17  19
ATOM     19  C   UNL     1      -0.316  11.575  21.997  0.00  0.00    +0.000 A 
ATOM     20  C   UNL     1      -1.324  11.749  22.929  0.00  0.00    +0.000 A 
ATOM     21  C   UNL     1      -1.738  13.108  23.052  0.00  0.00    +0.000 A 
ATOM     22  C   UNL     1      -1.026  13.937  22.215  0.00  0.00    +0.000 A 
ATOM     23  S   UNL     1       0.145  13.082  21.311  0.00  0.00    +0.000 S 
ENDBRANCH  17  19
ENDBRANCH   2  14
TORSDOF 3
ENDMDL
MODEL 3
REMARK VINA RESULT:      -7.2      0.921      1.257
REMARK  Name = 
REMARK  4 active torsions:
REMARK  status: ('A' for Active; 'I' for Inactive)
REMARK    1  A    between atoms: C_1  and  N_2
REMARK    2  A    between atoms: C_8  and  N_9
REMARK    3  A    between atoms: C_10  and  C_12
REMARK    4  A    between atoms: C_15  and  C_16
REMARK                            x       y       z     vdW  Elec       q    Type
REMARK                         _______ _______ _______ _____ _____    ______ ____
ROOT
ATOM      1  N   UNL     1       3.088   6.046  19.120  0.00  0.00    +0.000 N 
ATOM      2  C   UNL     1       3.073   7.156  18.298  0.00  0.00    +0.000 C 
ATOM      3  O   UNL     1       3.792   7.240  17.306  0.00  0.00    +0.000 OA
ATOM      4  H   UNL     1       2.398   6.053  19.859  0.00  0.00    +0.000 HD
ENDROOT
BRANCH   1  12
ATOM      5  C   UNL     1       3.687   1.254  18.398  0.00  0.00    +0.000 C 
ATOM      6  N   UNL     1       2.559   2.140  18.596  0.00  0.00    +0.000 NA
ATOM      7  C   UNL     1       2.354   3.186  17.591  0.00  0.00    +0.000 C 
ATOM      8  C   UNL     1       1.079   3.826  18.157  0.00  0.00    +0.000 C 
ATOM      9  C   UNL     1       1.158   3.566  19.670  0.00  0.00    +0.000 C 
ATOM     10  C   UNL     1       2.503   2.858  19.869  0.00  0.00    +0.000 C 
ATOM     11  C   UNL     1       3.680   3.842  20.050  0.00  0.00    +0.000 C 
ATOM     12  C   UNL     1       3.864   4.832  18.884  0.00  0.00    +0.000 C 
ATOM     13  C   UNL     1       3.533   4.180  17.528  0.00  0.00    +0.000 C 
ENDBRANCH   1  12
BRANCH   2  14
ATOM     14  C   UNL     1       2.140   8.202  18.707  0.00  0.00    +0.000 A 
ATOM     15  C   UNL     1       1.515   9.134  17.901  0.00  0.00    +0.000 A 
ATOM     16  C   UNL     1       0.627   9.986  18.631  0.00  0.00    +0.000 A 
ATOM     17  C   UNL     1       0.593   9.687  19.981  0.00  0.00    +0.000 A 
ATOM     18  S   UNL     1       1.673   8.409  20.344  0.00  0.00    +0.000 S 
BRANCH  17  19
ATOM     19  C   UNL     1      -0.216  10.292  21.013  0.00  0.00    +0.000 A 
ATOM     20  C   UNL     1      -0.980  11.443  20.929  0.00  0.00    +0.000 A 
ATOM     21  C   UNL     1      -1.594  11.792  22.168  0.00  0.00    +0.000 A 
ATOM     22  C   UNL     1      -1.289  10.891  23.162  0.00  0.00    +0.000 A 
ATOM     23  S   UNL     1      -0.291   9.626  22.596  0.00  0.00    +0.000 S 
ENDBRANCH  17  19
ENDBRANCH   2  14
TORSDOF 3
ENDMDL
MODEL 4
REMARK VINA RESULT:      -7.2      1.476      1.954
REMARK  Name = 
REMARK  4 active torsions:
REMARK  status: ('A' for Active; 'I' for Inactive)
REMARK    1  A    between atoms: C_1  and  N_2
REMARK    2  A    between atoms: C_8  and  N_9
REMARK    3  A    between atoms: C_10  and  C_12
REMARK    4  A    between atoms: C_15  and  C_16
REMARK                            x       y       z     vdW  Elec       q    Type
REMARK                         _______ _______ _______ _____ _____    ______ ____
ROOT
ATOM      1  N   UNL     1       2.338   6.168  18.729  0.00  0.00    +0.000 N 
ATOM      2  C   UNL     1       2.641   7.472  18.385  0.00  0.00    +0.000 C 
ATOM      3  O   UNL     1       3.523   7.742  17.574  0.00  0.00    +0.000 OA
ATOM      4  H   UNL     1       1.542   6.063  19.343  0.00  0.00    +0.000 HD
ENDROOT
BRANCH   1  12
ATOM      5  C   UNL     1       3.391   1.407  18.476  0.00  0.00    +0.000 C 
ATOM      6  N   UNL     1       2.634   2.256  19.371  0.00  0.00    +0.000 NA
ATOM      7  C   UNL     1       1.480   2.957  18.802  0.00  0.00    +0.000 C 
ATOM      8  C   UNL     1       0.975   3.669  20.065  0.00  0.00    +0.000 C 
ATOM      9  C   UNL     1       2.234   3.859  20.927  0.00  0.00    +0.000 C 
ATOM     10  C   UNL     1       3.376   3.306  20.068  0.00  0.00    +0.000 C 
ATOM     11  C   UNL     1       3.967   4.357  19.102  0.00  0.00    +0.000 C 
ATOM     12  C   UNL     1       2.940   4.978  18.136  0.00  0.00    +0.000 C 
ATOM     13  C   UNL     1       1.884   3.948  17.691  0.00  0.00    +0.000 C 
ENDBRANCH   1  12
BRANCH   2  14
ATOM     14  C   UNL     1       1.829   8.481  19.059  0.00  0.00    +0.000 A 
ATOM     15  C   UNL     1       1.336   8.440  20.349  0.00  0.00    +0.000 A 
ATOM     16  C   UNL     1       0.612   9.623  20.700  0.00  0.00    +0.000 A 
ATOM     17  C   UNL     1       0.568  10.545  19.669  0.00  0.00    +0.000 A 
ATOM     18  S   UNL     1       1.364   9.937  18.281  0.00  0.00    +0.000 S 
BRANCH  17  19
ATOM     19  C   UNL     1      -0.023  11.862  19.670  0.00  0.00    +0.000 A 
ATOM     20  C   UNL     1       0.240  12.914  18.810  0.00  0.00    +0.000 A 
ATOM     21  C   UNL     1      -0.475  14.100  19.148  0.00  0.00    +0.000 A 
ATOM     22  C   UNL     1      -1.273  13.918  20.254  0.00  0.00    +0.000 A 
ATOM     23  S   UNL     1      -1.175  12.323  20.860  0.00  0.00    +0.000 S 
ENDBRANCH  17  19
ENDBRANCH   2  14
TORSDOF 3
ENDMDL
MODEL 5
REMARK VINA RESULT:      -6.6      2.370      3.025
REMARK  Name = 
REMARK  4 active torsions:
REMARK  status: ('A' for Active; 'I' for Inactive)
REMARK    1  A    between atoms: C_1  and  N_2
REMARK    2  A    between atoms: C_8  and  N_9
REMARK    3  A    between atoms: C_10  and  C_12
REMARK    4  A    between atoms: C_15  and  C_16
REMARK                            x       y       z     vdW  Elec       q    Type
REMARK                         _______ _______ _______ _____ _____    ______ ____
ROOT
ATOM      1  N   UNL     1       3.570   6.902  17.985  0.00  0.00    +0.000 N 
ATOM      2  C   UNL     1       2.804   8.050  17.897  0.00  0.00    +0.000 C 
ATOM      3  O   UNL     1       2.812   8.761  16.897  0.00  0.00    +0.000 OA
ATOM      4  H   UNL     1       3.422   6.355  18.821  0.00  0.00    +0.000 HD
ENDROOT
BRANCH   1  12
ATOM      5  C   UNL     1       7.183   4.192  16.131  0.00  0.00    +0.000 C 
ATOM      6  N   UNL     1       6.654   4.451  17.453  0.00  0.00    +0.000 NA
ATOM      7  C   UNL     1       5.264   4.057  17.700  0.00  0.00    +0.000 C 
ATOM      8  C   UNL     1       5.152   4.460  19.177  0.00  0.00    +0.000 C 
ATOM      9  C   UNL     1       6.155   5.614  19.338  0.00  0.00    +0.000 C 
ATOM     10  C   UNL     1       6.719   5.833  17.929  0.00  0.00    +0.000 C 
ATOM     11  C   UNL     1       5.859   6.795  17.079  0.00  0.00    +0.000 C 
ATOM     12  C   UNL     1       4.392   6.354  16.911  0.00  0.00    +0.000 C 
ATOM     13  C   UNL     1       4.269   4.822  16.804  0.00  0.00    +0.000 C 
ENDBRANCH   1  12
BRANCH   2  14
ATOM     14  C   UNL     1       1.998   8.333  19.081  0.00  0.00    +0.000 A 
ATOM     15  C   UNL     1       1.919   7.589  20.243  0.00  0.00    +0.000 A 
ATOM     16  C   UNL     1       1.059   8.182  21.220  0.00  0.00    +0.000 A 
ATOM     17  C   UNL     1       0.498   9.370  20.783  0.00  0.00    +0.000 A 
ATOM     18  S   UNL     1       0.988   9.715  19.180  0.00  0.00    +0.000 S 
BRANCH  17  19
ATOM     19  C   UNL     1      -0.372  10.268  21.505  0.00  0.00    +0.000 A 
ATOM     20  C   UNL     1      -1.007  11.402  21.031  0.00  0.00    +0.000 A 
ATOM     21  C   UNL     1      -1.735  12.095  22.043  0.00  0.00    +0.000 A 
ATOM     22  C   UNL     1      -1.642  11.464  23.262  0.00  0.00    +0.000 A 
ATOM     23  S   UNL     1      -0.706  10.038  23.176  0.00  0.00    +0.000 S 
ENDBRANCH  17  19
ENDBRANCH   2  14
TORSDOF 3
ENDMDL
MODEL 6
REMARK VINA RESULT:      -6.6      1.418      1.958
REMARK  Name = 
REMARK  4 active torsions:
REMARK  status: ('A' for Active; 'I' for Inactive)
REMARK    1  A    between atoms: C_1  and  N_2
REMARK    2  A    between atoms: C_8  and  N_9
REMARK    3  A    between atoms: C_10  and  C_12
REMARK    4  A    between atoms: C_15  and  C_16
REMARK                            x       y       z     vdW  Elec       q    Type
REMARK                         _______ _______ _______ _____ _____    ______ ____
ROOT
ATOM      1  N   UNL     1       2.934   5.835  19.791  0.00  0.00    +0.000 N 
ATOM      2  C   UNL     1       2.746   7.041  19.144  0.00  0.00    +0.000 C 
ATOM      3  O   UNL     1       3.340   7.324  18.108  0.00  0.00    +0.000 OA
ATOM      4  H   UNL     1       2.333   5.679  20.588  0.00  0.00    +0.000 HD
ENDROOT
BRANCH   1  12
ATOM      5  C   UNL     1       3.765   1.325  18.114  0.00  0.00    +0.000 C 
ATOM      6  N   UNL     1       2.598   2.088  18.504  0.00  0.00    +0.000 NA
ATOM      7  C   UNL     1       2.311   3.300  17.732  0.00  0.00    +0.000 C 
ATOM      8  C   UNL     1       1.020   3.740  18.435  0.00  0.00    +0.000 C 
ATOM      9  C   UNL     1       1.153   3.189  19.864  0.00  0.00    +0.000 C 
ATOM     10  C   UNL     1       2.539   2.534  19.896  0.00  0.00    +0.000 C 
ATOM     11  C   UNL     1       3.667   3.527  20.251  0.00  0.00    +0.000 C 
ATOM     12  C   UNL     1       3.766   4.738  19.304  0.00  0.00    +0.000 C 
ATOM     13  C   UNL     1       3.433   4.352  17.851  0.00  0.00    +0.000 C 
ENDBRANCH   1  12
BRANCH   2  14
ATOM     14  C   UNL     1       1.789   7.934  19.793  0.00  0.00    +0.000 A 
ATOM     15  C   UNL     1       1.238   7.804  21.054  0.00  0.00    +0.000 A 
ATOM     16  C   UNL     1       0.365   8.887  21.388  0.00  0.00    +0.000 A 
ATOM     17  C   UNL     1       0.268   9.823  20.374  0.00  0.00    +0.000 A 
ATOM     18  S   UNL     1       1.199   9.346  19.019  0.00  0.00    +0.000 S 
BRANCH  17  19
ATOM     19  C   UNL     1      -0.471  11.064  20.369  0.00  0.00    +0.000 A 
ATOM     20  C   UNL     1      -1.458  11.463  19.485  0.00  0.00    +0.000 A 
ATOM     21  C   UNL     1      -1.923  12.788  19.734  0.00  0.00    +0.000 A 
ATOM     22  C   UNL     1      -1.283  13.361  20.808  0.00  0.00    +0.000 A 
ATOM     23  S   UNL     1      -0.151  12.298  21.522  0.00  0.00    +0.000 S 
ENDBRANCH  17  19
ENDBRANCH   2  14
TORSDOF 3
ENDMDL
MODEL 7
REMARK VINA RESULT:      -6.5      5.047      6.523
REMARK  Name = 
REMARK  4 active torsions:
REMARK  status: ('A' for Active; 'I' for Inactive)
REMARK    1  A    between atoms: C_1  and  N_2
REMARK    2  A    between atoms: C_8  and  N_9
REMARK    3  A    between atoms: C_10  and  C_12
REMARK    4  A    between atoms: C_15  and  C_16
REMARK                            x       y       z     vdW  Elec       q    Type
REMARK                         _______ _______ _______ _____ _____    ______ ____
ROOT
ATOM      1  N   UNL     1       5.624   5.223  18.084  0.00  0.00    +0.000 N 
ATOM      2  C   UNL     1       6.994   5.403  18.137  0.00  0.00    +0.000 C 
ATOM      3  O   UNL     1       7.770   4.458  18.244  0.00  0.00    +0.000 OA
ATOM      4  H   UNL     1       5.090   6.063  17.914  0.00  0.00    +0.000 HD
ENDROOT
BRANCH   1  12
ATOM      5  C   UNL     1       1.837   2.210  18.732  0.00  0.00    +0.000 C 
ATOM      6  N   UNL     1       2.075   3.628  18.897  0.00  0.00    +0.000 NA
ATOM      7  C   UNL     1       2.431   4.384  17.693  0.00  0.00    +0.000 C 
ATOM      8  C   UNL     1       2.539   5.787  18.306  0.00  0.00    +0.000 C 
ATOM      9  C   UNL     1       2.936   5.538  19.771  0.00  0.00    +0.000 C 
ATOM     10  C   UNL     1       3.093   4.016  19.872  0.00  0.00    +0.000 C 
ATOM     11  C   UNL     1       4.506   3.530  19.482  0.00  0.00    +0.000 C 
ATOM     12  C   UNL     1       4.945   3.931  18.061  0.00  0.00    +0.000 C 
ATOM     13  C   UNL     1       3.762   3.909  17.074  0.00  0.00    +0.000 C 
ENDBRANCH   1  12
BRANCH   2  14
ATOM     14  C   UNL     1       7.425   6.795  18.052  0.00  0.00    +0.000 A 
ATOM     15  C   UNL     1       7.023   7.747  17.134  0.00  0.00    +0.000 A 
ATOM     16  C   UNL     1       7.617   9.027  17.371  0.00  0.00    +0.000 A 
ATOM     17  C   UNL     1       8.462   9.026  18.467  0.00  0.00    +0.000 A 
ATOM     18  S   UNL     1       8.554   7.462  19.158  0.00  0.00    +0.000 S 
BRANCH  17  19
ATOM     19  C   UNL     1       9.191  10.135  19.037  0.00  0.00    +0.000 A 
ATOM     20  C   UNL     1       9.313  10.477  20.372  0.00  0.00    +0.000 A 
ATOM     21  C   UNL     1      10.051  11.681  20.571  0.00  0.00    +0.000 A 
ATOM     22  C   UNL     1      10.480  12.220  19.380  0.00  0.00    +0.000 A 
ATOM     23  S   UNL     1      10.016  11.267  18.040  0.00  0.00    +0.000 S 
ENDBRANCH  17  19
ENDBRANCH   2  14
TORSDOF 3
ENDMDL
MODEL 8
REMARK VINA RESULT:      -6.4      2.035      2.745
REMARK  Name = 
REMARK  4 active torsions:
REMARK  status: ('A' for Active; 'I' for Inactive)
REMARK    1  A    between atoms: C_1  and  N_2
REMARK    2  A    between atoms: C_8  and  N_9
REMARK    3  A    between atoms: C_10  and  C_12
REMARK    4  A    between atoms: C_15  and  C_16
REMARK                            x       y       z     vdW  Elec       q    Type
REMARK                         _______ _______ _______ _____ _____    ______ ____
ROOT
ATOM      1  N   UNL     1       3.157   5.916  19.335  0.00  0.00    +0.000 N 
ATOM      2  C   UNL     1       2.174   6.653  19.967  0.00  0.00    +0.000 C 
ATOM      3  O   UNL     1       1.567   6.224  20.944  0.00  0.00    +0.000 OA
ATOM      4  H   UNL     1       3.643   6.400  18.593  0.00  0.00    +0.000 HD
ENDROOT
BRANCH   1  12
ATOM      5  C   UNL     1       3.929   1.111  18.933  0.00  0.00    +0.000 C 
ATOM      6  N   UNL     1       3.320   2.136  18.112  0.00  0.00    +0.000 NA
ATOM      7  C   UNL     1       4.187   3.230  17.667  0.00  0.00    +0.000 C 
ATOM      8  C   UNL     1       3.175   4.021  16.826  0.00  0.00    +0.000 C 
ATOM      9  C   UNL     1       1.814   3.707  17.467  0.00  0.00    +0.000 C 
ATOM     10  C   UNL     1       2.151   2.816  18.669  0.00  0.00    +0.000 C 
ATOM     11  C   UNL     1       2.483   3.625  19.942  0.00  0.00    +0.000 C 
ATOM     12  C   UNL     1       3.652   4.615  19.778  0.00  0.00    +0.000 C 
ATOM     13  C   UNL     1       4.743   4.056  18.846  0.00  0.00    +0.000 C 
ENDBRANCH   1  12
BRANCH   2  14
ATOM     14  C   UNL     1       1.928   7.966  19.377  0.00  0.00    +0.000 A 
ATOM     15  C   UNL     1       2.299   8.408  18.122  0.00  0.00    +0.000 A 
ATOM     16  C   UNL     1       1.857   9.742  17.854  0.00  0.00    +0.000 A 
ATOM     17  C   UNL     1       1.156  10.292  18.913  0.00  0.00    +0.000 A 
ATOM     18  S   UNL     1       1.090   9.197  20.227  0.00  0.00    +0.000 S 
BRANCH  17  19
ATOM     19  C   UNL     1       0.519  11.586  18.989  0.00  0.00    +0.000 A 
ATOM     20  C   UNL     1       1.037  12.813  18.612  0.00  0.00    +0.000 A 
ATOM     21  C   UNL     1       0.156  13.897  18.897  0.00  0.00    +0.000 A 
ATOM     22  C   UNL     1      -1.015  13.466  19.476  0.00  0.00    +0.000 A 
ATOM     23  S   UNL     1      -1.057  11.767  19.650  0.00  0.00    +0.000 S 
ENDBRANCH  17  19
ENDBRANCH   2  14
TORSDOF 3
ENDMDL
MODEL 9
REMARK VINA RESULT:      -6.4      2.308      3.489
REMARK  Name = 
REMARK  4 active torsions:
REMARK  status: ('A' for Active; 'I' for Inactive)
REMARK    1  A    between atoms: C_1  and  N_2
REMARK    2  A    between atoms: C_8  and  N_9
REMARK    3  A    between atoms: C_10  and  C_12
REMARK    4  A    between atoms: C_15  and  C_16
REMARK                            x       y       z     vdW  Elec       q    Type
REMARK                         _______ _______ _______ _____ _____    ______ ____
ROOT
ATOM      1  N   UNL     1       3.596   6.373  18.738  0.00  0.00    +0.000 N 
ATOM      2  C   UNL     1       2.579   6.378  19.674  0.00  0.00    +0.000 C 
ATOM      3  O   UNL     1       2.298   5.382  20.334  0.00  0.00    +0.000 OA
ATOM      4  H   UNL     1       3.790   7.269  18.314  0.00  0.00    +0.000 HD
ENDROOT
BRANCH   1  12
ATOM      5  C   UNL     1       7.266   4.088  16.468  0.00  0.00    +0.000 C 
ATOM      6  N   UNL     1       6.652   5.397  16.390  0.00  0.00    +0.000 NA
ATOM      7  C   UNL     1       6.714   6.230  17.593  0.00  0.00    +0.000 C 
ATOM      8  C   UNL     1       6.011   7.486  17.060  0.00  0.00    +0.000 C 
ATOM      9  C   UNL     1       5.063   6.963  15.968  0.00  0.00    +0.000 C 
ATOM     10  C   UNL     1       5.242   5.440  16.002  0.00  0.00    +0.000 C 
ATOM     11  C   UNL     1       4.321   4.749  17.032  0.00  0.00    +0.000 C 
ATOM     12  C   UNL     1       4.495   5.253  18.477  0.00  0.00    +0.000 C 
ATOM     13  C   UNL     1       5.965   5.599  18.784  0.00  0.00    +0.000 C 
ENDBRANCH   1  12
BRANCH   2  14
ATOM     14  C   UNL     1       1.884   7.656  19.807  0.00  0.00    +0.000 A 
ATOM     15  C   UNL     1       1.732   8.634  18.843  0.00  0.00    +0.000 A 
ATOM     16  C   UNL     1       0.954   9.744  19.303  0.00  0.00    +0.000 A 
ATOM     17  C   UNL     1       0.529   9.589  20.611  0.00  0.00    +0.000 A 
ATOM     18  S   UNL     1       1.121   8.124  21.269  0.00  0.00    +0.000 S 
BRANCH  17  19
ATOM     19  C   UNL     1      -0.310  10.470  21.390  0.00  0.00    +0.000 A 
ATOM     20  C   UNL     1      -0.638  10.367  22.731  0.00  0.00    +0.000 A 
ATOM     21  C   UNL     1      -1.552  11.374  23.157  0.00  0.00    +0.000 A 
ATOM     22  C   UNL     1      -1.891  12.225  22.130  0.00  0.00    +0.000 A 
ATOM     23  S   UNL     1      -1.091  11.823  20.674  0.00  0.00    +0.000 S 
ENDBRANCH  17  19
ENDBRANCH   2  14
TORSDOF 3
ENDMDL
