MODEL 1
REMARK VINA RESULT:      -9.4      0.000      0.000
REMARK  Name = 
REMARK  4 active torsions:
REMARK  status: ('A' for Active; 'I' for Inactive)
REMARK    1  A    between atoms: C_5  and  C_6
REMARK    2  A    between atoms: C_6  and  N_7
REMARK    3  A    between atoms: N_11  and  C_12
REMARK    4  A    between atoms: C_12  and  C_13
REMARK                            x       y       z     vdW  Elec       q    Type
REMARK                         _______ _______ _______ _____ _____    ______ ____
ROOT
ATOM      1  N   UNL     1       1.323   9.579  18.061  0.00  0.00    +0.000 N 
ATOM      2  C   UNL     1       2.082   8.500  18.459  0.00  0.00    +0.000 A 
ATOM      3  N   UNL     1       3.063   8.169  17.636  0.00  0.00    +0.000 NA
ATOM      4  C   UNL     1       3.535   6.930  17.767  0.00  0.00    +0.000 A 
ATOM      5  N   UNL     1       4.877   6.810  17.486  0.00  0.00    +0.000 N 
ATOM      6  C   UNL     1       2.790   5.969  18.424  0.00  0.00    +0.000 A 
ATOM      7  C   UNL     1       2.723   4.565  18.152  0.00  0.00    +0.000 A 
ATOM      8  C   UNL     1       2.275   3.692  19.128  0.00  0.00    +0.000 A 
ATOM      9  C   UNL     1       2.017   4.205  20.391  0.00  0.00    +0.000 A 
ATOM     10 CL   UNL     1       1.810   3.128  21.715  0.00  0.00    +0.000 Cl
ATOM     11  C   UNL     1       1.929   5.586  20.581  0.00  0.00    +0.000 A 
ATOM     12  C   UNL     1       2.151   6.473  19.528  0.00  0.00    +0.000 A 
ATOM     13  N   UNL     1       1.773   7.768  19.541  0.00  0.00    +0.000 NA
ATOM     14  H   UNL     1       1.820  10.006  17.288  0.00  0.00    +0.000 HD
ATOM     15  H   UNL     1       5.289   7.659  17.127  0.00  0.00    +0.000 HD
ENDROOT
BRANCH   1  16
ATOM     16  C   UNL     1       0.894  10.499  19.085  0.00  0.00    +0.000 C 
BRANCH  16  21
ATOM     17 CL   UNL     1      -4.914  11.941  18.163  0.00  0.00    +0.000 Cl
ATOM     18  C   UNL     1      -3.272  11.516  18.454  0.00  0.00    +0.000 A 
ATOM     19  C   UNL     1      -2.552  12.169  19.452  0.00  0.00    +0.000 A 
ATOM     20  C   UNL     1      -1.210  11.835  19.670  0.00  0.00    +0.000 A 
ATOM     21  C   UNL     1      -0.581  10.835  18.906  0.00  0.00    +0.000 A 
ATOM     22  C   UNL     1      -1.325  10.194  17.903  0.00  0.00    +0.000 A 
ATOM     23  C   UNL     1      -2.664  10.532  17.677  0.00  0.00    +0.000 A 
ENDBRANCH  16  21
ENDBRANCH   1  16
BRANCH   5  24
ATOM     24  C   UNL     1       5.667   5.614  17.577  0.00  0.00    +0.000 C 
BRANCH  24  25
ATOM     25  C   UNL     1       5.979   5.012  16.223  0.00  0.00    +0.000 A 
ATOM     26  C   UNL     1       5.074   4.156  15.570  0.00  0.00    +0.000 A 
ATOM     27  C   UNL     1       5.328   3.709  14.266  0.00  0.00    +0.000 A 
ATOM     28  C   UNL     1       6.491   4.108  13.611  0.00  0.00    +0.000 A 
ATOM     29 CL   UNL     1       6.798   3.585  12.000  0.00  0.00    +0.000 Cl
ATOM     30  C   UNL     1       7.406   4.941  14.251  0.00  0.00    +0.000 A 
ATOM     31  C   UNL     1       7.152   5.386  15.551  0.00  0.00    +0.000 A 
ENDBRANCH  24  25
ENDBRANCH   5  24
TORSDOF 4
ENDMDL
MODEL 2
REMARK VINA RESULT:      -9.1      0.483      1.019
REMARK  Name = 
REMARK  4 active torsions:
REMARK  status: ('A' for Active; 'I' for Inactive)
REMARK    1  A    between atoms: C_5  and  C_6
REMARK    2  A    between atoms: C_6  and  N_7
REMARK    3  A    between atoms: N_11  and  C_12
REMARK    4  A    between atoms: C_12  and  C_13
REMARK                            x       y       z     vdW  Elec       q    Type
REMARK                         _______ _______ _______ _____ _____    ______ ____
ROOT
ATOM      1  N   UNL     1       1.360   9.422  18.567  0.00  0.00    +0.000 N 
ATOM      2  C   UNL     1       2.070   8.281  18.872  0.00  0.00    +0.000 A 
ATOM      3  N   UNL     1       3.027   7.969  18.014  0.00  0.00    +0.000 NA
ATOM      4  C   UNL     1       3.440   6.703  18.044  0.00  0.00    +0.000 A 
ATOM      5  N   UNL     1       4.773   6.542  17.738  0.00  0.00    +0.000 N 
ATOM      6  C   UNL     1       2.655   5.730  18.634  0.00  0.00    +0.000 A 
ATOM      7  C   UNL     1       2.519   4.356  18.256  0.00  0.00    +0.000 A 
ATOM      8  C   UNL     1       2.038   3.433  19.168  0.00  0.00    +0.000 A 
ATOM      9  C   UNL     1       1.816   3.858  20.470  0.00  0.00    +0.000 A 
ATOM     10 CL   UNL     1       1.569   2.693  21.709  0.00  0.00    +0.000 Cl
ATOM     11  C   UNL     1       1.796   5.223  20.766  0.00  0.00    +0.000 A 
ATOM     12  C   UNL     1       2.051   6.177  19.781  0.00  0.00    +0.000 A 
ATOM     13  N   UNL     1       1.736   7.483  19.898  0.00  0.00    +0.000 NA
ATOM     14  H   UNL     1       1.870   9.884  17.824  0.00  0.00    +0.000 HD
ATOM     15  H   UNL     1       5.221   7.396  17.440  0.00  0.00    +0.000 HD
ENDROOT
BRANCH   1  16
ATOM     16  C   UNL     1       0.984  10.280  19.664  0.00  0.00    +0.000 C 
BRANCH  16  21
ATOM     17 CL   UNL     1      -4.642  12.412  18.979  0.00  0.00    +0.000 Cl
ATOM     18  C   UNL     1      -3.034  11.820  19.144  0.00  0.00    +0.000 A 
ATOM     19  C   UNL     1      -2.587  10.785  18.326  0.00  0.00    +0.000 A 
ATOM     20  C   UNL     1      -1.285  10.293  18.480  0.00  0.00    +0.000 A 
ATOM     21  C   UNL     1      -0.414  10.841  19.438  0.00  0.00    +0.000 A 
ATOM     22  C   UNL     1      -0.887  11.881  20.254  0.00  0.00    +0.000 A 
ATOM     23  C   UNL     1      -2.191  12.369  20.108  0.00  0.00    +0.000 A 
ENDBRANCH  16  21
ENDBRANCH   1  16
BRANCH   5  24
ATOM     24  C   UNL     1       5.505   5.307  17.727  0.00  0.00    +0.000 C 
BRANCH  24  25
ATOM     25  C   UNL     1       5.880   4.858  16.330  0.00  0.00    +0.000 A 
ATOM     26  C   UNL     1       4.991   4.118  15.530  0.00  0.00    +0.000 A 
ATOM     27  C   UNL     1       5.309   3.820  14.198  0.00  0.00    +0.000 A 
ATOM     28  C   UNL     1       6.519   4.252  13.660  0.00  0.00    +0.000 A 
ATOM     29 CL   UNL     1       6.906   3.912  12.018  0.00  0.00    +0.000 Cl
ATOM     30  C   UNL     1       7.417   4.970  14.446  0.00  0.00    +0.000 A 
ATOM     31  C   UNL     1       7.100   5.267  15.774  0.00  0.00    +0.000 A 
ENDBRANCH  24  25
ENDBRANCH   5  24
TORSDOF 4
ENDMDL
MODEL 3
REMARK VINA RESULT:      -9.0      0.296      1.302
REMARK  Name = 
REMARK  4 active torsions:
REMARK  status: ('A' for Active; 'I' for Inactive)
REMARK    1  A    between atoms: C_5  and  C_6
REMARK    2  A    between atoms: C_6  and  N_7
REMARK    3  A    between atoms: N_11  and  C_12
REMARK    4  A    between atoms: C_12  and  C_13
REMARK                            x       y       z     vdW  Elec       q    Type
REMARK                         _______ _______ _______ _____ _____    ______ ____
ROOT
ATOM      1  N   UNL     1       1.230   9.646  17.965  0.00  0.00    +0.000 N 
ATOM      2  C   UNL     1       2.054   8.598  18.311  0.00  0.00    +0.000 A 
ATOM      3  N   UNL     1       3.000   8.312  17.431  0.00  0.00    +0.000 NA
ATOM      4  C   UNL     1       3.530   7.094  17.526  0.00  0.00    +0.000 A 
ATOM      5  N   UNL     1       4.857   7.031  17.168  0.00  0.00    +0.000 N 
ATOM      6  C   UNL     1       2.864   6.099  18.217  0.00  0.00    +0.000 A 
ATOM      7  C   UNL     1       2.840   4.695  17.940  0.00  0.00    +0.000 A 
ATOM      8  C   UNL     1       2.485   3.799  18.934  0.00  0.00    +0.000 A 
ATOM      9  C   UNL     1       2.279   4.294  20.213  0.00  0.00    +0.000 A 
ATOM     10 CL   UNL     1       2.194   3.204  21.538  0.00  0.00    +0.000 Cl
ATOM     11  C   UNL     1       2.145   5.670  20.417  0.00  0.00    +0.000 A 
ATOM     12  C   UNL     1       2.269   6.571  19.359  0.00  0.00    +0.000 A 
ATOM     13  N   UNL     1       1.839   7.848  19.404  0.00  0.00    +0.000 NA
ATOM     14  H   UNL     1       1.663  10.098  17.168  0.00  0.00    +0.000 HD
ATOM     15  H   UNL     1       5.211   7.898  16.791  0.00  0.00    +0.000 HD
ENDROOT
BRANCH   1  16
ATOM     16  C   UNL     1       0.822  10.543  19.019  0.00  0.00    +0.000 C 
BRANCH  16  21
ATOM     17 CL   UNL     1      -5.020  12.044  18.492  0.00  0.00    +0.000 Cl
ATOM     18  C   UNL     1      -3.353  11.632  18.612  0.00  0.00    +0.000 A 
ATOM     19  C   UNL     1      -2.819  10.646  17.785  0.00  0.00    +0.000 A 
ATOM     20  C   UNL     1      -1.468  10.300  17.902  0.00  0.00    +0.000 A 
ATOM     21  C   UNL     1      -0.634  10.946  18.832  0.00  0.00    +0.000 A 
ATOM     22  C   UNL     1      -1.194  11.934  19.658  0.00  0.00    +0.000 A 
ATOM     23  C   UNL     1      -2.547  12.276  19.549  0.00  0.00    +0.000 A 
ENDBRANCH  16  21
ENDBRANCH   1  16
BRANCH   5  24
ATOM     24  C   UNL     1       5.700   5.869  17.204  0.00  0.00    +0.000 C 
BRANCH  24  25
ATOM     25  C   UNL     1       5.979   5.302  15.828  0.00  0.00    +0.000 A 
ATOM     26  C   UNL     1       7.180   5.577  15.147  0.00  0.00    +0.000 A 
ATOM     27  C   UNL     1       7.472   4.944  13.931  0.00  0.00    +0.000 A 
ATOM     28  C   UNL     1       6.564   4.040  13.385  0.00  0.00    +0.000 A 
ATOM     29 CL   UNL     1       6.926   3.240  11.905  0.00  0.00    +0.000 Cl
ATOM     30  C   UNL     1       5.363   3.772  14.038  0.00  0.00    +0.000 A 
ATOM     31  C   UNL     1       5.072   4.403  15.250  0.00  0.00    +0.000 A 
ENDBRANCH  24  25
ENDBRANCH   5  24
TORSDOF 4
ENDMDL
MODEL 4
REMARK VINA RESULT:      -8.8      2.135      2.596
REMARK  Name = 
REMARK  4 active torsions:
REMARK  status: ('A' for Active; 'I' for Inactive)
REMARK    1  A    between atoms: C_5  and  C_6
REMARK    2  A    between atoms: C_6  and  N_7
REMARK    3  A    between atoms: N_11  and  C_12
REMARK    4  A    between atoms: C_12  and  C_13
REMARK                            x       y       z     vdW  Elec       q    Type
REMARK                         _______ _______ _______ _____ _____    ______ ____
ROOT
ATOM      1  N   UNL     1       1.340   9.389  18.547  0.00  0.00    +0.000 N 
ATOM      2  C   UNL     1       2.075   8.262  18.845  0.00  0.00    +0.000 A 
ATOM      3  N   UNL     1       3.034   7.972  17.982  0.00  0.00    +0.000 NA
ATOM      4  C   UNL     1       3.475   6.715  18.005  0.00  0.00    +0.000 A 
ATOM      5  N   UNL     1       4.808   6.583  17.692  0.00  0.00    +0.000 N 
ATOM      6  C   UNL     1       2.713   5.725  18.596  0.00  0.00    +0.000 A 
ATOM      7  C   UNL     1       2.604   4.349  18.215  0.00  0.00    +0.000 A 
ATOM      8  C   UNL     1       2.147   3.413  19.126  0.00  0.00    +0.000 A 
ATOM      9  C   UNL     1       1.923   3.829  20.430  0.00  0.00    +0.000 A 
ATOM     10 CL   UNL     1       1.708   2.655  21.667  0.00  0.00    +0.000 Cl
ATOM     11  C   UNL     1       1.876   5.193  20.731  0.00  0.00    +0.000 A 
ATOM     12  C   UNL     1       2.106   6.155  19.747  0.00  0.00    +0.000 A 
ATOM     13  N   UNL     1       1.764   7.454  19.871  0.00  0.00    +0.000 NA
ATOM     14  H   UNL     1       1.836   9.864  17.803  0.00  0.00    +0.000 HD
ATOM     15  H   UNL     1       5.237   7.448  17.394  0.00  0.00    +0.000 HD
ENDROOT
BRANCH   1  16
ATOM     16  C   UNL     1       0.952  10.235  19.649  0.00  0.00    +0.000 C 
BRANCH  16  21
ATOM     17 CL   UNL     1       2.158  16.024  18.349  0.00  0.00    +0.000 Cl
ATOM     18  C   UNL     1       1.845  14.377  18.734  0.00  0.00    +0.000 A 
ATOM     19  C   UNL     1       2.542  13.365  18.077  0.00  0.00    +0.000 A 
ATOM     20  C   UNL     1       2.268  12.026  18.379  0.00  0.00    +0.000 A 
ATOM     21  C   UNL     1       1.309  11.685  19.350  0.00  0.00    +0.000 A 
ATOM     22  C   UNL     1       0.617  12.721  19.997  0.00  0.00    +0.000 A 
ATOM     23  C   UNL     1       0.883  14.061  19.691  0.00  0.00    +0.000 A 
ENDBRANCH  16  21
ENDBRANCH   1  16
BRANCH   5  24
ATOM     24  C   UNL     1       5.566   5.364  17.673  0.00  0.00    +0.000 C 
BRANCH  24  25
ATOM     25  C   UNL     1       5.937   4.924  16.272  0.00  0.00    +0.000 A 
ATOM     26  C   UNL     1       5.009   4.283  15.431  0.00  0.00    +0.000 A 
ATOM     27  C   UNL     1       5.335   3.996  14.098  0.00  0.00    +0.000 A 
ATOM     28  C   UNL     1       6.590   4.340  13.601  0.00  0.00    +0.000 A 
ATOM     29 CL   UNL     1       6.988   4.014  11.958  0.00  0.00    +0.000 Cl
ATOM     30  C   UNL     1       7.525   4.958  14.427  0.00  0.00    +0.000 A 
ATOM     31  C   UNL     1       7.201   5.244  15.756  0.00  0.00    +0.000 A 
ENDBRANCH  24  25
ENDBRANCH   5  24
TORSDOF 4
ENDMDL
MODEL 5
REMARK VINA RESULT:      -8.7      2.120      2.660
REMARK  Name = 
REMARK  4 active torsions:
REMARK  status: ('A' for Active; 'I' for Inactive)
REMARK    1  A    between atoms: C_5  and  C_6
REMARK    2  A    between atoms: C_6  and  N_7
REMARK    3  A    between atoms: N_11  and  C_12
REMARK    4  A    between atoms: C_12  and  C_13
REMARK                            x       y       z     vdW  Elec       q    Type
REMARK                         _______ _______ _______ _____ _____    ______ ____
ROOT
ATOM      1  N   UNL     1       1.291   9.538  18.507  0.00  0.00    +0.000 N 
ATOM      2  C   UNL     1       2.060   8.427  18.776  0.00  0.00    +0.000 A 
ATOM      3  N   UNL     1       2.976   8.144  17.866  0.00  0.00    +0.000 NA
ATOM      4  C   UNL     1       3.439   6.895  17.878  0.00  0.00    +0.000 A 
ATOM      5  N   UNL     1       4.756   6.781  17.495  0.00  0.00    +0.000 N 
ATOM      6  C   UNL     1       2.728   5.898  18.519  0.00  0.00    +0.000 A 
ATOM      7  C   UNL     1       2.622   4.517  18.158  0.00  0.00    +0.000 A 
ATOM      8  C   UNL     1       2.231   3.583  19.102  0.00  0.00    +0.000 A 
ATOM      9  C   UNL     1       2.070   4.010  20.412  0.00  0.00    +0.000 A 
ATOM     10 CL   UNL     1       1.942   2.847  21.671  0.00  0.00    +0.000 Cl
ATOM     11  C   UNL     1       2.015   5.376  20.701  0.00  0.00    +0.000 A 
ATOM     12  C   UNL     1       2.175   6.331  19.697  0.00  0.00    +0.000 A 
ATOM     13  N   UNL     1       1.818   7.625  19.826  0.00  0.00    +0.000 NA
ATOM     14  H   UNL     1       1.737  10.013  17.733  0.00  0.00    +0.000 HD
ATOM     15  H   UNL     1       5.153   7.650  17.166  0.00  0.00    +0.000 HD
ENDROOT
BRANCH   1  16
ATOM     16  C   UNL     1       0.948  10.390  19.620  0.00  0.00    +0.000 C 
BRANCH  16  21
ATOM     17 CL   UNL     1       2.202  16.173  18.338  0.00  0.00    +0.000 Cl
ATOM     18  C   UNL     1       1.817  14.532  18.685  0.00  0.00    +0.000 A 
ATOM     19  C   UNL     1       0.789  14.233  19.577  0.00  0.00    +0.000 A 
ATOM     20  C   UNL     1       0.495  12.897  19.872  0.00  0.00    +0.000 A 
ATOM     21  C   UNL     1       1.210  11.848  19.267  0.00  0.00    +0.000 A 
ATOM     22  C   UNL     1       2.244  12.173  18.374  0.00  0.00    +0.000 A 
ATOM     23  C   UNL     1       2.547  13.508  18.084  0.00  0.00    +0.000 A 
ENDBRANCH  16  21
ENDBRANCH   1  16
BRANCH   5  24
ATOM     24  C   UNL     1       5.533   5.575  17.447  0.00  0.00    +0.000 C 
BRANCH  24  25
ATOM     25  C   UNL     1       5.847   5.134  16.034  0.00  0.00    +0.000 A 
ATOM     26  C   UNL     1       7.112   5.351  15.457  0.00  0.00    +0.000 A 
ATOM     27  C   UNL     1       7.421   4.825  14.195  0.00  0.00    +0.000 A 
ATOM     28  C   UNL     1       6.467   4.088  13.499  0.00  0.00    +0.000 A 
ATOM     29 CL   UNL     1       6.847   3.417  11.960  0.00  0.00    +0.000 Cl
ATOM     30  C   UNL     1       5.204   3.880  14.048  0.00  0.00    +0.000 A 
ATOM     31  C   UNL     1       4.896   4.404  15.306  0.00  0.00    +0.000 A 
ENDBRANCH  24  25
ENDBRANCH   5  24
TORSDOF 4
ENDMDL
MODEL 6
REMARK VINA RESULT:      -8.4      2.785      3.403
REMARK  Name = 
REMARK  4 active torsions:
REMARK  status: ('A' for Active; 'I' for Inactive)
REMARK    1  A    between atoms: C_5  and  C_6
REMARK    2  A    between atoms: C_6  and  N_7
REMARK    3  A    between atoms: N_11  and  C_12
REMARK    4  A    between atoms: C_12  and  C_13
REMARK                            x       y       z     vdW  Elec       q    Type
REMARK                         _______ _______ _______ _____ _____    ______ ____
ROOT
ATOM      1  N   UNL     1       0.580   9.720  20.079  0.00  0.00    +0.000 N 
ATOM      2  C   UNL     1       1.455   8.700  19.772  0.00  0.00    +0.000 A 
ATOM      3  N   UNL     1       2.009   8.778  18.574  0.00  0.00    +0.000 NA
ATOM      4  C   UNL     1       2.515   7.643  18.095  0.00  0.00    +0.000 A 
ATOM      5  N   UNL     1       3.620   7.816  17.292  0.00  0.00    +0.000 N 
ATOM      6  C   UNL     1       2.128   6.430  18.633  0.00  0.00    +0.000 A 
ATOM      7  C   UNL     1       1.979   5.173  17.962  0.00  0.00    +0.000 A 
ATOM      8  C   UNL     1       1.994   3.996  18.689  0.00  0.00    +0.000 A 
ATOM      9  C   UNL     1       2.277   4.071  20.045  0.00  0.00    +0.000 A 
ATOM     10 CL   UNL     1       2.659   2.635  20.909  0.00  0.00    +0.000 Cl
ATOM     11  C   UNL     1       2.252   5.306  20.698  0.00  0.00    +0.000 A 
ATOM     12  C   UNL     1       1.999   6.485  19.997  0.00  0.00    +0.000 A 
ATOM     13  N   UNL     1       1.638   7.646  20.582  0.00  0.00    +0.000 NA
ATOM     14  H   UNL     1       0.702  10.425  19.363  0.00  0.00    +0.000 HD
ATOM     15  H   UNL     1       3.829   8.786  17.103  0.00  0.00    +0.000 HD
ENDROOT
BRANCH   1  16
ATOM     16  C   UNL     1       0.601  10.224  21.431  0.00  0.00    +0.000 C 
BRANCH  16  21
ATOM     17 CL   UNL     1      -4.401  13.471  22.480  0.00  0.00    +0.000 Cl
ATOM     18  C   UNL     1      -2.962  12.577  22.179  0.00  0.00    +0.000 A 
ATOM     19  C   UNL     1      -2.415  12.551  20.897  0.00  0.00    +0.000 A 
ATOM     20  C   UNL     1      -1.257  11.804  20.653  0.00  0.00    +0.000 A 
ATOM     21  C   UNL     1      -0.624  11.091  21.688  0.00  0.00    +0.000 A 
ATOM     22  C   UNL     1      -1.195  11.129  22.970  0.00  0.00    +0.000 A 
ATOM     23  C   UNL     1      -2.358  11.868  23.215  0.00  0.00    +0.000 A 
ENDBRANCH  16  21
ENDBRANCH   1  16
BRANCH   5  24
ATOM     24  C   UNL     1       4.396   6.781  16.670  0.00  0.00    +0.000 C 
BRANCH  24  25
ATOM     25  C   UNL     1       5.571   6.338  17.515  0.00  0.00    +0.000 A 
ATOM     26  C   UNL     1       6.790   7.040  17.510  0.00  0.00    +0.000 A 
ATOM     27  C   UNL     1       7.821   6.686  18.392  0.00  0.00    +0.000 A 
ATOM     28  C   UNL     1       7.643   5.625  19.277  0.00  0.00    +0.000 A 
ATOM     29 CL   UNL     1       8.894   5.200  20.380  0.00  0.00    +0.000 Cl
ATOM     30  C   UNL     1       6.448   4.909  19.281  0.00  0.00    +0.000 A 
ATOM     31  C   UNL     1       5.421   5.261  18.402  0.00  0.00    +0.000 A 
ENDBRANCH  24  25
ENDBRANCH   5  24
TORSDOF 4
ENDMDL
MODEL 7
REMARK VINA RESULT:      -8.3      3.177      9.575
REMARK  Name = 
REMARK  4 active torsions:
REMARK  status: ('A' for Active; 'I' for Inactive)
REMARK    1  A    between atoms: C_5  and  C_6
REMARK    2  A    between atoms: C_6  and  N_7
REMARK    3  A    between atoms: N_11  and  C_12
REMARK    4  A    between atoms: C_12  and  C_13
REMARK                            x       y       z     vdW  Elec       q    Type
REMARK                         _______ _______ _______ _____ _____    ______ ____
ROOT
ATOM      1  N   UNL     1       1.898   7.785  20.489  0.00  0.00    +0.000 N 
ATOM      2  C   UNL     1       0.938   8.771  20.418  0.00  0.00    +0.000 A 
ATOM      3  N   UNL     1       0.850   9.387  19.251  0.00  0.00    +0.000 NA
ATOM      4  C   UNL     1       0.251  10.577  19.268  0.00  0.00    +0.000 A 
ATOM      5  N   UNL     1      -0.441  10.872  18.116  0.00  0.00    +0.000 N 
ATOM      6  C   UNL     1       0.106  11.264  20.459  0.00  0.00    +0.000 A 
ATOM      7  C   UNL     1       0.132  12.679  20.671  0.00  0.00    +0.000 A 
ATOM      8  C   UNL     1      -0.430  13.218  21.815  0.00  0.00    +0.000 A 
ATOM      9  C   UNL     1      -1.114  12.364  22.668  0.00  0.00    +0.000 A 
ATOM     10 CL   UNL     1      -2.123  13.023  23.893  0.00  0.00    +0.000 Cl
ATOM     11  C   UNL     1      -0.982  10.981  22.527  0.00  0.00    +0.000 A 
ATOM     12  C   UNL     1      -0.212  10.432  21.502  0.00  0.00    +0.000 A 
ATOM     13  N   UNL     1       0.227   9.157  21.490  0.00  0.00    +0.000 NA
ATOM     14  H   UNL     1       2.209   7.622  19.539  0.00  0.00    +0.000 HD
ATOM     15  H   UNL     1      -0.313  10.186  17.386  0.00  0.00    +0.000 HD
ENDROOT
BRANCH   1  16
ATOM     16  C   UNL     1       1.566   6.591  21.227  0.00  0.00    +0.000 C 
BRANCH  16  21
ATOM     17 CL   UNL     1       3.145   1.790  17.892  0.00  0.00    +0.000 Cl
ATOM     18  C   UNL     1       2.704   3.138  18.868  0.00  0.00    +0.000 A 
ATOM     19  C   UNL     1       1.550   3.084  19.646  0.00  0.00    +0.000 A 
ATOM     20  C   UNL     1       1.185   4.192  20.421  0.00  0.00    +0.000 A 
ATOM     21  C   UNL     1       1.977   5.354  20.440  0.00  0.00    +0.000 A 
ATOM     22  C   UNL     1       3.133   5.386  19.645  0.00  0.00    +0.000 A 
ATOM     23  C   UNL     1       3.497   4.284  18.863  0.00  0.00    +0.000 A 
ENDBRANCH  16  21
ENDBRANCH   1  16
BRANCH   5  24
ATOM     24  C   UNL     1      -1.211  12.056  17.859  0.00  0.00    +0.000 C 
BRANCH  24  25
ATOM     25  C   UNL     1      -2.692  11.859  18.107  0.00  0.00    +0.000 A 
ATOM     26  C   UNL     1      -3.297  12.254  19.314  0.00  0.00    +0.000 A 
ATOM     27  C   UNL     1      -4.688  12.176  19.474  0.00  0.00    +0.000 A 
ATOM     28  C   UNL     1      -5.480  11.696  18.433  0.00  0.00    +0.000 A 
ATOM     29 CL   UNL     1      -7.190  11.621  18.613  0.00  0.00    +0.000 Cl
ATOM     30  C   UNL     1      -4.893  11.283  17.239  0.00  0.00    +0.000 A 
ATOM     31  C   UNL     1      -3.508  11.361  17.080  0.00  0.00    +0.000 A 
ENDBRANCH  24  25
ENDBRANCH   5  24
TORSDOF 4
ENDMDL
MODEL 8
REMARK VINA RESULT:      -8.3      3.209      9.374
REMARK  Name = 
REMARK  4 active torsions:
REMARK  status: ('A' for Active; 'I' for Inactive)
REMARK    1  A    between atoms: C_5  and  C_6
REMARK    2  A    between atoms: C_6  and  N_7
REMARK    3  A    between atoms: N_11  and  C_12
REMARK    4  A    between atoms: C_12  and  C_13
REMARK                            x       y       z     vdW  Elec       q    Type
REMARK                         _______ _______ _______ _____ _____    ______ ____
ROOT
ATOM      1  N   UNL     1       1.979   7.523  20.617  0.00  0.00    +0.000 N 
ATOM      2  C   UNL     1       1.059   8.542  20.503  0.00  0.00    +0.000 A 
ATOM      3  N   UNL     1       1.119   9.231  19.376  0.00  0.00    +0.000 NA
ATOM      4  C   UNL     1       0.553  10.436  19.402  0.00  0.00    +0.000 A 
ATOM      5  N   UNL     1       0.004  10.823  18.201  0.00  0.00    +0.000 N 
ATOM      6  C   UNL     1       0.292  11.054  20.610  0.00  0.00    +0.000 A 
ATOM      7  C   UNL     1       0.331  12.453  20.914  0.00  0.00    +0.000 A 
ATOM      8  C   UNL     1      -0.343  12.939  22.021  0.00  0.00    +0.000 A 
ATOM      9  C   UNL     1      -1.141  12.058  22.736  0.00  0.00    +0.000 A 
ATOM     10 CL   UNL     1      -2.264  12.674  23.881  0.00  0.00    +0.000 Cl
ATOM     11  C   UNL     1      -1.029  10.682  22.523  0.00  0.00    +0.000 A 
ATOM     12  C   UNL     1      -0.163  10.171  21.556  0.00  0.00    +0.000 A 
ATOM     13  N   UNL     1       0.242   8.886  21.512  0.00  0.00    +0.000 NA
ATOM     14  H   UNL     1       2.391   7.407  19.699  0.00  0.00    +0.000 HD
ATOM     15  H   UNL     1       0.195  10.179  17.447  0.00  0.00    +0.000 HD
ENDROOT
BRANCH   1  16
ATOM     16  C   UNL     1       1.535   6.298  21.236  0.00  0.00    +0.000 C 
BRANCH  16  21
ATOM     17 CL   UNL     1       3.567   1.421  18.279  0.00  0.00    +0.000 Cl
ATOM     18  C   UNL     1       2.979   2.820  19.090  0.00  0.00    +0.000 A 
ATOM     19  C   UNL     1       3.652   4.033  18.960  0.00  0.00    +0.000 A 
ATOM     20  C   UNL     1       3.182   5.163  19.639  0.00  0.00    +0.000 A 
ATOM     21  C   UNL     1       2.028   5.097  20.440  0.00  0.00    +0.000 A 
ATOM     22  C   UNL     1       1.368   3.863  20.560  0.00  0.00    +0.000 A 
ATOM     23  C   UNL     1       1.841   2.730  19.888  0.00  0.00    +0.000 A 
ENDBRANCH  16  21
ENDBRANCH   1  16
BRANCH   5  24
ATOM     24  C   UNL     1      -0.702  12.045  17.936  0.00  0.00    +0.000 C 
BRANCH  24  25
ATOM     25  C   UNL     1      -2.205  11.869  17.944  0.00  0.00    +0.000 A 
ATOM     26  C   UNL     1      -2.885  11.284  16.859  0.00  0.00    +0.000 A 
ATOM     27  C   UNL     1      -4.259  11.017  16.938  0.00  0.00    +0.000 A 
ATOM     28  C   UNL     1      -4.963  11.341  18.095  0.00  0.00    +0.000 A 
ATOM     29 CL   UNL     1      -6.645  10.994  18.209  0.00  0.00    +0.000 Cl
ATOM     30  C   UNL     1      -4.308  11.937  19.170  0.00  0.00    +0.000 A 
ATOM     31  C   UNL     1      -2.939  12.203  19.092  0.00  0.00    +0.000 A 
ENDBRANCH  24  25
ENDBRANCH   5  24
TORSDOF 4
ENDMDL
MODEL 9
REMARK VINA RESULT:      -8.1      4.525      8.251
REMARK  Name = 
REMARK  4 active torsions:
REMARK  status: ('A' for Active; 'I' for Inactive)
REMARK    1  A    between atoms: C_5  and  C_6
REMARK    2  A    between atoms: C_6  and  N_7
REMARK    3  A    between atoms: N_11  and  C_12
REMARK    4  A    between atoms: C_12  and  C_13
REMARK                            x       y       z     vdW  Elec       q    Type
REMARK                         _______ _______ _______ _____ _____    ______ ____
ROOT
ATOM      1  N   UNL     1       7.999   8.174  18.206  0.00  0.00    +0.000 N 
ATOM      2  C   UNL     1       7.008   7.474  17.551  0.00  0.00    +0.000 A 
ATOM      3  N   UNL     1       5.955   7.166  18.289  0.00  0.00    +0.000 NA
ATOM      4  C   UNL     1       5.196   6.173  17.830  0.00  0.00    +0.000 A 
ATOM      5  N   UNL     1       3.859   6.305  18.129  0.00  0.00    +0.000 N 
ATOM      6  C   UNL     1       5.699   5.294  16.890  0.00  0.00    +0.000 A 
ATOM      7  C   UNL     1       5.412   3.899  16.742  0.00  0.00    +0.000 A 
ATOM      8  C   UNL     1       5.657   3.267  15.535  0.00  0.00    +0.000 A 
ATOM      9  C   UNL     1       6.064   4.046  14.463  0.00  0.00    +0.000 A 
ATOM     10 CL   UNL     1       6.033   3.384  12.877  0.00  0.00    +0.000 Cl
ATOM     11  C   UNL     1       6.494   5.358  14.675  0.00  0.00    +0.000 A 
ATOM     12  C   UNL     1       6.470   5.927  15.949  0.00  0.00    +0.000 A 
ATOM     13  N   UNL     1       7.155   7.037  16.290  0.00  0.00    +0.000 NA
ATOM     14  H   UNL     1       7.603   8.465  19.092  0.00  0.00    +0.000 HD
ATOM     15  H   UNL     1       3.661   7.086  18.737  0.00  0.00    +0.000 HD
ENDROOT
BRANCH   1  16
ATOM     16  C   UNL     1       8.667   9.220  17.471  0.00  0.00    +0.000 C 
BRANCH  16  21
ATOM     17 CL   UNL     1      10.381  13.762  21.089  0.00  0.00    +0.000 Cl
ATOM     18  C   UNL     1       9.863  12.472  20.075  0.00  0.00    +0.000 A 
ATOM     19  C   UNL     1       9.633  11.210  20.618  0.00  0.00    +0.000 A 
ATOM     20  C   UNL     1       9.233  10.159  19.784  0.00  0.00    +0.000 A 
ATOM     21  C   UNL     1       9.042  10.362  18.405  0.00  0.00    +0.000 A 
ATOM     22  C   UNL     1       9.283  11.641  17.880  0.00  0.00    +0.000 A 
ATOM     23  C   UNL     1       9.691  12.692  18.709  0.00  0.00    +0.000 A 
ENDBRANCH  16  21
ENDBRANCH   1  16
BRANCH   5  24
ATOM     24  C   UNL     1       2.803   5.416  17.736  0.00  0.00    +0.000 C 
BRANCH  24  25
ATOM     25  C   UNL     1       2.239   4.623  18.896  0.00  0.00    +0.000 A 
ATOM     26  C   UNL     1       1.486   3.452  18.693  0.00  0.00    +0.000 A 
ATOM     27  C   UNL     1       1.080   2.667  19.781  0.00  0.00    +0.000 A 
ATOM     28  C   UNL     1       1.416   3.051  21.077  0.00  0.00    +0.000 A 
ATOM     29 CL   UNL     1       0.943   2.080  22.417  0.00  0.00    +0.000 Cl
ATOM     30  C   UNL     1       2.145   4.218  21.296  0.00  0.00    +0.000 A 
ATOM     31  C   UNL     1       2.550   5.000  20.211  0.00  0.00    +0.000 A 
ENDBRANCH  24  25
ENDBRANCH   5  24
TORSDOF 4
ENDMDL
