MODEL 1
REMARK VINA RESULT:      -8.4      0.000      0.000
REMARK  Name = 
REMARK  8 active torsions:
REMARK  status: ('A' for Active; 'I' for Inactive)
REMARK    1  A    between atoms: C_1  and  C_2
REMARK    2  A    between atoms: N_4  and  C_5
REMARK    3  A    between atoms: C_13  and  C_14
REMARK    4  A    between atoms: N_16  and  C_17
REMARK    5  A    between atoms: N_16  and  C_26
REMARK    6  A    between atoms: C_17  and  C_18
REMARK    7  A    between atoms: N_20  and  C_21
REMARK    8  A    between atoms: C_26  and  C_27
REMARK                            x       y       z     vdW  Elec       q    Type
REMARK                         _______ _______ _______ _____ _____    ______ ____
ROOT
ATOM      1  C   UNL     1       5.230   3.993  16.982  0.00  0.00    +0.000 C 
ATOM      2  O   UNL     1       4.947   3.378  15.952  0.00  0.00    +0.000 OA
ATOM      3  N   UNL     1       6.539   4.469  17.177  0.00  0.00    +0.000 N 
ENDROOT
BRANCH   1  10
ATOM      4  C   UNL     1       1.982   3.238  21.925  0.00  0.00    +0.000 C 
ATOM      5  C   UNL     1       2.143   4.367  20.979  0.00  0.00    +0.000 A 
ATOM      6  N   UNL     1       1.538   5.549  21.215  0.00  0.00    +0.000 NA
ATOM      7  N   UNL     1       1.903   6.377  20.166  0.00  0.00    +0.000 N 
ATOM      8  C   UNL     1       2.623   5.651  19.251  0.00  0.00    +0.000 A 
ATOM      9  S   UNL     1       3.355   5.833  17.766  0.00  0.00    +0.000 S 
ATOM     10  C   UNL     1       4.202   4.307  17.971  0.00  0.00    +0.000 A 
ATOM     11  C   UNL     1       3.743   3.623  19.097  0.00  0.00    +0.000 A 
ATOM     12  C   UNL     1       2.855   4.446  19.789  0.00  0.00    +0.000 A 
BRANCH   7  13
ATOM     13  C   UNL     1       1.620   7.779  20.237  0.00  0.00    +0.000 A 
ATOM     14  C   UNL     1       1.667   8.538  19.057  0.00  0.00    +0.000 A 
ATOM     15  C   UNL     1       1.289   9.888  19.050  0.00  0.00    +0.000 A 
ATOM     16  C   UNL     1       0.883  10.505  20.232  0.00  0.00    +0.000 A 
ATOM     17  C   UNL     1       0.870   9.771  21.417  0.00  0.00    +0.000 A 
ATOM     18  C   UNL     1       1.236   8.416  21.427  0.00  0.00    +0.000 A 
ENDBRANCH   7  13
ENDBRANCH   1  10
BRANCH   3  19
ATOM     19  C   UNL     1       7.487   4.384  16.050  0.00  0.00    +0.000 C 
BRANCH  19  20
ATOM     20  C   UNL     1       6.958   4.605  14.611  0.00  0.00    +0.000 C 
ATOM     21  O   UNL     1       6.627   5.730  14.239  0.00  0.00    +0.000 OA
ATOM     22  N   UNL     1       6.788   3.478  13.827  0.00  0.00    +0.000 N 
ATOM     23  H   UNL     1       6.870   2.583  14.296  0.00  0.00    +0.000 HD
BRANCH  22  24
ATOM     24  C   UNL     1       6.145   3.483  12.505  0.00  0.00    +0.000 C 
ATOM     25  C   UNL     1       6.273   2.170  11.730  0.00  0.00    +0.000 C 
ATOM     26  C   UNL     1       5.096   2.129  10.757  0.00  0.00    +0.000 C 
ATOM     27  C   UNL     1       4.087   3.165  11.235  0.00  0.00    +0.000 C 
ATOM     28  C   UNL     1       4.647   3.795  12.503  0.00  0.00    +0.000 C 
ENDBRANCH  22  24
ENDBRANCH  19  20
ENDBRANCH   3  19
BRANCH   3  29
ATOM     29  C   UNL     1       6.998   5.211  18.355  0.00  0.00    +0.000 C 
BRANCH  29  30
ATOM     30  C   UNL     1       7.356   6.640  18.119  0.00  0.00    +0.000 A 
ATOM     31  C   UNL     1       6.937   7.653  17.280  0.00  0.00    +0.000 A 
ATOM     32  C   UNL     1       7.742   8.788  17.578  0.00  0.00    +0.000 A 
ATOM     33  C   UNL     1       8.605   8.393  18.572  0.00  0.00    +0.000 A 
ATOM     34  O   UNL     1       8.380   7.100  18.904  0.00  0.00    +0.000 OA
ENDBRANCH  29  30
ENDBRANCH   3  29
TORSDOF 7
ENDMDL
MODEL 2
REMARK VINA RESULT:      -8.0      3.033      5.790
REMARK  Name = 
REMARK  8 active torsions:
REMARK  status: ('A' for Active; 'I' for Inactive)
REMARK    1  A    between atoms: C_1  and  C_2
REMARK    2  A    between atoms: N_4  and  C_5
REMARK    3  A    between atoms: C_13  and  C_14
REMARK    4  A    between atoms: N_16  and  C_17
REMARK    5  A    between atoms: N_16  and  C_26
REMARK    6  A    between atoms: C_17  and  C_18
REMARK    7  A    between atoms: N_20  and  C_21
REMARK    8  A    between atoms: C_26  and  C_27
REMARK                            x       y       z     vdW  Elec       q    Type
REMARK                         _______ _______ _______ _____ _____    ______ ____
ROOT
ATOM      1  C   UNL     1       2.854   7.746  18.219  0.00  0.00    +0.000 C 
ATOM      2  O   UNL     1       3.806   7.915  17.455  0.00  0.00    +0.000 OA
ATOM      3  N   UNL     1       2.887   6.700  19.159  0.00  0.00    +0.000 N 
ENDROOT
BRANCH   1  10
ATOM      4  C   UNL     1      -2.439   9.911  16.530  0.00  0.00    +0.000 C 
ATOM      5  C   UNL     1      -1.535  10.211  17.664  0.00  0.00    +0.000 A 
ATOM      6  N   UNL     1      -1.905  11.086  18.622  0.00  0.00    +0.000 NA
ATOM      7  N   UNL     1      -0.857  11.123  19.528  0.00  0.00    +0.000 N 
ATOM      8  C   UNL     1       0.180  10.365  19.045  0.00  0.00    +0.000 A 
ATOM      9  S   UNL     1       1.739   9.933  19.440  0.00  0.00    +0.000 S 
ATOM     10  C   UNL     1       1.722   8.670  18.218  0.00  0.00    +0.000 A 
ATOM     11  C   UNL     1       0.578   8.751  17.424  0.00  0.00    +0.000 A 
ATOM     12  C   UNL     1      -0.265   9.727  17.953  0.00  0.00    +0.000 A 
BRANCH   7  13
ATOM     13  C   UNL     1      -1.032  11.777  20.789  0.00  0.00    +0.000 A 
ATOM     14  C   UNL     1      -1.167  13.175  20.812  0.00  0.00    +0.000 A 
ATOM     15  C   UNL     1      -1.453  13.854  22.004  0.00  0.00    +0.000 A 
ATOM     16  C   UNL     1      -1.583  13.145  23.198  0.00  0.00    +0.000 A 
ATOM     17  C   UNL     1      -1.411  11.762  23.193  0.00  0.00    +0.000 A 
ATOM     18  C   UNL     1      -1.136  11.076  22.000  0.00  0.00    +0.000 A 
ENDBRANCH   7  13
ENDBRANCH   1  10
BRANCH   3  19
ATOM     19  C   UNL     1       4.149   5.956  19.330  0.00  0.00    +0.000 C 
BRANCH  19  20
ATOM     20  C   UNL     1       4.561   4.926  18.247  0.00  0.00    +0.000 C 
ATOM     21  O   UNL     1       4.383   3.724  18.436  0.00  0.00    +0.000 OA
ATOM     22  N   UNL     1       5.215   5.420  17.133  0.00  0.00    +0.000 N 
ATOM     23  H   UNL     1       5.517   6.387  17.175  0.00  0.00    +0.000 HD
BRANCH  22  24
ATOM     24  C   UNL     1       5.820   4.575  16.092  0.00  0.00    +0.000 C 
ATOM     25  C   UNL     1       4.939   4.355  14.860  0.00  0.00    +0.000 C 
ATOM     26  C   UNL     1       5.887   4.039  13.705  0.00  0.00    +0.000 C 
ATOM     27  C   UNL     1       7.281   4.473  14.141  0.00  0.00    +0.000 C 
ATOM     28  C   UNL     1       7.155   5.073  15.534  0.00  0.00    +0.000 C 
ENDBRANCH  22  24
ENDBRANCH  19  20
ENDBRANCH   3  19
BRANCH   3  29
ATOM     29  C   UNL     1       1.822   6.398  20.119  0.00  0.00    +0.000 C 
BRANCH  29  30
ATOM     30  C   UNL     1       1.642   4.954  20.451  0.00  0.00    +0.000 A 
ATOM     31  C   UNL     1       0.897   3.899  19.963  0.00  0.00    +0.000 A 
ATOM     32  C   UNL     1       1.198   2.775  20.781  0.00  0.00    +0.000 A 
ATOM     33  C   UNL     1       2.098   3.218  21.721  0.00  0.00    +0.000 A 
ATOM     34  O   UNL     1       2.371   4.530  21.529  0.00  0.00    +0.000 OA
ENDBRANCH  29  30
ENDBRANCH   3  29
TORSDOF 7
ENDMDL
MODEL 3
REMARK VINA RESULT:      -7.9      2.555      4.838
REMARK  Name = 
REMARK  8 active torsions:
REMARK  status: ('A' for Active; 'I' for Inactive)
REMARK    1  A    between atoms: C_1  and  C_2
REMARK    2  A    between atoms: N_4  and  C_5
REMARK    3  A    between atoms: C_13  and  C_14
REMARK    4  A    between atoms: N_16  and  C_17
REMARK    5  A    between atoms: N_16  and  C_26
REMARK    6  A    between atoms: C_17  and  C_18
REMARK    7  A    between atoms: N_20  and  C_21
REMARK    8  A    between atoms: C_26  and  C_27
REMARK                            x       y       z     vdW  Elec       q    Type
REMARK                         _______ _______ _______ _____ _____    ______ ____
ROOT
ATOM      1  C   UNL     1       3.725   6.951  17.963  0.00  0.00    +0.000 C 
ATOM      2  O   UNL     1       4.306   7.330  16.944  0.00  0.00    +0.000 OA
ATOM      3  N   UNL     1       4.127   5.762  18.597  0.00  0.00    +0.000 N 
ENDROOT
BRANCH   1  10
ATOM      4  C   UNL     1      -0.323   8.484  22.064  0.00  0.00    +0.000 C 
ATOM      5  C   UNL     1       0.269   9.195  20.907  0.00  0.00    +0.000 A 
ATOM      6  N   UNL     1      -0.036  10.487  20.669  0.00  0.00    +0.000 NA
ATOM      7  N   UNL     1       0.688  10.846  19.542  0.00  0.00    +0.000 N 
ATOM      8  C   UNL     1       1.325   9.736  19.046  0.00  0.00    +0.000 A 
ATOM      9  S   UNL     1       2.297   9.284  17.772  0.00  0.00    +0.000 S 
ATOM     10  C   UNL     1       2.675   7.765  18.571  0.00  0.00    +0.000 A 
ATOM     11  C   UNL     1       1.888   7.583  19.709  0.00  0.00    +0.000 A 
ATOM     12  C   UNL     1       1.151   8.745  19.932  0.00  0.00    +0.000 A 
BRANCH   7  13
ATOM     13  C   UNL     1       0.772  12.223  19.163  0.00  0.00    +0.000 A 
ATOM     14  C   UNL     1      -0.401  12.995  19.155  0.00  0.00    +0.000 A 
ATOM     15  C   UNL     1      -0.359  14.372  18.901  0.00  0.00    +0.000 A 
ATOM     16  C   UNL     1       0.858  14.995  18.625  0.00  0.00    +0.000 A 
ATOM     17  C   UNL     1       2.023  14.231  18.592  0.00  0.00    +0.000 A 
ATOM     18  C   UNL     1       1.989  12.853  18.856  0.00  0.00    +0.000 A 
ENDBRANCH   7  13
ENDBRANCH   1  10
BRANCH   3  19
ATOM     19  C   UNL     1       5.361   5.104  18.129  0.00  0.00    +0.000 C 
BRANCH  19  20
ATOM     20  C   UNL     1       5.316   4.281  16.817  0.00  0.00    +0.000 C 
ATOM     21  O   UNL     1       4.678   3.230  16.766  0.00  0.00    +0.000 OA
ATOM     22  N   UNL     1       6.098   4.732  15.769  0.00  0.00    +0.000 N 
ATOM     23  H   UNL     1       6.759   5.470  15.982  0.00  0.00    +0.000 HD
BRANCH  22  24
ATOM     24  C   UNL     1       6.305   3.990  14.516  0.00  0.00    +0.000 C 
ATOM     25  C   UNL     1       5.039   3.792  13.678  0.00  0.00    +0.000 C 
ATOM     26  C   UNL     1       5.505   3.604  12.235  0.00  0.00    +0.000 C 
ATOM     27  C   UNL     1       6.946   4.094  12.165  0.00  0.00    +0.000 C 
ATOM     28  C   UNL     1       7.322   4.601  13.550  0.00  0.00    +0.000 C 
ENDBRANCH  22  24
ENDBRANCH  19  20
ENDBRANCH   3  19
BRANCH   3  29
ATOM     29  C   UNL     1       3.518   5.208  19.810  0.00  0.00    +0.000 C 
BRANCH  29  30
ATOM     30  C   UNL     1       2.545   4.098  19.596  0.00  0.00    +0.000 A 
ATOM     31  C   UNL     1       1.177   3.978  19.451  0.00  0.00    +0.000 A 
ATOM     32  C   UNL     1       0.903   2.591  19.297  0.00  0.00    +0.000 A 
ATOM     33  C   UNL     1       2.118   1.952  19.367  0.00  0.00    +0.000 A 
ATOM     34  O   UNL     1       3.113   2.853  19.548  0.00  0.00    +0.000 OA
ENDBRANCH  29  30
ENDBRANCH   3  29
TORSDOF 7
ENDMDL
MODEL 4
REMARK VINA RESULT:      -7.7      2.585      4.838
REMARK  Name = 
REMARK  8 active torsions:
REMARK  status: ('A' for Active; 'I' for Inactive)
REMARK    1  A    between atoms: C_1  and  C_2
REMARK    2  A    between atoms: N_4  and  C_5
REMARK    3  A    between atoms: C_13  and  C_14
REMARK    4  A    between atoms: N_16  and  C_17
REMARK    5  A    between atoms: N_16  and  C_26
REMARK    6  A    between atoms: C_17  and  C_18
REMARK    7  A    between atoms: N_20  and  C_21
REMARK    8  A    between atoms: C_26  and  C_27
REMARK                            x       y       z     vdW  Elec       q    Type
REMARK                         _______ _______ _______ _____ _____    ______ ____
ROOT
ATOM      1  C   UNL     1       3.626   7.126  17.920  0.00  0.00    +0.000 C 
ATOM      2  O   UNL     1       4.150   7.535  16.882  0.00  0.00    +0.000 OA
ATOM      3  N   UNL     1       4.093   5.944  18.522  0.00  0.00    +0.000 N 
ENDROOT
BRANCH   1  10
ATOM      4  C   UNL     1      -0.387   8.405  22.140  0.00  0.00    +0.000 C 
ATOM      5  C   UNL     1       0.190   9.183  21.019  0.00  0.00    +0.000 A 
ATOM      6  N   UNL     1      -0.122  10.485  20.858  0.00  0.00    +0.000 NA
ATOM      7  N   UNL     1       0.589  10.911  19.747  0.00  0.00    +0.000 N 
ATOM      8  C   UNL     1       1.226   9.834  19.183  0.00  0.00    +0.000 A 
ATOM      9  S   UNL     1       2.187   9.459  17.876  0.00  0.00    +0.000 S 
ATOM     10  C   UNL     1       2.580   7.899  18.583  0.00  0.00    +0.000 A 
ATOM     11  C   UNL     1       1.805   7.649  19.716  0.00  0.00    +0.000 A 
ATOM     12  C   UNL     1       1.064   8.794  20.012  0.00  0.00    +0.000 A 
BRANCH   7  13
ATOM     13  C   UNL     1       0.663  12.308  19.445  0.00  0.00    +0.000 A 
ATOM     14  C   UNL     1       1.922  12.929  19.426  0.00  0.00    +0.000 A 
ATOM     15  C   UNL     1       2.064  14.265  19.027  0.00  0.00    +0.000 A 
ATOM     16  C   UNL     1       0.941  15.008  18.665  0.00  0.00    +0.000 A 
ATOM     17  C   UNL     1      -0.318  14.413  18.718  0.00  0.00    +0.000 A 
ATOM     18  C   UNL     1      -0.464  13.073  19.106  0.00  0.00    +0.000 A 
ENDBRANCH   7  13
ENDBRANCH   1  10
BRANCH   3  19
ATOM     19  C   UNL     1       5.326   5.331  17.992  0.00  0.00    +0.000 C 
BRANCH  19  20
ATOM     20  C   UNL     1       5.233   4.438  16.729  0.00  0.00    +0.000 C 
ATOM     21  O   UNL     1       4.530   3.427  16.736  0.00  0.00    +0.000 OA
ATOM     22  N   UNL     1       6.043   4.779  15.661  0.00  0.00    +0.000 N 
ATOM     23  H   UNL     1       6.748   5.486  15.834  0.00  0.00    +0.000 HD
BRANCH  22  24
ATOM     24  C   UNL     1       6.204   3.954  14.454  0.00  0.00    +0.000 C 
ATOM     25  C   UNL     1       4.935   3.803  13.612  0.00  0.00    +0.000 C 
ATOM     26  C   UNL     1       5.399   3.500  12.188  0.00  0.00    +0.000 C 
ATOM     27  C   UNL     1       6.872   3.878  12.109  0.00  0.00    +0.000 C 
ATOM     28  C   UNL     1       7.273   4.433  13.469  0.00  0.00    +0.000 C 
ENDBRANCH  22  24
ENDBRANCH  19  20
ENDBRANCH   3  19
BRANCH   3  29
ATOM     29  C   UNL     1       3.557   5.358  19.753  0.00  0.00    +0.000 C 
BRANCH  29  30
ATOM     30  C   UNL     1       2.758   4.109  19.580  0.00  0.00    +0.000 A 
ATOM     31  C   UNL     1       2.730   2.851  20.148  0.00  0.00    +0.000 A 
ATOM     32  C   UNL     1       1.705   2.126  19.479  0.00  0.00    +0.000 A 
ATOM     33  C   UNL     1       1.181   2.983  18.542  0.00  0.00    +0.000 A 
ATOM     34  O   UNL     1       1.809   4.181  18.596  0.00  0.00    +0.000 OA
ENDBRANCH  29  30
ENDBRANCH   3  29
TORSDOF 7
ENDMDL
MODEL 5
REMARK VINA RESULT:      -7.7      2.970      5.859
REMARK  Name = 
REMARK  8 active torsions:
REMARK  status: ('A' for Active; 'I' for Inactive)
REMARK    1  A    between atoms: C_1  and  C_2
REMARK    2  A    between atoms: N_4  and  C_5
REMARK    3  A    between atoms: C_13  and  C_14
REMARK    4  A    between atoms: N_16  and  C_17
REMARK    5  A    between atoms: N_16  and  C_26
REMARK    6  A    between atoms: C_17  and  C_18
REMARK    7  A    between atoms: N_20  and  C_21
REMARK    8  A    between atoms: C_26  and  C_27
REMARK                            x       y       z     vdW  Elec       q    Type
REMARK                         _______ _______ _______ _____ _____    ______ ____
ROOT
ATOM      1  C   UNL     1       2.897   7.777  18.223  0.00  0.00    +0.000 C 
ATOM      2  O   UNL     1       3.881   7.972  17.507  0.00  0.00    +0.000 OA
ATOM      3  N   UNL     1       2.889   6.697  19.124  0.00  0.00    +0.000 N 
ENDROOT
BRANCH   1  10
ATOM      4  C   UNL     1      -2.476   9.826  16.646  0.00  0.00    +0.000 C 
ATOM      5  C   UNL     1      -1.514  10.210  17.704  0.00  0.00    +0.000 A 
ATOM      6  N   UNL     1      -1.834  11.159  18.608  0.00  0.00    +0.000 NA
ATOM      7  N   UNL     1      -0.740  11.262  19.453  0.00  0.00    +0.000 N 
ATOM      8  C   UNL     1       0.270  10.464  18.978  0.00  0.00    +0.000 A 
ATOM      9  S   UNL     1       1.848  10.057  19.325  0.00  0.00    +0.000 S 
ATOM     10  C   UNL     1       1.767   8.702  18.208  0.00  0.00    +0.000 A 
ATOM     11  C   UNL     1       0.584   8.726  17.470  0.00  0.00    +0.000 A 
ATOM     12  C   UNL     1      -0.231   9.745  17.964  0.00  0.00    +0.000 A 
BRANCH   7  13
ATOM     13  C   UNL     1      -0.849  12.014  20.666  0.00  0.00    +0.000 A 
ATOM     14  C   UNL     1      -1.649  11.509  21.704  0.00  0.00    +0.000 A 
ATOM     15  C   UNL     1      -1.700  12.145  22.952  0.00  0.00    +0.000 A 
ATOM     16  C   UNL     1      -0.972  13.314  23.171  0.00  0.00    +0.000 A 
ATOM     17  C   UNL     1      -0.207  13.845  22.134  0.00  0.00    +0.000 A 
ATOM     18  C   UNL     1      -0.142  13.206  20.887  0.00  0.00    +0.000 A 
ENDBRANCH   7  13
ENDBRANCH   1  10
BRANCH   3  19
ATOM     19  C   UNL     1       4.142   5.943  19.320  0.00  0.00    +0.000 C 
BRANCH  19  20
ATOM     20  C   UNL     1       4.572   4.916  18.243  0.00  0.00    +0.000 C 
ATOM     21  O   UNL     1       4.429   3.710  18.444  0.00  0.00    +0.000 OA
ATOM     22  N   UNL     1       5.202   5.417  17.118  0.00  0.00    +0.000 N 
ATOM     23  H   UNL     1       5.477   6.392  17.149  0.00  0.00    +0.000 HD
BRANCH  22  24
ATOM     24  C   UNL     1       5.821   4.580  16.079  0.00  0.00    +0.000 C 
ATOM     25  C   UNL     1       4.944   4.343  14.847  0.00  0.00    +0.000 C 
ATOM     26  C   UNL     1       5.898   4.040  13.693  0.00  0.00    +0.000 C 
ATOM     27  C   UNL     1       7.284   4.496  14.129  0.00  0.00    +0.000 C 
ATOM     28  C   UNL     1       7.148   5.098  15.521  0.00  0.00    +0.000 C 
ENDBRANCH  22  24
ENDBRANCH  19  20
ENDBRANCH   3  19
BRANCH   3  29
ATOM     29  C   UNL     1       1.783   6.361  20.025  0.00  0.00    +0.000 C 
BRANCH  29  30
ATOM     30  C   UNL     1       1.597   4.907  20.306  0.00  0.00    +0.000 A 
ATOM     31  C   UNL     1       1.845   4.051  21.359  0.00  0.00    +0.000 A 
ATOM     32  C   UNL     1       1.434   2.756  20.937  0.00  0.00    +0.000 A 
ATOM     33  C   UNL     1       0.971   2.903  19.652  0.00  0.00    +0.000 A 
ATOM     34  O   UNL     1       1.066   4.196  19.263  0.00  0.00    +0.000 OA
ENDBRANCH  29  30
ENDBRANCH   3  29
TORSDOF 7
ENDMDL
MODEL 6
REMARK VINA RESULT:      -7.5      2.568      5.016
REMARK  Name = 
REMARK  8 active torsions:
REMARK  status: ('A' for Active; 'I' for Inactive)
REMARK    1  A    between atoms: C_1  and  C_2
REMARK    2  A    between atoms: N_4  and  C_5
REMARK    3  A    between atoms: C_13  and  C_14
REMARK    4  A    between atoms: N_16  and  C_17
REMARK    5  A    between atoms: N_16  and  C_26
REMARK    6  A    between atoms: C_17  and  C_18
REMARK    7  A    between atoms: N_20  and  C_21
REMARK    8  A    between atoms: C_26  and  C_27
REMARK                            x       y       z     vdW  Elec       q    Type
REMARK                         _______ _______ _______ _____ _____    ______ ____
ROOT
ATOM      1  C   UNL     1       3.543   6.822  18.168  0.00  0.00    +0.000 C 
ATOM      2  O   UNL     1       4.712   7.193  18.046  0.00  0.00    +0.000 OA
ATOM      3  N   UNL     1       3.181   5.515  17.797  0.00  0.00    +0.000 N 
ENDROOT
BRANCH   1  10
ATOM      4  C   UNL     1      -0.304   8.673  22.330  0.00  0.00    +0.000 C 
ATOM      5  C   UNL     1       0.266   9.309  21.120  0.00  0.00    +0.000 A 
ATOM      6  N   UNL     1      -0.010  10.597  20.830  0.00  0.00    +0.000 NA
ATOM      7  N   UNL     1       0.682  10.880  19.663  0.00  0.00    +0.000 N 
ATOM      8  C   UNL     1       1.267   9.728  19.199  0.00  0.00    +0.000 A 
ATOM      9  S   UNL     1       2.179   9.186  17.915  0.00  0.00    +0.000 S 
ATOM     10  C   UNL     1       2.541   7.696  18.773  0.00  0.00    +0.000 A 
ATOM     11  C   UNL     1       1.792   7.593  19.945  0.00  0.00    +0.000 A 
ATOM     12  C   UNL     1       1.097   8.787  20.137  0.00  0.00    +0.000 A 
BRANCH   7  13
ATOM     13  C   UNL     1       0.792  12.234  19.214  0.00  0.00    +0.000 A 
ATOM     14  C   UNL     1      -0.362  13.033  19.187  0.00  0.00    +0.000 A 
ATOM     15  C   UNL     1      -0.291  14.396  18.865  0.00  0.00    +0.000 A 
ATOM     16  C   UNL     1       0.935  14.973  18.539  0.00  0.00    +0.000 A 
ATOM     17  C   UNL     1       2.081  14.180  18.523  0.00  0.00    +0.000 A 
ATOM     18  C   UNL     1       2.018  12.818  18.856  0.00  0.00    +0.000 A 
ENDBRANCH   7  13
ENDBRANCH   1  10
BRANCH   3  19
ATOM     19  C   UNL     1       4.255   4.565  17.452  0.00  0.00    +0.000 C 
BRANCH  19  20
ATOM     20  C   UNL     1       5.071   4.800  16.155  0.00  0.00    +0.000 C 
ATOM     21  O   UNL     1       4.850   5.787  15.454  0.00  0.00    +0.000 OA
ATOM     22  N   UNL     1       5.965   3.809  15.792  0.00  0.00    +0.000 N 
ATOM     23  H   UNL     1       5.910   2.937  16.306  0.00  0.00    +0.000 HD
BRANCH  22  24
ATOM     24  C   UNL     1       6.697   3.788  14.517  0.00  0.00    +0.000 C 
ATOM     25  C   UNL     1       5.827   3.512  13.288  0.00  0.00    +0.000 C 
ATOM     26  C   UNL     1       6.559   4.126  12.096  0.00  0.00    +0.000 C 
ATOM     27  C   UNL     1       7.599   5.088  12.659  0.00  0.00    +0.000 C 
ATOM     28  C   UNL     1       7.461   5.069  14.175  0.00  0.00    +0.000 C 
ENDBRANCH  22  24
ENDBRANCH  19  20
ENDBRANCH   3  19
BRANCH   3  29
ATOM     29  C   UNL     1       1.829   4.956  17.895  0.00  0.00    +0.000 C 
BRANCH  29  30
ATOM     30  C   UNL     1       1.589   4.044  19.051  0.00  0.00    +0.000 A 
ATOM     31  C   UNL     1       1.085   4.159  20.330  0.00  0.00    +0.000 A 
ATOM     32  C   UNL     1       1.164   2.866  20.918  0.00  0.00    +0.000 A 
ATOM     33  C   UNL     1       1.719   2.047  19.964  0.00  0.00    +0.000 A 
ATOM     34  O   UNL     1       1.979   2.749  18.835  0.00  0.00    +0.000 OA
ENDBRANCH  29  30
ENDBRANCH   3  29
TORSDOF 7
ENDMDL
MODEL 7
REMARK VINA RESULT:      -7.2      2.642      4.969
REMARK  Name = 
REMARK  8 active torsions:
REMARK  status: ('A' for Active; 'I' for Inactive)
REMARK    1  A    between atoms: C_1  and  C_2
REMARK    2  A    between atoms: N_4  and  C_5
REMARK    3  A    between atoms: C_13  and  C_14
REMARK    4  A    between atoms: N_16  and  C_17
REMARK    5  A    between atoms: N_16  and  C_26
REMARK    6  A    between atoms: C_17  and  C_18
REMARK    7  A    between atoms: N_20  and  C_21
REMARK    8  A    between atoms: C_26  and  C_27
REMARK                            x       y       z     vdW  Elec       q    Type
REMARK                         _______ _______ _______ _____ _____    ______ ____
ROOT
ATOM      1  C   UNL     1       3.465   7.185  18.146  0.00  0.00    +0.000 C 
ATOM      2  O   UNL     1       4.608   7.629  18.021  0.00  0.00    +0.000 OA
ATOM      3  N   UNL     1       3.173   5.874  17.726  0.00  0.00    +0.000 N 
ENDROOT
BRANCH   1  10
ATOM      4  C   UNL     1      -0.360   8.670  22.471  0.00  0.00    +0.000 C 
ATOM      5  C   UNL     1       0.122   9.371  21.258  0.00  0.00    +0.000 A 
ATOM      6  N   UNL     1      -0.254  10.642  21.007  0.00  0.00    +0.000 NA
ATOM      7  N   UNL     1       0.377  10.997  19.825  0.00  0.00    +0.000 N 
ATOM      8  C   UNL     1       1.026   9.900  19.316  0.00  0.00    +0.000 A 
ATOM      9  S   UNL     1       1.929   9.450  17.991  0.00  0.00    +0.000 S 
ATOM     10  C   UNL     1       2.425   7.972  18.802  0.00  0.00    +0.000 A 
ATOM     11  C   UNL     1       1.725   7.792  19.995  0.00  0.00    +0.000 A 
ATOM     12  C   UNL     1       0.955   8.929  20.238  0.00  0.00    +0.000 A 
BRANCH   7  13
ATOM     13  C   UNL     1       0.376  12.365  19.404  0.00  0.00    +0.000 A 
ATOM     14  C   UNL     1      -0.808  13.108  19.526  0.00  0.00    +0.000 A 
ATOM     15  C   UNL     1      -0.834  14.479  19.235  0.00  0.00    +0.000 A 
ATOM     16  C   UNL     1       0.321  15.121  18.793  0.00  0.00    +0.000 A 
ATOM     17  C   UNL     1       1.493  14.384  18.630  0.00  0.00    +0.000 A 
ATOM     18  C   UNL     1       1.528  13.014  18.931  0.00  0.00    +0.000 A 
ENDBRANCH   7  13
ENDBRANCH   1  10
BRANCH   3  19
ATOM     19  C   UNL     1       4.294   5.004  17.324  0.00  0.00    +0.000 C 
BRANCH  19  20
ATOM     20  C   UNL     1       4.960   5.234  15.943  0.00  0.00    +0.000 C 
ATOM     21  O   UNL     1       5.378   6.350  15.635  0.00  0.00    +0.000 OA
ATOM     22  N   UNL     1       4.962   4.165  15.065  0.00  0.00    +0.000 N 
ATOM     23  H   UNL     1       4.395   3.365  15.323  0.00  0.00    +0.000 HD
BRANCH  22  24
ATOM     24  C   UNL     1       5.399   4.252  13.664  0.00  0.00    +0.000 C 
ATOM     25  C   UNL     1       6.900   4.044  13.451  0.00  0.00    +0.000 C 
ATOM     26  C   UNL     1       7.066   3.551  12.015  0.00  0.00    +0.000 C 
ATOM     27  C   UNL     1       5.695   3.084  11.543  0.00  0.00    +0.000 C 
ATOM     28  C   UNL     1       4.728   3.268  12.704  0.00  0.00    +0.000 C 
ENDBRANCH  22  24
ENDBRANCH  19  20
ENDBRANCH   3  19
BRANCH   3  29
ATOM     29  C   UNL     1       1.858   5.233  17.822  0.00  0.00    +0.000 C 
BRANCH  29  30
ATOM     30  C   UNL     1       1.693   4.261  18.942  0.00  0.00    +0.000 A 
ATOM     31  C   UNL     1       1.289   4.312  20.261  0.00  0.00    +0.000 A 
ATOM     32  C   UNL     1       1.393   2.987  20.770  0.00  0.00    +0.000 A 
ATOM     33  C   UNL     1       1.863   2.217  19.734  0.00  0.00    +0.000 A 
ATOM     34  O   UNL     1       2.047   2.976  18.628  0.00  0.00    +0.000 OA
ENDBRANCH  29  30
ENDBRANCH   3  29
TORSDOF 7
ENDMDL
MODEL 8
REMARK VINA RESULT:      -7.2      5.339      9.114
REMARK  Name = 
REMARK  8 active torsions:
REMARK  status: ('A' for Active; 'I' for Inactive)
REMARK    1  A    between atoms: C_1  and  C_2
REMARK    2  A    between atoms: N_4  and  C_5
REMARK    3  A    between atoms: C_13  and  C_14
REMARK    4  A    between atoms: N_16  and  C_17
REMARK    5  A    between atoms: N_16  and  C_26
REMARK    6  A    between atoms: C_17  and  C_18
REMARK    7  A    between atoms: N_20  and  C_21
REMARK    8  A    between atoms: C_26  and  C_27
REMARK                            x       y       z     vdW  Elec       q    Type
REMARK                         _______ _______ _______ _____ _____    ______ ____
ROOT
ATOM      1  C   UNL     1       1.653  11.818  18.465  0.00  0.00    +0.000 C 
ATOM      2  O   UNL     1       2.768  12.033  17.985  0.00  0.00    +0.000 OA
ATOM      3  N   UNL     1       1.105  10.523  18.411  0.00  0.00    +0.000 N 
ENDROOT
BRANCH   1  10
ATOM      4  C   UNL     1      -1.154  17.041  19.089  0.00  0.00    +0.000 C 
ATOM      5  C   UNL     1      -1.049  15.837  19.945  0.00  0.00    +0.000 A 
ATOM      6  N   UNL     1      -1.745  15.754  21.097  0.00  0.00    +0.000 NA
ATOM      7  N   UNL     1      -1.440  14.514  21.636  0.00  0.00    +0.000 N 
ATOM      8  C   UNL     1      -0.474  13.916  20.866  0.00  0.00    +0.000 A 
ATOM      9  S   UNL     1       0.450  12.531  20.823  0.00  0.00    +0.000 S 
ATOM     10  C   UNL     1       0.925  12.872  19.166  0.00  0.00    +0.000 A 
ATOM     11  C   UNL     1       0.500  14.141  18.770  0.00  0.00    +0.000 A 
ATOM     12  C   UNL     1      -0.301  14.678  19.778  0.00  0.00    +0.000 A 
BRANCH   7  13
ATOM     13  C   UNL     1      -2.199  14.014  22.742  0.00  0.00    +0.000 A 
ATOM     14  C   UNL     1      -2.429  14.859  23.839  0.00  0.00    +0.000 A 
ATOM     15  C   UNL     1      -3.259  14.462  24.897  0.00  0.00    +0.000 A 
ATOM     16  C   UNL     1      -3.850  13.199  24.883  0.00  0.00    +0.000 A 
ATOM     17  C   UNL     1      -3.597  12.338  23.818  0.00  0.00    +0.000 A 
ATOM     18  C   UNL     1      -2.776  12.735  22.751  0.00  0.00    +0.000 A 
ENDBRANCH   7  13
ENDBRANCH   1  10
BRANCH   3  19
ATOM     19  C   UNL     1       1.968   9.420  17.949  0.00  0.00    +0.000 C 
BRANCH  19  20
ATOM     20  C   UNL     1       2.037   8.122  18.794  0.00  0.00    +0.000 C 
ATOM     21  O   UNL     1       1.897   8.171  20.016  0.00  0.00    +0.000 OA
ATOM     22  N   UNL     1       2.359   6.956  18.123  0.00  0.00    +0.000 N 
ATOM     23  H   UNL     1       2.678   7.057  17.167  0.00  0.00    +0.000 HD
BRANCH  22  24
ATOM     24  C   UNL     1       2.628   5.672  18.787  0.00  0.00    +0.000 C 
ATOM     25  C   UNL     1       2.263   4.438  17.958  0.00  0.00    +0.000 C 
ATOM     26  C   UNL     1       3.139   3.299  18.475  0.00  0.00    +0.000 C 
ATOM     27  C   UNL     1       4.267   3.933  19.279  0.00  0.00    +0.000 C 
ATOM     28  C   UNL     1       4.080   5.443  19.211  0.00  0.00    +0.000 C 
ENDBRANCH  22  24
ENDBRANCH  19  20
ENDBRANCH   3  19
BRANCH   3  29
ATOM     29  C   UNL     1      -0.205  10.141  18.944  0.00  0.00    +0.000 C 
BRANCH  29  30
ATOM     30  C   UNL     1      -1.364  10.357  18.029  0.00  0.00    +0.000 A 
ATOM     31  C   UNL     1      -1.825   9.807  16.850  0.00  0.00    +0.000 A 
ATOM     32  C   UNL     1      -3.007  10.519  16.503  0.00  0.00    +0.000 A 
ATOM     33  C   UNL     1      -3.185  11.464  17.485  0.00  0.00    +0.000 A 
ATOM     34  O   UNL     1      -2.199  11.373  18.409  0.00  0.00    +0.000 OA
ENDBRANCH  29  30
ENDBRANCH   3  29
TORSDOF 7
ENDMDL
MODEL 9
REMARK VINA RESULT:      -7.2      4.263      9.129
REMARK  Name = 
REMARK  8 active torsions:
REMARK  status: ('A' for Active; 'I' for Inactive)
REMARK    1  A    between atoms: C_1  and  C_2
REMARK    2  A    between atoms: N_4  and  C_5
REMARK    3  A    between atoms: C_13  and  C_14
REMARK    4  A    between atoms: N_16  and  C_17
REMARK    5  A    between atoms: N_16  and  C_26
REMARK    6  A    between atoms: C_17  and  C_18
REMARK    7  A    between atoms: N_20  and  C_21
REMARK    8  A    between atoms: C_26  and  C_27
REMARK                            x       y       z     vdW  Elec       q    Type
REMARK                         _______ _______ _______ _____ _____    ______ ____
ROOT
ATOM      1  C   UNL     1       0.880   9.246  21.179  0.00  0.00    +0.000 C 
ATOM      2  O   UNL     1       0.976   9.646  22.341  0.00  0.00    +0.000 OA
ATOM      3  N   UNL     1       0.328  10.084  20.193  0.00  0.00    +0.000 N 
ENDROOT
BRANCH   1  10
ATOM      4  C   UNL     1       1.074   3.295  20.871  0.00  0.00    +0.000 C 
ATOM      5  C   UNL     1       1.798   4.372  20.158  0.00  0.00    +0.000 A 
ATOM      6  N   UNL     1       2.653   4.075  19.158  0.00  0.00    +0.000 NA
ATOM      7  N   UNL     1       3.139   5.291  18.701  0.00  0.00    +0.000 N 
ATOM      8  C   UNL     1       2.665   6.294  19.509  0.00  0.00    +0.000 A 
ATOM      9  S   UNL     1       2.787   7.944  19.700  0.00  0.00    +0.000 S 
ATOM     10  C   UNL     1       1.409   7.941  20.792  0.00  0.00    +0.000 A 
ATOM     11  C   UNL     1       1.023   6.639  21.114  0.00  0.00    +0.000 A 
ATOM     12  C   UNL     1       1.768   5.749  20.341  0.00  0.00    +0.000 A 
BRANCH   7  13
ATOM     13  C   UNL     1       3.891   5.342  17.485  0.00  0.00    +0.000 A 
ATOM     14  C   UNL     1       4.274   6.595  16.980  0.00  0.00    +0.000 A 
ATOM     15  C   UNL     1       5.106   6.698  15.857  0.00  0.00    +0.000 A 
ATOM     16  C   UNL     1       5.545   5.547  15.204  0.00  0.00    +0.000 A 
ATOM     17  C   UNL     1       5.138   4.299  15.673  0.00  0.00    +0.000 A 
ATOM     18  C   UNL     1       4.315   4.189  16.804  0.00  0.00    +0.000 A 
ENDBRANCH   7  13
ENDBRANCH   1  10
BRANCH   3  19
ATOM     19  C   UNL     1       0.057  11.490  20.546  0.00  0.00    +0.000 C 
BRANCH  19  20
ATOM     20  C   UNL     1       1.200  12.528  20.410  0.00  0.00    +0.000 C 
ATOM     21  O   UNL     1       1.996  12.697  21.332  0.00  0.00    +0.000 OA
ATOM     22  N   UNL     1       1.207  13.303  19.264  0.00  0.00    +0.000 N 
ATOM     23  H   UNL     1       0.385  13.248  18.674  0.00  0.00    +0.000 HD
BRANCH  22  24
ATOM     24  C   UNL     1       2.113  14.440  19.045  0.00  0.00    +0.000 C 
ATOM     25  C   UNL     1       3.098  14.256  17.887  0.00  0.00    +0.000 C 
ATOM     26  C   UNL     1       3.477  15.660  17.419  0.00  0.00    +0.000 C 
ATOM     27  C   UNL     1       2.438  16.617  17.991  0.00  0.00    +0.000 C 
ATOM     28  C   UNL     1       1.430  15.781  18.768  0.00  0.00    +0.000 C 
ENDBRANCH  22  24
ENDBRANCH  19  20
ENDBRANCH   3  19
BRANCH   3  29
ATOM     29  C   UNL     1       0.162   9.726  18.782  0.00  0.00    +0.000 C 
BRANCH  29  30
ATOM     30  C   UNL     1      -1.109  10.181  18.146  0.00  0.00    +0.000 A 
ATOM     31  C   UNL     1      -2.327   9.617  17.826  0.00  0.00    +0.000 A 
ATOM     32  C   UNL     1      -3.097  10.637  17.199  0.00  0.00    +0.000 A 
ATOM     33  C   UNL     1      -2.297  11.753  17.169  0.00  0.00    +0.000 A 
ATOM     34  O   UNL     1      -1.096  11.488  17.737  0.00  0.00    +0.000 OA
ENDBRANCH  29  30
ENDBRANCH   3  29
TORSDOF 7
ENDMDL
