MODEL 1
REMARK VINA RESULT:      -9.6      0.000      0.000
REMARK  Name = 
REMARK  5 active torsions:
REMARK  status: ('A' for Active; 'I' for Inactive)
REMARK    1  A    between atoms: C_1  and  C_2
REMARK    2  A    between atoms: C_5  and  C_6
REMARK    3  A    between atoms: C_6  and  N_7
REMARK    4  A    between atoms: C_12  and  C_13
REMARK    5  A    between atoms: C_26  and  C_27
REMARK                            x       y       z     vdW  Elec       q    Type
REMARK                         _______ _______ _______ _____ _____    ______ ____
ROOT
ATOM      1  N   UNL     1       6.117   5.364  17.024  0.00  0.00    +0.000 N 
ATOM      2  C   UNL     1       6.852   4.790  18.058  0.00  0.00    +0.000 A 
ATOM      3  C   UNL     1       7.698   5.534  18.778  0.00  0.00    +0.000 A 
ATOM      4  N   UNL     1       7.844   6.884  18.497  0.00  0.00    +0.000 N 
ATOM      5  N   UNL     1       8.647   7.771  19.117  0.00  0.00    +0.000 NA
ATOM      6  C   UNL     1       8.488   8.923  18.445  0.00  0.00    +0.000 A 
ATOM      7  C   UNL     1       7.497   8.797  17.447  0.00  0.00    +0.000 A 
ATOM      8  C   UNL     1       7.135   7.475  17.481  0.00  0.00    +0.000 A 
ATOM      9  C   UNL     1       6.221   6.718  16.671  0.00  0.00    +0.000 A 
ATOM     10  O   UNL     1       5.579   7.229  15.759  0.00  0.00    +0.000 OA
ENDROOT
BRANCH   6  11
ATOM     11  C   UNL     1       9.284  10.101  18.766  0.00  0.00    +0.000 A 
ATOM     12  C   UNL     1       9.461  10.506  20.111  0.00  0.00    +0.000 A 
ATOM     13  C   UNL     1      10.233  11.625  20.429  0.00  0.00    +0.000 A 
ATOM     14  C   UNL     1      10.831  12.297  19.388  0.00  0.00    +0.000 A 
ATOM     15  C   UNL     1      10.647  11.921  18.077  0.00  0.00    +0.000 A 
ATOM     16  C   UNL     1       9.869  10.843  17.731  0.00  0.00    +0.000 A 
ATOM     17  O   UNL     1      11.340  12.709  17.211  0.00  0.00    +0.000 OA
ATOM     18  C   UNL     1      12.156  13.442  18.143  0.00  0.00    +0.000 C 
ATOM     19  O   UNL     1      11.672  13.360  19.501  0.00  0.00    +0.000 OA
ENDBRANCH   6  11
BRANCH   1  20
ATOM     20  C   UNL     1       5.095   4.578  16.345  0.00  0.00    +0.000 C 
BRANCH  20  25
ATOM     21  C   UNL     1       0.780   2.513  19.717  0.00  0.00    +0.000 C 
ATOM     22  C   UNL     1       1.909   3.037  18.882  0.00  0.00    +0.000 A 
ATOM     23  C   UNL     1       2.849   2.170  18.333  0.00  0.00    +0.000 A 
ATOM     24  C   UNL     1       3.877   2.669  17.533  0.00  0.00    +0.000 A 
ATOM     25  C   UNL     1       4.001   4.045  17.259  0.00  0.00    +0.000 A 
ATOM     26  C   UNL     1       3.077   4.929  17.854  0.00  0.00    +0.000 A 
ATOM     27  C   UNL     1       3.152   6.425  17.697  0.00  0.00    +0.000 C 
ATOM     28  C   UNL     1       2.039   4.411  18.652  0.00  0.00    +0.000 A 
ENDBRANCH  20  25
ENDBRANCH   1  20
TORSDOF 3
ENDMDL
MODEL 2
REMARK VINA RESULT:      -9.3      0.429      1.347
REMARK  Name = 
REMARK  5 active torsions:
REMARK  status: ('A' for Active; 'I' for Inactive)
REMARK    1  A    between atoms: C_1  and  C_2
REMARK    2  A    between atoms: C_5  and  C_6
REMARK    3  A    between atoms: C_6  and  N_7
REMARK    4  A    between atoms: C_12  and  C_13
REMARK    5  A    between atoms: C_26  and  C_27
REMARK                            x       y       z     vdW  Elec       q    Type
REMARK                         _______ _______ _______ _____ _____    ______ ____
ROOT
ATOM      1  N   UNL     1       6.143   5.251  17.179  0.00  0.00    +0.000 N 
ATOM      2  C   UNL     1       6.940   4.713  18.186  0.00  0.00    +0.000 A 
ATOM      3  C   UNL     1       7.794   5.490  18.859  0.00  0.00    +0.000 A 
ATOM      4  N   UNL     1       7.888   6.840  18.555  0.00  0.00    +0.000 N 
ATOM      5  N   UNL     1       8.690   7.758  19.128  0.00  0.00    +0.000 NA
ATOM      6  C   UNL     1       8.467   8.896  18.451  0.00  0.00    +0.000 A 
ATOM      7  C   UNL     1       7.437   8.728  17.500  0.00  0.00    +0.000 A 
ATOM      8  C   UNL     1       7.117   7.397  17.566  0.00  0.00    +0.000 A 
ATOM      9  C   UNL     1       6.190   6.603  16.807  0.00  0.00    +0.000 A 
ATOM     10  O   UNL     1       5.493   7.083  15.918  0.00  0.00    +0.000 OA
ENDROOT
BRANCH   6  11
ATOM     11  C   UNL     1       9.242  10.101  18.723  0.00  0.00    +0.000 A 
ATOM     12  C   UNL     1       9.514  10.497  20.054  0.00  0.00    +0.000 A 
ATOM     13  C   UNL     1      10.267  11.642  20.324  0.00  0.00    +0.000 A 
ATOM     14  C   UNL     1      10.750  12.349  19.247  0.00  0.00    +0.000 A 
ATOM     15  C   UNL     1      10.472  11.981  17.950  0.00  0.00    +0.000 A 
ATOM     16  C   UNL     1       9.710  10.877  17.653  0.00  0.00    +0.000 A 
ATOM     17  O   UNL     1      11.060  12.806  17.041  0.00  0.00    +0.000 OA
ATOM     18  C   UNL     1      11.922  13.559  17.913  0.00  0.00    +0.000 C 
ATOM     19  O   UNL     1      11.556  13.442  19.305  0.00  0.00    +0.000 OA
ENDBRANCH   6  11
BRANCH   1  20
ATOM     20  C   UNL     1       5.115   4.427  16.556  0.00  0.00    +0.000 C 
BRANCH  20  25
ATOM     21  C   UNL     1       0.519   3.501  20.059  0.00  0.00    +0.000 C 
ATOM     22  C   UNL     1       1.672   3.740  19.132  0.00  0.00    +0.000 A 
ATOM     23  C   UNL     1       1.935   5.015  18.639  0.00  0.00    +0.000 A 
ATOM     24  C   UNL     1       3.030   5.228  17.802  0.00  0.00    +0.000 A 
ATOM     25  C   UNL     1       3.893   4.179  17.429  0.00  0.00    +0.000 A 
ATOM     26  C   UNL     1       3.600   2.879  17.890  0.00  0.00    +0.000 A 
ATOM     27  C   UNL     1       4.403   1.667  17.500  0.00  0.00    +0.000 C 
ATOM     28  C   UNL     1       2.497   2.680  18.742  0.00  0.00    +0.000 A 
ENDBRANCH  20  25
ENDBRANCH   1  20
TORSDOF 3
ENDMDL
MODEL 3
REMARK VINA RESULT:      -9.2      0.665      1.376
REMARK  Name = 
REMARK  5 active torsions:
REMARK  status: ('A' for Active; 'I' for Inactive)
REMARK    1  A    between atoms: C_1  and  C_2
REMARK    2  A    between atoms: C_5  and  C_6
REMARK    3  A    between atoms: C_6  and  N_7
REMARK    4  A    between atoms: C_12  and  C_13
REMARK    5  A    between atoms: C_26  and  C_27
REMARK                            x       y       z     vdW  Elec       q    Type
REMARK                         _______ _______ _______ _____ _____    ______ ____
ROOT
ATOM      1  N   UNL     1       6.166   5.387  17.099  0.00  0.00    +0.000 N 
ATOM      2  C   UNL     1       6.929   4.854  18.134  0.00  0.00    +0.000 A 
ATOM      3  C   UNL     1       7.772   5.632  18.821  0.00  0.00    +0.000 A 
ATOM      4  N   UNL     1       7.887   6.977  18.504  0.00  0.00    +0.000 N 
ATOM      5  N   UNL     1       8.682   7.894  19.088  0.00  0.00    +0.000 NA
ATOM      6  C   UNL     1       8.490   9.026  18.391  0.00  0.00    +0.000 A 
ATOM      7  C   UNL     1       7.485   8.856  17.414  0.00  0.00    +0.000 A 
ATOM      8  C   UNL     1       7.150   7.529  17.487  0.00  0.00    +0.000 A 
ATOM      9  C   UNL     1       6.236   6.734  16.712  0.00  0.00    +0.000 A 
ATOM     10  O   UNL     1       5.570   7.210  15.798  0.00  0.00    +0.000 OA
ENDROOT
BRANCH   6  11
ATOM     11  C   UNL     1       9.269  10.226  18.670  0.00  0.00    +0.000 A 
ATOM     12  C   UNL     1      10.017  10.852  17.644  0.00  0.00    +0.000 A 
ATOM     13  C   UNL     1      10.756  12.010  17.898  0.00  0.00    +0.000 A 
ATOM     14  C   UNL     1      10.705  12.526  19.173  0.00  0.00    +0.000 A 
ATOM     15  C   UNL     1       9.995  11.911  20.179  0.00  0.00    +0.000 A 
ATOM     16  C   UNL     1       9.284  10.755  19.968  0.00  0.00    +0.000 A 
ATOM     17  O   UNL     1      10.065  12.595  21.353  0.00  0.00    +0.000 OA
ATOM     18  C   UNL     1      10.680  13.813  20.893  0.00  0.00    +0.000 C 
ATOM     19  O   UNL     1      11.293  13.677  19.593  0.00  0.00    +0.000 OA
ENDBRANCH   6  11
BRANCH   1  20
ATOM     20  C   UNL     1       5.148   4.565  16.458  0.00  0.00    +0.000 C 
BRANCH  20  25
ATOM     21  C   UNL     1       0.882   2.578  19.937  0.00  0.00    +0.000 C 
ATOM     22  C   UNL     1       1.998   3.083  19.075  0.00  0.00    +0.000 A 
ATOM     23  C   UNL     1       2.950   2.209  18.558  0.00  0.00    +0.000 A 
ATOM     24  C   UNL     1       3.965   2.689  17.732  0.00  0.00    +0.000 A 
ATOM     25  C   UNL     1       4.066   4.054  17.400  0.00  0.00    +0.000 A 
ATOM     26  C   UNL     1       3.132   4.948  17.962  0.00  0.00    +0.000 A 
ATOM     27  C   UNL     1       3.182   6.437  17.742  0.00  0.00    +0.000 C 
ATOM     28  C   UNL     1       2.106   4.448  18.786  0.00  0.00    +0.000 A 
ENDBRANCH  20  25
ENDBRANCH   1  20
TORSDOF 3
ENDMDL
MODEL 4
REMARK VINA RESULT:      -9.2      1.127      1.391
REMARK  Name = 
REMARK  5 active torsions:
REMARK  status: ('A' for Active; 'I' for Inactive)
REMARK    1  A    between atoms: C_1  and  C_2
REMARK    2  A    between atoms: C_5  and  C_6
REMARK    3  A    between atoms: C_6  and  N_7
REMARK    4  A    between atoms: C_12  and  C_13
REMARK    5  A    between atoms: C_26  and  C_27
REMARK                            x       y       z     vdW  Elec       q    Type
REMARK                         _______ _______ _______ _____ _____    ______ ____
ROOT
ATOM      1  N   UNL     1       6.233   5.487  17.643  0.00  0.00    +0.000 N 
ATOM      2  C   UNL     1       7.144   5.128  18.632  0.00  0.00    +0.000 A 
ATOM      3  C   UNL     1       8.010   6.027  19.112  0.00  0.00    +0.000 A 
ATOM      4  N   UNL     1       8.000   7.325  18.625  0.00  0.00    +0.000 N 
ATOM      5  N   UNL     1       8.797   8.348  18.993  0.00  0.00    +0.000 NA
ATOM      6  C   UNL     1       8.451   9.371  18.195  0.00  0.00    +0.000 A 
ATOM      7  C   UNL     1       7.352   9.029  17.376  0.00  0.00    +0.000 A 
ATOM      8  C   UNL     1       7.115   7.707  17.648  0.00  0.00    +0.000 A 
ATOM      9  C   UNL     1       6.171   6.776  17.092  0.00  0.00    +0.000 A 
ATOM     10  O   UNL     1       5.373   7.099  16.218  0.00  0.00    +0.000 OA
ENDROOT
BRANCH   6  11
ATOM     11  C   UNL     1       9.178  10.635  18.230  0.00  0.00    +0.000 A 
ATOM     12  C   UNL     1       8.635  11.794  17.625  0.00  0.00    +0.000 A 
ATOM     13  C   UNL     1       9.318  13.011  17.665  0.00  0.00    +0.000 A 
ATOM     14  C   UNL     1      10.520  13.041  18.333  0.00  0.00    +0.000 A 
ATOM     15  C   UNL     1      11.063  11.913  18.905  0.00  0.00    +0.000 A 
ATOM     16  C   UNL     1      10.430  10.695  18.857  0.00  0.00    +0.000 A 
ATOM     17  O   UNL     1      12.246  12.167  19.528  0.00  0.00    +0.000 OA
ATOM     18  C   UNL     1      12.240  13.606  19.490  0.00  0.00    +0.000 C 
ATOM     19  O   UNL     1      11.293  14.141  18.541  0.00  0.00    +0.000 OA
ENDBRANCH   6  11
BRANCH   1  20
ATOM     20  C   UNL     1       5.203   4.542  17.235  0.00  0.00    +0.000 C 
BRANCH  20  25
ATOM     21  C   UNL     1       1.536   2.749  21.430  0.00  0.00    +0.000 C 
ATOM     22  C   UNL     1       2.498   3.223  20.383  0.00  0.00    +0.000 A 
ATOM     23  C   UNL     1       3.687   2.539  20.148  0.00  0.00    +0.000 A 
ATOM     24  C   UNL     1       4.558   2.972  19.149  0.00  0.00    +0.000 A 
ATOM     25  C   UNL     1       4.273   4.102  18.357  0.00  0.00    +0.000 A 
ATOM     26  C   UNL     1       3.091   4.823  18.626  0.00  0.00    +0.000 A 
ATOM     27  C   UNL     1       2.715   6.087  17.898  0.00  0.00    +0.000 C 
ATOM     28  C   UNL     1       2.216   4.368  19.631  0.00  0.00    +0.000 A 
ENDBRANCH  20  25
ENDBRANCH   1  20
TORSDOF 3
ENDMDL
MODEL 5
REMARK VINA RESULT:      -9.0      0.905      1.811
REMARK  Name = 
REMARK  5 active torsions:
REMARK  status: ('A' for Active; 'I' for Inactive)
REMARK    1  A    between atoms: C_1  and  C_2
REMARK    2  A    between atoms: C_5  and  C_6
REMARK    3  A    between atoms: C_6  and  N_7
REMARK    4  A    between atoms: C_12  and  C_13
REMARK    5  A    between atoms: C_26  and  C_27
REMARK                            x       y       z     vdW  Elec       q    Type
REMARK                         _______ _______ _______ _____ _____    ______ ____
ROOT
ATOM      1  N   UNL     1       6.133   5.132  17.207  0.00  0.00    +0.000 N 
ATOM      2  C   UNL     1       7.033   4.721  18.186  0.00  0.00    +0.000 A 
ATOM      3  C   UNL     1       7.856   5.605  18.760  0.00  0.00    +0.000 A 
ATOM      4  N   UNL     1       7.813   6.938  18.382  0.00  0.00    +0.000 N 
ATOM      5  N   UNL     1       8.566   7.952  18.853  0.00  0.00    +0.000 NA
ATOM      6  C   UNL     1       8.204   9.026  18.133  0.00  0.00    +0.000 A 
ATOM      7  C   UNL     1       7.137   8.718  17.261  0.00  0.00    +0.000 A 
ATOM      8  C   UNL     1       6.938   7.371  17.417  0.00  0.00    +0.000 A 
ATOM      9  C   UNL     1       6.040   6.460  16.762  0.00  0.00    +0.000 A 
ATOM     10  O   UNL     1       5.252   6.828  15.897  0.00  0.00    +0.000 OA
ENDROOT
BRANCH   6  11
ATOM     11  C   UNL     1       8.886  10.305  18.291  0.00  0.00    +0.000 A 
ATOM     12  C   UNL     1       8.456  11.443  17.567  0.00  0.00    +0.000 A 
ATOM     13  C   UNL     1       9.095  12.676  17.722  0.00  0.00    +0.000 A 
ATOM     14  C   UNL     1      10.137  12.741  18.619  0.00  0.00    +0.000 A 
ATOM     15  C   UNL     1      10.573  11.633  19.309  0.00  0.00    +0.000 A 
ATOM     16  C   UNL     1       9.984  10.401  19.157  0.00  0.00    +0.000 A 
ATOM     17  O   UNL     1      11.600  11.921  20.154  0.00  0.00    +0.000 OA
ATOM     18  C   UNL     1      11.576  13.359  20.088  0.00  0.00    +0.000 C 
ATOM     19  O   UNL     1      10.832  13.859  18.957  0.00  0.00    +0.000 OA
ENDBRANCH   6  11
BRANCH   1  20
ATOM     20  C   UNL     1       5.145   4.191  16.696  0.00  0.00    +0.000 C 
BRANCH  20  25
ATOM     21  C   UNL     1       0.562   3.529  20.274  0.00  0.00    +0.000 C 
ATOM     22  C   UNL     1       1.711   3.701  19.328  0.00  0.00    +0.000 A 
ATOM     23  C   UNL     1       2.031   4.956  18.819  0.00  0.00    +0.000 A 
ATOM     24  C   UNL     1       3.122   5.107  17.964  0.00  0.00    +0.000 A 
ATOM     25  C   UNL     1       3.926   4.012  17.589  0.00  0.00    +0.000 A 
ATOM     26  C   UNL     1       3.575   2.733  18.066  0.00  0.00    +0.000 A 
ATOM     27  C   UNL     1       4.310   1.478  17.676  0.00  0.00    +0.000 C 
ATOM     28  C   UNL     1       2.476   2.597  18.936  0.00  0.00    +0.000 A 
ENDBRANCH  20  25
ENDBRANCH   1  20
TORSDOF 3
ENDMDL
MODEL 6
REMARK VINA RESULT:      -8.9      6.761      9.606
REMARK  Name = 
REMARK  5 active torsions:
REMARK  status: ('A' for Active; 'I' for Inactive)
REMARK    1  A    between atoms: C_1  and  C_2
REMARK    2  A    between atoms: C_5  and  C_6
REMARK    3  A    between atoms: C_6  and  N_7
REMARK    4  A    between atoms: C_12  and  C_13
REMARK    5  A    between atoms: C_26  and  C_27
REMARK                            x       y       z     vdW  Elec       q    Type
REMARK                         _______ _______ _______ _____ _____    ______ ____
ROOT
ATOM      1  N   UNL     1      -0.288  11.187  20.687  0.00  0.00    +0.000 N 
ATOM      2  C   UNL     1      -0.236  10.286  21.747  0.00  0.00    +0.000 A 
ATOM      3  C   UNL     1       0.449   9.143  21.629  0.00  0.00    +0.000 A 
ATOM      4  N   UNL     1       1.113   8.853  20.447  0.00  0.00    +0.000 N 
ATOM      5  N   UNL     1       1.841   7.756  20.161  0.00  0.00    +0.000 NA
ATOM      6  C   UNL     1       2.219   7.906  18.881  0.00  0.00    +0.000 A 
ATOM      7  C   UNL     1       1.812   9.159  18.374  0.00  0.00    +0.000 A 
ATOM      8  C   UNL     1       1.076   9.721  19.385  0.00  0.00    +0.000 A 
ATOM      9  C   UNL     1       0.347  10.958  19.457  0.00  0.00    +0.000 A 
ATOM     10  O   UNL     1       0.303  11.745  18.517  0.00  0.00    +0.000 OA
ENDROOT
BRANCH   6  11
ATOM     11  C   UNL     1       2.945   6.854  18.180  0.00  0.00    +0.000 A 
ATOM     12  C   UNL     1       2.536   5.503  18.286  0.00  0.00    +0.000 A 
ATOM     13  C   UNL     1       3.217   4.491  17.607  0.00  0.00    +0.000 A 
ATOM     14  C   UNL     1       4.281   4.863  16.818  0.00  0.00    +0.000 A 
ATOM     15  C   UNL     1       4.698   6.172  16.728  0.00  0.00    +0.000 A 
ATOM     16  C   UNL     1       4.066   7.185  17.406  0.00  0.00    +0.000 A 
ATOM     17  O   UNL     1       5.754   6.321  15.883  0.00  0.00    +0.000 OA
ATOM     18  C   UNL     1       5.775   5.013  15.281  0.00  0.00    +0.000 C 
ATOM     19  O   UNL     1       5.020   4.037  16.030  0.00  0.00    +0.000 OA
ENDBRANCH   6  11
BRANCH   1  20
ATOM     20  C   UNL     1      -0.912  12.489  20.878  0.00  0.00    +0.000 C 
BRANCH  20  25
ATOM     21  C   UNL     1      -6.756  12.608  20.586  0.00  0.00    +0.000 C 
ATOM     22  C   UNL     1      -5.261  12.540  20.658  0.00  0.00    +0.000 A 
ATOM     23  C   UNL     1      -4.504  12.312  19.513  0.00  0.00    +0.000 A 
ATOM     24  C   UNL     1      -3.112  12.282  19.590  0.00  0.00    +0.000 A 
ATOM     25  C   UNL     1      -2.433  12.474  20.809  0.00  0.00    +0.000 A 
ATOM     26  C   UNL     1      -3.200  12.657  21.978  0.00  0.00    +0.000 A 
ATOM     27  C   UNL     1      -2.592  12.798  23.348  0.00  0.00    +0.000 C 
ATOM     28  C   UNL     1      -4.605  12.695  21.884  0.00  0.00    +0.000 A 
ENDBRANCH  20  25
ENDBRANCH   1  20
TORSDOF 3
ENDMDL
MODEL 7
REMARK VINA RESULT:      -8.7      7.919     10.704
REMARK  Name = 
REMARK  5 active torsions:
REMARK  status: ('A' for Active; 'I' for Inactive)
REMARK    1  A    between atoms: C_1  and  C_2
REMARK    2  A    between atoms: C_5  and  C_6
REMARK    3  A    between atoms: C_6  and  N_7
REMARK    4  A    between atoms: C_12  and  C_13
REMARK    5  A    between atoms: C_26  and  C_27
REMARK                            x       y       z     vdW  Elec       q    Type
REMARK                         _______ _______ _______ _____ _____    ______ ____
ROOT
ATOM      1  N   UNL     1      -1.093  11.671  21.908  0.00  0.00    +0.000 N 
ATOM      2  C   UNL     1      -0.978  10.865  23.037  0.00  0.00    +0.000 A 
ATOM      3  C   UNL     1      -0.269   9.732  22.989  0.00  0.00    +0.000 A 
ATOM      4  N   UNL     1       0.357   9.357  21.810  0.00  0.00    +0.000 N 
ATOM      5  N   UNL     1       1.102   8.257  21.588  0.00  0.00    +0.000 NA
ATOM      6  C   UNL     1       1.427   8.305  20.286  0.00  0.00    +0.000 A 
ATOM      7  C   UNL     1       0.968   9.501  19.691  0.00  0.00    +0.000 A 
ATOM      8  C   UNL     1       0.258  10.131  20.680  0.00  0.00    +0.000 A 
ATOM      9  C   UNL     1      -0.500  11.352  20.677  0.00  0.00    +0.000 A 
ATOM     10  O   UNL     1      -0.601  12.055  19.676  0.00  0.00    +0.000 OA
ENDROOT
BRANCH   6  11
ATOM     11  C   UNL     1       2.153   7.214  19.648  0.00  0.00    +0.000 A 
ATOM     12  C   UNL     1       2.799   7.410  18.404  0.00  0.00    +0.000 A 
ATOM     13  C   UNL     1       3.508   6.375  17.791  0.00  0.00    +0.000 A 
ATOM     14  C   UNL     1       3.572   5.172  18.456  0.00  0.00    +0.000 A 
ATOM     15  C   UNL     1       2.929   4.968  19.656  0.00  0.00    +0.000 A 
ATOM     16  C   UNL     1       2.199   5.958  20.268  0.00  0.00    +0.000 A 
ATOM     17  O   UNL     1       3.135   3.716  20.147  0.00  0.00    +0.000 OA
ATOM     18  C   UNL     1       4.168   3.267  19.251  0.00  0.00    +0.000 C 
ATOM     19  O   UNL     1       4.269   4.074  18.059  0.00  0.00    +0.000 OA
ENDBRANCH   6  11
BRANCH   1  20
ATOM     20  C   UNL     1      -1.744  12.970  22.014  0.00  0.00    +0.000 C 
BRANCH  20  25
ATOM     21  C   UNL     1      -7.286  12.571  23.852  0.00  0.00    +0.000 C 
ATOM     22  C   UNL     1      -5.868  12.710  23.388  0.00  0.00    +0.000 A 
ATOM     23  C   UNL     1      -4.832  12.868  24.304  0.00  0.00    +0.000 A 
ATOM     24  C   UNL     1      -3.514  12.966  23.860  0.00  0.00    +0.000 A 
ATOM     25  C   UNL     1      -3.188  12.913  22.490  0.00  0.00    +0.000 A 
ATOM     26  C   UNL     1      -4.241  12.801  21.558  0.00  0.00    +0.000 A 
ATOM     27  C   UNL     1      -4.025  12.810  20.068  0.00  0.00    +0.000 C 
ATOM     28  C   UNL     1      -5.566  12.694  22.022  0.00  0.00    +0.000 A 
ENDBRANCH  20  25
ENDBRANCH   1  20
TORSDOF 3
ENDMDL
MODEL 8
REMARK VINA RESULT:      -8.6      7.794     10.589
REMARK  Name = 
REMARK  5 active torsions:
REMARK  status: ('A' for Active; 'I' for Inactive)
REMARK    1  A    between atoms: C_1  and  C_2
REMARK    2  A    between atoms: C_5  and  C_6
REMARK    3  A    between atoms: C_6  and  N_7
REMARK    4  A    between atoms: C_12  and  C_13
REMARK    5  A    between atoms: C_26  and  C_27
REMARK                            x       y       z     vdW  Elec       q    Type
REMARK                         _______ _______ _______ _____ _____    ______ ____
ROOT
ATOM      1  N   UNL     1      -1.118  11.525  21.969  0.00  0.00    +0.000 N 
ATOM      2  C   UNL     1      -1.057  10.639  23.041  0.00  0.00    +0.000 A 
ATOM      3  C   UNL     1      -0.345   9.512  22.947  0.00  0.00    +0.000 A 
ATOM      4  N   UNL     1       0.340   9.222  21.777  0.00  0.00    +0.000 N 
ATOM      5  N   UNL     1       1.098   8.140  21.514  0.00  0.00    +0.000 NA
ATOM      6  C   UNL     1       1.487   8.281  20.236  0.00  0.00    +0.000 A 
ATOM      7  C   UNL     1       1.057   9.518  19.708  0.00  0.00    +0.000 A 
ATOM      8  C   UNL     1       0.296  10.075  20.702  0.00  0.00    +0.000 A 
ATOM      9  C   UNL     1      -0.464  11.295  20.750  0.00  0.00    +0.000 A 
ATOM     10  O   UNL     1      -0.515  12.069  19.799  0.00  0.00    +0.000 OA
ENDROOT
BRANCH   6  11
ATOM     11  C   UNL     1       2.247   7.238  19.558  0.00  0.00    +0.000 A 
ATOM     12  C   UNL     1       2.840   7.484  18.297  0.00  0.00    +0.000 A 
ATOM     13  C   UNL     1       3.581   6.495  17.646  0.00  0.00    +0.000 A 
ATOM     14  C   UNL     1       3.728   5.288  18.290  0.00  0.00    +0.000 A 
ATOM     15  C   UNL     1       3.136   5.035  19.506  0.00  0.00    +0.000 A 
ATOM     16  C   UNL     1       2.377   5.977  20.157  0.00  0.00    +0.000 A 
ATOM     17  O   UNL     1       3.422   3.789  19.972  0.00  0.00    +0.000 OA
ATOM     18  C   UNL     1       4.446   3.406  19.036  0.00  0.00    +0.000 C 
ATOM     19  O   UNL     1       4.467   4.234  17.853  0.00  0.00    +0.000 OA
ENDBRANCH   6  11
BRANCH   1  20
ATOM     20  C   UNL     1      -1.776  12.814  22.136  0.00  0.00    +0.000 C 
BRANCH  20  25
ATOM     21  C   UNL     1      -7.511  12.949  20.977  0.00  0.00    +0.000 C 
ATOM     22  C   UNL     1      -6.042  12.877  21.267  0.00  0.00    +0.000 A 
ATOM     23  C   UNL     1      -5.117  12.777  20.232  0.00  0.00    +0.000 A 
ATOM     24  C   UNL     1      -3.752  12.743  20.514  0.00  0.00    +0.000 A 
ATOM     25  C   UNL     1      -3.268  12.802  21.836  0.00  0.00    +0.000 A 
ATOM     26  C   UNL     1      -4.205  12.856  22.888  0.00  0.00    +0.000 A 
ATOM     27  C   UNL     1      -3.813  12.848  24.342  0.00  0.00    +0.000 C 
ATOM     28  C   UNL     1      -5.581  12.900  22.587  0.00  0.00    +0.000 A 
ENDBRANCH  20  25
ENDBRANCH   1  20
TORSDOF 3
ENDMDL
MODEL 9
REMARK VINA RESULT:      -8.6      5.419      8.312
REMARK  Name = 
REMARK  5 active torsions:
REMARK  status: ('A' for Active; 'I' for Inactive)
REMARK    1  A    between atoms: C_1  and  C_2
REMARK    2  A    between atoms: C_5  and  C_6
REMARK    3  A    between atoms: C_6  and  N_7
REMARK    4  A    between atoms: C_12  and  C_13
REMARK    5  A    between atoms: C_26  and  C_27
REMARK                            x       y       z     vdW  Elec       q    Type
REMARK                         _______ _______ _______ _____ _____    ______ ____
ROOT
ATOM      1  N   UNL     1       3.707   5.707  18.206  0.00  0.00    +0.000 N 
ATOM      2  C   UNL     1       3.673   6.758  17.293  0.00  0.00    +0.000 A 
ATOM      3  C   UNL     1       3.020   7.887  17.587  0.00  0.00    +0.000 A 
ATOM      4  N   UNL     1       2.373   8.014  18.807  0.00  0.00    +0.000 N 
ATOM      5  N   UNL     1       1.673   9.073  19.260  0.00  0.00    +0.000 NA
ATOM      6  C   UNL     1       1.188   8.692  20.453  0.00  0.00    +0.000 A 
ATOM      7  C   UNL     1       1.666   7.413  20.812  0.00  0.00    +0.000 A 
ATOM      8  C   UNL     1       2.387   6.994  19.725  0.00  0.00    +0.000 A 
ATOM      9  C   UNL     1       3.066   5.756  19.453  0.00  0.00    +0.000 A 
ATOM     10  O   UNL     1       3.088   4.833  20.261  0.00  0.00    +0.000 OA
ENDROOT
BRANCH   6  11
ATOM     11  C   UNL     1       0.282   9.550  21.208  0.00  0.00    +0.000 A 
ATOM     12  C   UNL     1       0.046   9.313  22.583  0.00  0.00    +0.000 A 
ATOM     13  C   UNL     1      -0.810  10.137  23.318  0.00  0.00    +0.000 A 
ATOM     14  C   UNL     1      -1.390  11.195  22.657  0.00  0.00    +0.000 A 
ATOM     15  C   UNL     1      -1.181  11.419  21.315  0.00  0.00    +0.000 A 
ATOM     16  C   UNL     1      -0.369  10.609  20.560  0.00  0.00    +0.000 A 
ATOM     17  O   UNL     1      -1.835  12.525  20.867  0.00  0.00    +0.000 OA
ATOM     18  C   UNL     1      -2.256  13.088  22.123  0.00  0.00    +0.000 C 
ATOM     19  O   UNL     1      -2.190  12.144  23.214  0.00  0.00    +0.000 OA
ENDBRANCH   6  11
BRANCH   1  20
ATOM     20  C   UNL     1       4.541   4.544  17.935  0.00  0.00    +0.000 C 
BRANCH  20  25
ATOM     21  C   UNL     1       7.659   4.702  12.984  0.00  0.00    +0.000 C 
ATOM     22  C   UNL     1       6.843   4.694  14.241  0.00  0.00    +0.000 A 
ATOM     23  C   UNL     1       5.512   4.288  14.222  0.00  0.00    +0.000 A 
ATOM     24  C   UNL     1       4.773   4.255  15.404  0.00  0.00    +0.000 A 
ATOM     25  C   UNL     1       5.337   4.629  16.640  0.00  0.00    +0.000 A 
ATOM     26  C   UNL     1       6.671   5.085  16.653  0.00  0.00    +0.000 A 
ATOM     27  C   UNL     1       7.359   5.581  17.898  0.00  0.00    +0.000 C 
ATOM     28  C   UNL     1       7.408   5.103  15.453  0.00  0.00    +0.000 A 
ENDBRANCH  20  25
ENDBRANCH   1  20
TORSDOF 3
ENDMDL
