MODEL 1
REMARK VINA RESULT:      -5.7      0.000      0.000
REMARK  Name = 
REMARK  27 active torsions:
REMARK  status: ('A' for Active; 'I' for Inactive)
REMARK    1  A    between atoms: C_1  and  C_2
REMARK    2  A    between atoms: C_2  and  C_3
REMARK    3  A    between atoms: C_2  and  C_4
REMARK    4  A    between atoms: C_4  and  C_5
REMARK    5  A    between atoms: C_5  and  C_6
REMARK    6  A    between atoms: C_6  and  C_7
REMARK    7  A    between atoms: C_7  and  C_8
REMARK    8  A    between atoms: C_8  and  C_9
REMARK    9  A    between atoms: C_9  and  C_10
REMARK   10  A    between atoms: C_10  and  C_11
REMARK   11  A    between atoms: C_11  and  C_12
REMARK   12  A    between atoms: C_12  and  C_13
REMARK   13  A    between atoms: C_13  and  C_14
REMARK   14  A    between atoms: C_13  and  C_15
REMARK   15  A    between atoms: C_15  and  O_17
REMARK   16  A    between atoms: O_17  and  C_18
REMARK   17  A    between atoms: C_18  and  C_19
REMARK   18  A    between atoms: C_19  and  O_20
REMARK   19  A    between atoms: C_19  and  C_21
REMARK   20  A    between atoms: C_21  and  O_22
REMARK   21  A    between atoms: O_22  and  P_23
REMARK   22  A    between atoms: P_23  and  C_26
REMARK   23  A    between atoms: C_26  and  C_27
REMARK   24  A    between atoms: C_27  and  N_28
REMARK   25  A    between atoms: N_28  and  C_29
REMARK   26  A    between atoms: N_28  and  C_30
REMARK   27  A    between atoms: N_28  and  C_31
REMARK                            x       y       z     vdW  Elec       q    Type
REMARK                         _______ _______ _______ _____ _____    ______ ____
ROOT
ATOM      1  C   UNL     1       2.756   7.367  18.205  0.00  0.00    +0.000 C 
ATOM      2  O   UNL     1       3.691   7.656  17.474  0.00  0.00    +0.000 OA
ENDROOT
BRANCH   1   3
ATOM      3  C   UNL     1       2.457   5.981  18.730  0.00  0.00    +0.000 C 
ATOM      4  C   UNL     1       1.458   5.318  17.781  0.00  0.00    +0.000 C 
BRANCH   3   5
ATOM      5  C   UNL     1       1.937   6.082  20.168  0.00  0.00    +0.000 C 
BRANCH   5   6
ATOM      6  C   UNL     1       2.372   4.910  21.033  0.00  0.00    +0.000 C 
BRANCH   6   7
ATOM      7  C   UNL     1       1.423   3.732  20.855  0.00  0.00    +0.000 C 
BRANCH   7   8
ATOM      8  C   UNL     1       2.213   2.437  20.720  0.00  0.00    +0.000 C 
BRANCH   8   9
ATOM      9  C   UNL     1       3.331   2.598  19.705  0.00  0.00    +0.000 C 
BRANCH   9  10
ATOM     10  C   UNL     1       2.869   2.125  18.335  0.00  0.00    +0.000 C 
BRANCH  10  11
ATOM     11  C   UNL     1       3.915   2.435  17.273  0.00  0.00    +0.000 C 
BRANCH  11  12
ATOM     12  C   UNL     1       4.742   3.642  17.697  0.00  0.00    +0.000 C 
BRANCH  12  13
ATOM     13  C   UNL     1       4.805   4.689  16.588  0.00  0.00    +0.000 C 
BRANCH  13  15
ATOM     14  C   UNL     1       7.263   4.510  17.035  0.00  0.00    +0.000 C 
ATOM     15  C   UNL     1       6.209   4.825  15.974  0.00  0.00    +0.000 C 
ATOM     16  C   UNL     1       6.407   3.915  14.760  0.00  0.00    +0.000 C 
ENDBRANCH  13  15
ENDBRANCH  12  13
ENDBRANCH  11  12
ENDBRANCH  10  11
ENDBRANCH   9  10
ENDBRANCH   8   9
ENDBRANCH   7   8
ENDBRANCH   6   7
ENDBRANCH   5   6
ENDBRANCH   3   5
ENDBRANCH   1   3
BRANCH   1  17
ATOM     17  O   UNL     1       1.907   8.260  18.782  0.00  0.00    +0.000 OA
BRANCH  17  18
ATOM     18  C   UNL     1       1.784   9.515  18.108  0.00  0.00    +0.000 C 
BRANCH  18  19
ATOM     19  C   UNL     1       0.795  10.442  18.812  0.00  0.00    +0.000 C 
BRANCH  19  20
ATOM     20  O   UNL     1      -0.214  10.867  17.888  0.00  0.00    +0.000 OA
ATOM     21  H   UNL     1      -0.732  11.551  18.349  0.00  0.00    +0.000 HD
ENDBRANCH  19  20
BRANCH  19  22
ATOM     22  C   UNL     1       0.184   9.725  20.031  0.00  0.00    +0.000 C 
BRANCH  22  23
ATOM     23  O   UNL     1       0.662  10.268  21.267  0.00  0.00    +0.000 OA
BRANCH  23  24
ATOM     24  P   UNL     1      -0.579  11.000  22.224  0.00  0.00    +0.000 P 
ATOM     25  O   UNL     1      -0.223  10.214  23.495  0.00  0.00    +0.000 OA
ATOM     26  O   UNL     1      -0.024  12.417  22.006  0.00  0.00    +0.000 OA
BRANCH  24  27
ATOM     27  C   UNL     1      -1.893  11.775  23.235  0.00  0.00    +0.000 C 
BRANCH  27  28
ATOM     28  C   UNL     1      -2.911  12.515  22.373  0.00  0.00    +0.000 C 
BRANCH  28  29
ATOM     29  N   UNL     1      -4.038  13.215  23.231  0.00  0.00    +0.000 N 
ATOM     30  C   UNL     1      -5.362  13.002  22.543  0.00  0.00    +0.000 C 
ATOM     31  C   UNL     1      -4.016  12.619  24.614  0.00  0.00    +0.000 C 
ATOM     32  C   UNL     1      -3.706  14.693  23.283  0.00  0.00    +0.000 C 
ENDBRANCH  28  29
ENDBRANCH  27  28
ENDBRANCH  24  27
ENDBRANCH  23  24
ENDBRANCH  22  23
ENDBRANCH  19  22
ENDBRANCH  18  19
ENDBRANCH  17  18
ENDBRANCH   1  17
TORSDOF 21
ENDMDL
MODEL 2
REMARK VINA RESULT:      -5.7      1.928      4.036
REMARK  Name = 
REMARK  27 active torsions:
REMARK  status: ('A' for Active; 'I' for Inactive)
REMARK    1  A    between atoms: C_1  and  C_2
REMARK    2  A    between atoms: C_2  and  C_3
REMARK    3  A    between atoms: C_2  and  C_4
REMARK    4  A    between atoms: C_4  and  C_5
REMARK    5  A    between atoms: C_5  and  C_6
REMARK    6  A    between atoms: C_6  and  C_7
REMARK    7  A    between atoms: C_7  and  C_8
REMARK    8  A    between atoms: C_8  and  C_9
REMARK    9  A    between atoms: C_9  and  C_10
REMARK   10  A    between atoms: C_10  and  C_11
REMARK   11  A    between atoms: C_11  and  C_12
REMARK   12  A    between atoms: C_12  and  C_13
REMARK   13  A    between atoms: C_13  and  C_14
REMARK   14  A    between atoms: C_13  and  C_15
REMARK   15  A    between atoms: C_15  and  O_17
REMARK   16  A    between atoms: O_17  and  C_18
REMARK   17  A    between atoms: C_18  and  C_19
REMARK   18  A    between atoms: C_19  and  O_20
REMARK   19  A    between atoms: C_19  and  C_21
REMARK   20  A    between atoms: C_21  and  O_22
REMARK   21  A    between atoms: O_22  and  P_23
REMARK   22  A    between atoms: P_23  and  C_26
REMARK   23  A    between atoms: C_26  and  C_27
REMARK   24  A    between atoms: C_27  and  N_28
REMARK   25  A    between atoms: N_28  and  C_29
REMARK   26  A    between atoms: N_28  and  C_30
REMARK   27  A    between atoms: N_28  and  C_31
REMARK                            x       y       z     vdW  Elec       q    Type
REMARK                         _______ _______ _______ _____ _____    ______ ____
ROOT
ATOM      1  C   UNL     1       1.394   8.623  20.278  0.00  0.00    +0.000 C 
ATOM      2  O   UNL     1       1.432   7.604  20.950  0.00  0.00    +0.000 OA
ENDROOT
BRANCH   1   3
ATOM      3  C   UNL     1       1.896   8.748  18.857  0.00  0.00    +0.000 C 
ATOM      4  C   UNL     1       0.896   9.599  18.072  0.00  0.00    +0.000 C 
BRANCH   3   5
ATOM      5  C   UNL     1       2.087   7.349  18.259  0.00  0.00    +0.000 C 
BRANCH   5   6
ATOM      6  C   UNL     1       3.549   6.941  18.176  0.00  0.00    +0.000 C 
BRANCH   6   7
ATOM      7  C   UNL     1       3.844   5.809  19.150  0.00  0.00    +0.000 C 
BRANCH   7   8
ATOM      8  C   UNL     1       5.154   5.126  18.781  0.00  0.00    +0.000 C 
BRANCH   8   9
ATOM      9  C   UNL     1       4.936   4.130  17.653  0.00  0.00    +0.000 C 
BRANCH   9  10
ATOM     10  C   UNL     1       3.909   3.087  18.066  0.00  0.00    +0.000 C 
BRANCH  10  11
ATOM     11  C   UNL     1       2.655   3.192  17.209  0.00  0.00    +0.000 C 
BRANCH  11  12
ATOM     12  C   UNL     1       1.418   3.199  18.099  0.00  0.00    +0.000 C 
BRANCH  12  13
ATOM     13  C   UNL     1       1.564   2.219  19.260  0.00  0.00    +0.000 C 
BRANCH  13  15
ATOM     14  C   UNL     1       2.433   2.666  21.567  0.00  0.00    +0.000 C 
ATOM     15  C   UNL     1       1.246   2.857  20.623  0.00  0.00    +0.000 C 
ATOM     16  C   UNL     1       0.908   4.345  20.508  0.00  0.00    +0.000 C 
ENDBRANCH  13  15
ENDBRANCH  12  13
ENDBRANCH  11  12
ENDBRANCH  10  11
ENDBRANCH   9  10
ENDBRANCH   8   9
ENDBRANCH   7   8
ENDBRANCH   6   7
ENDBRANCH   5   6
ENDBRANCH   3   5
ENDBRANCH   1   3
BRANCH   1  17
ATOM     17  O   UNL     1       0.775   9.779  20.640  0.00  0.00    +0.000 OA
BRANCH  17  18
ATOM     18  C   UNL     1      -0.526   9.626  21.212  0.00  0.00    +0.000 C 
BRANCH  18  19
ATOM     19  C   UNL     1      -0.533   9.955  22.704  0.00  0.00    +0.000 C 
BRANCH  19  20
ATOM     20  O   UNL     1       0.795   9.852  23.229  0.00  0.00    +0.000 OA
ATOM     21  H   UNL     1       1.366   9.608  22.479  0.00  0.00    +0.000 HD
ENDBRANCH  19  20
BRANCH  19  22
ATOM     22  C   UNL     1      -1.124  11.360  22.925  0.00  0.00    +0.000 C 
BRANCH  22  23
ATOM     23  O   UNL     1      -1.409  12.022  21.688  0.00  0.00    +0.000 OA
BRANCH  23  24
ATOM     24  P   UNL     1      -2.997  12.705  21.622  0.00  0.00    +0.000 P 
ATOM     25  O   UNL     1      -3.439  12.099  22.963  0.00  0.00    +0.000 OA
ATOM     26  O   UNL     1      -2.464  14.145  21.559  0.00  0.00    +0.000 OA
BRANCH  24  27
ATOM     27  C   UNL     1      -4.677  13.427  21.552  0.00  0.00    +0.000 C 
BRANCH  27  28
ATOM     28  C   UNL     1      -5.302  13.546  22.939  0.00  0.00    +0.000 C 
BRANCH  28  29
ATOM     29  N   UNL     1      -5.810  15.009  23.252  0.00  0.00    +0.000 N 
ATOM     30  C   UNL     1      -4.792  15.691  24.129  0.00  0.00    +0.000 C 
ATOM     31  C   UNL     1      -6.005  15.730  21.944  0.00  0.00    +0.000 C 
ATOM     32  C   UNL     1      -7.129  14.875  23.987  0.00  0.00    +0.000 C 
ENDBRANCH  28  29
ENDBRANCH  27  28
ENDBRANCH  24  27
ENDBRANCH  23  24
ENDBRANCH  22  23
ENDBRANCH  19  22
ENDBRANCH  18  19
ENDBRANCH  17  18
ENDBRANCH   1  17
TORSDOF 21
ENDMDL
MODEL 3
REMARK VINA RESULT:      -5.6      1.838      3.481
REMARK  Name = 
REMARK  27 active torsions:
REMARK  status: ('A' for Active; 'I' for Inactive)
REMARK    1  A    between atoms: C_1  and  C_2
REMARK    2  A    between atoms: C_2  and  C_3
REMARK    3  A    between atoms: C_2  and  C_4
REMARK    4  A    between atoms: C_4  and  C_5
REMARK    5  A    between atoms: C_5  and  C_6
REMARK    6  A    between atoms: C_6  and  C_7
REMARK    7  A    between atoms: C_7  and  C_8
REMARK    8  A    between atoms: C_8  and  C_9
REMARK    9  A    between atoms: C_9  and  C_10
REMARK   10  A    between atoms: C_10  and  C_11
REMARK   11  A    between atoms: C_11  and  C_12
REMARK   12  A    between atoms: C_12  and  C_13
REMARK   13  A    between atoms: C_13  and  C_14
REMARK   14  A    between atoms: C_13  and  C_15
REMARK   15  A    between atoms: C_15  and  O_17
REMARK   16  A    between atoms: O_17  and  C_18
REMARK   17  A    between atoms: C_18  and  C_19
REMARK   18  A    between atoms: C_19  and  O_20
REMARK   19  A    between atoms: C_19  and  C_21
REMARK   20  A    between atoms: C_21  and  O_22
REMARK   21  A    between atoms: O_22  and  P_23
REMARK   22  A    between atoms: P_23  and  C_26
REMARK   23  A    between atoms: C_26  and  C_27
REMARK   24  A    between atoms: C_27  and  N_28
REMARK   25  A    between atoms: N_28  and  C_29
REMARK   26  A    between atoms: N_28  and  C_30
REMARK   27  A    between atoms: N_28  and  C_31
REMARK                            x       y       z     vdW  Elec       q    Type
REMARK                         _______ _______ _______ _____ _____    ______ ____
ROOT
ATOM      1  C   UNL     1       2.633   5.575  19.536  0.00  0.00    +0.000 C 
ATOM      2  O   UNL     1       1.985   4.989  20.389  0.00  0.00    +0.000 OA
ENDROOT
BRANCH   1   3
ATOM      3  C   UNL     1       2.911   5.054  18.144  0.00  0.00    +0.000 C 
ATOM      4  C   UNL     1       1.599   4.525  17.562  0.00  0.00    +0.000 C 
BRANCH   3   5
ATOM      5  C   UNL     1       4.008   3.984  18.210  0.00  0.00    +0.000 C 
BRANCH   5   6
ATOM      6  C   UNL     1       5.032   4.260  19.300  0.00  0.00    +0.000 C 
BRANCH   6   7
ATOM      7  C   UNL     1       6.216   5.034  18.737  0.00  0.00    +0.000 C 
BRANCH   7   8
ATOM      8  C   UNL     1       6.441   4.661  17.278  0.00  0.00    +0.000 C 
BRANCH   8   9
ATOM      9  C   UNL     1       6.293   5.883  16.387  0.00  0.00    +0.000 C 
BRANCH   9  10
ATOM     10  C   UNL     1       5.452   5.545  15.166  0.00  0.00    +0.000 C 
BRANCH  10  11
ATOM     11  C   UNL     1       5.669   4.099  14.742  0.00  0.00    +0.000 C 
BRANCH  11  12
ATOM     12  C   UNL     1       6.711   4.036  13.632  0.00  0.00    +0.000 C 
BRANCH  12  13
ATOM     13  C   UNL     1       6.055   4.070  12.254  0.00  0.00    +0.000 C 
BRANCH  13  15
ATOM     14  C   UNL     1       4.005   3.269  11.058  0.00  0.00    +0.000 C 
ATOM     15  C   UNL     1       5.142   2.861  11.996  0.00  0.00    +0.000 C 
ATOM     16  C   UNL     1       5.899   1.670  11.406  0.00  0.00    +0.000 C 
ENDBRANCH  13  15
ENDBRANCH  12  13
ENDBRANCH  11  12
ENDBRANCH  10  11
ENDBRANCH   9  10
ENDBRANCH   8   9
ENDBRANCH   7   8
ENDBRANCH   6   7
ENDBRANCH   5   6
ENDBRANCH   3   5
ENDBRANCH   1   3
BRANCH   1  17
ATOM     17  O   UNL     1       3.097   6.850  19.641  0.00  0.00    +0.000 OA
BRANCH  17  18
ATOM     18  C   UNL     1       2.224   7.865  19.140  0.00  0.00    +0.000 C 
BRANCH  18  19
ATOM     19  C   UNL     1       1.263   8.368  20.216  0.00  0.00    +0.000 C 
BRANCH  19  20
ATOM     20  O   UNL     1       1.944   8.452  21.474  0.00  0.00    +0.000 OA
ATOM     21  H   UNL     1       2.123   9.398  21.623  0.00  0.00    +0.000 HD
ENDBRANCH  19  20
BRANCH  19  22
ATOM     22  C   UNL     1       0.677   9.729  19.797  0.00  0.00    +0.000 C 
BRANCH  22  23
ATOM     23  O   UNL     1       1.159  10.797  20.620  0.00  0.00    +0.000 OA
BRANCH  23  24
ATOM     24  P   UNL     1      -0.083  11.573  21.540  0.00  0.00    +0.000 P 
ATOM     25  O   UNL     1      -0.082  10.513  22.652  0.00  0.00    +0.000 OA
ATOM     26  O   UNL     1       0.731  12.867  21.701  0.00  0.00    +0.000 OA
BRANCH  24  27
ATOM     27  C   UNL     1      -1.398  12.394  22.513  0.00  0.00    +0.000 C 
BRANCH  27  28
ATOM     28  C   UNL     1      -2.685  12.552  21.708  0.00  0.00    +0.000 C 
BRANCH  28  29
ATOM     29  N   UNL     1      -3.871  13.140  22.569  0.00  0.00    +0.000 N 
ATOM     30  C   UNL     1      -3.759  12.597  23.971  0.00  0.00    +0.000 C 
ATOM     31  C   UNL     1      -3.777  14.643  22.536  0.00  0.00    +0.000 C 
ATOM     32  C   UNL     1      -5.162  12.674  21.928  0.00  0.00    +0.000 C 
ENDBRANCH  28  29
ENDBRANCH  27  28
ENDBRANCH  24  27
ENDBRANCH  23  24
ENDBRANCH  22  23
ENDBRANCH  19  22
ENDBRANCH  18  19
ENDBRANCH  17  18
ENDBRANCH   1  17
TORSDOF 21
ENDMDL
MODEL 4
REMARK VINA RESULT:      -5.6      6.185      8.675
REMARK  Name = 
REMARK  27 active torsions:
REMARK  status: ('A' for Active; 'I' for Inactive)
REMARK    1  A    between atoms: C_1  and  C_2
REMARK    2  A    between atoms: C_2  and  C_3
REMARK    3  A    between atoms: C_2  and  C_4
REMARK    4  A    between atoms: C_4  and  C_5
REMARK    5  A    between atoms: C_5  and  C_6
REMARK    6  A    between atoms: C_6  and  C_7
REMARK    7  A    between atoms: C_7  and  C_8
REMARK    8  A    between atoms: C_8  and  C_9
REMARK    9  A    between atoms: C_9  and  C_10
REMARK   10  A    between atoms: C_10  and  C_11
REMARK   11  A    between atoms: C_11  and  C_12
REMARK   12  A    between atoms: C_12  and  C_13
REMARK   13  A    between atoms: C_13  and  C_14
REMARK   14  A    between atoms: C_13  and  C_15
REMARK   15  A    between atoms: C_15  and  O_17
REMARK   16  A    between atoms: O_17  and  C_18
REMARK   17  A    between atoms: C_18  and  C_19
REMARK   18  A    between atoms: C_19  and  O_20
REMARK   19  A    between atoms: C_19  and  C_21
REMARK   20  A    between atoms: C_21  and  O_22
REMARK   21  A    between atoms: O_22  and  P_23
REMARK   22  A    between atoms: P_23  and  C_26
REMARK   23  A    between atoms: C_26  and  C_27
REMARK   24  A    between atoms: C_27  and  N_28
REMARK   25  A    between atoms: N_28  and  C_29
REMARK   26  A    between atoms: N_28  and  C_30
REMARK   27  A    between atoms: N_28  and  C_31
REMARK                            x       y       z     vdW  Elec       q    Type
REMARK                         _______ _______ _______ _____ _____    ______ ____
ROOT
ATOM      1  C   UNL     1       6.819   5.229  17.909  0.00  0.00    +0.000 C 
ATOM      2  O   UNL     1       6.794   4.803  19.054  0.00  0.00    +0.000 OA
ENDROOT
BRANCH   1   3
ATOM      3  C   UNL     1       5.788   4.928  16.846  0.00  0.00    +0.000 C 
ATOM      4  C   UNL     1       6.418   3.975  15.828  0.00  0.00    +0.000 C 
BRANCH   3   5
ATOM      5  C   UNL     1       5.307   6.240  16.215  0.00  0.00    +0.000 C 
BRANCH   5   6
ATOM      6  C   UNL     1       4.182   6.892  17.003  0.00  0.00    +0.000 C 
BRANCH   6   7
ATOM      7  C   UNL     1       3.325   5.834  17.685  0.00  0.00    +0.000 C 
BRANCH   7   8
ATOM      8  C   UNL     1       2.575   6.445  18.862  0.00  0.00    +0.000 C 
BRANCH   8   9
ATOM      9  C   UNL     1       2.704   5.562  20.092  0.00  0.00    +0.000 C 
BRANCH   9  10
ATOM     10  C   UNL     1       1.338   5.330  20.717  0.00  0.00    +0.000 C 
BRANCH  10  11
ATOM     11  C   UNL     1       1.075   3.843  20.911  0.00  0.00    +0.000 C 
BRANCH  11  12
ATOM     12  C   UNL     1       0.999   3.150  19.555  0.00  0.00    +0.000 C 
BRANCH  12  13
ATOM     13  C   UNL     1       2.023   2.023  19.450  0.00  0.00    +0.000 C 
BRANCH  13  15
ATOM     14  C   UNL     1       4.493   2.132  19.852  0.00  0.00    +0.000 C 
ATOM     15  C   UNL     1       3.371   2.492  18.878  0.00  0.00    +0.000 C 
ATOM     16  C   UNL     1       3.665   1.889  17.503  0.00  0.00    +0.000 C 
ENDBRANCH  13  15
ENDBRANCH  12  13
ENDBRANCH  11  12
ENDBRANCH  10  11
ENDBRANCH   9  10
ENDBRANCH   8   9
ENDBRANCH   7   8
ENDBRANCH   6   7
ENDBRANCH   5   6
ENDBRANCH   3   5
ENDBRANCH   1   3
BRANCH   1  17
ATOM     17  O   UNL     1       7.698   6.153  17.436  0.00  0.00    +0.000 OA
BRANCH  17  18
ATOM     18  C   UNL     1       8.082   7.170  18.365  0.00  0.00    +0.000 C 
BRANCH  18  19
ATOM     19  C   UNL     1       8.203   8.536  17.693  0.00  0.00    +0.000 C 
BRANCH  19  20
ATOM     20  O   UNL     1       6.919   8.961  17.222  0.00  0.00    +0.000 OA
ATOM     21  H   UNL     1       7.019   9.896  16.968  0.00  0.00    +0.000 HD
ENDBRANCH  19  20
BRANCH  19  22
ATOM     22  C   UNL     1       8.809   9.551  18.681  0.00  0.00    +0.000 C 
BRANCH  22  23
ATOM     23  O   UNL     1       9.604  10.538  18.014  0.00  0.00    +0.000 OA
BRANCH  23  24
ATOM     24  P   UNL     1       9.425  12.127  18.674  0.00  0.00    +0.000 P 
ATOM     25  O   UNL     1      10.365  11.865  19.861  0.00  0.00    +0.000 OA
ATOM     26  O   UNL     1       9.955  12.804  17.400  0.00  0.00    +0.000 OA
BRANCH  24  27
ATOM     27  C   UNL     1       9.236  13.808  19.372  0.00  0.00    +0.000 C 
BRANCH  27  28
ATOM     28  C   UNL     1       8.893  14.834  18.296  0.00  0.00    +0.000 C 
BRANCH  28  29
ATOM     29  N   UNL     1       9.797  16.127  18.380  0.00  0.00    +0.000 N 
ATOM     30  C   UNL     1      10.845  15.909  19.441  0.00  0.00    +0.000 C 
ATOM     31  C   UNL     1      10.406  16.364  17.023  0.00  0.00    +0.000 C 
ATOM     32  C   UNL     1       8.892  17.279  18.766  0.00  0.00    +0.000 C 
ENDBRANCH  28  29
ENDBRANCH  27  28
ENDBRANCH  24  27
ENDBRANCH  23  24
ENDBRANCH  22  23
ENDBRANCH  19  22
ENDBRANCH  18  19
ENDBRANCH  17  18
ENDBRANCH   1  17
TORSDOF 21
ENDMDL
MODEL 5
REMARK VINA RESULT:      -5.5      5.366      8.330
REMARK  Name = 
REMARK  27 active torsions:
REMARK  status: ('A' for Active; 'I' for Inactive)
REMARK    1  A    between atoms: C_1  and  C_2
REMARK    2  A    between atoms: C_2  and  C_3
REMARK    3  A    between atoms: C_2  and  C_4
REMARK    4  A    between atoms: C_4  and  C_5
REMARK    5  A    between atoms: C_5  and  C_6
REMARK    6  A    between atoms: C_6  and  C_7
REMARK    7  A    between atoms: C_7  and  C_8
REMARK    8  A    between atoms: C_8  and  C_9
REMARK    9  A    between atoms: C_9  and  C_10
REMARK   10  A    between atoms: C_10  and  C_11
REMARK   11  A    between atoms: C_11  and  C_12
REMARK   12  A    between atoms: C_12  and  C_13
REMARK   13  A    between atoms: C_13  and  C_14
REMARK   14  A    between atoms: C_13  and  C_15
REMARK   15  A    between atoms: C_15  and  O_17
REMARK   16  A    between atoms: O_17  and  C_18
REMARK   17  A    between atoms: C_18  and  C_19
REMARK   18  A    between atoms: C_19  and  O_20
REMARK   19  A    between atoms: C_19  and  C_21
REMARK   20  A    between atoms: C_21  and  O_22
REMARK   21  A    between atoms: O_22  and  P_23
REMARK   22  A    between atoms: P_23  and  C_26
REMARK   23  A    between atoms: C_26  and  C_27
REMARK   24  A    between atoms: C_27  and  N_28
REMARK   25  A    between atoms: N_28  and  C_29
REMARK   26  A    between atoms: N_28  and  C_30
REMARK   27  A    between atoms: N_28  and  C_31
REMARK                            x       y       z     vdW  Elec       q    Type
REMARK                         _______ _______ _______ _____ _____    ______ ____
ROOT
ATOM      1  C   UNL     1       6.666   5.647  19.063  0.00  0.00    +0.000 C 
ATOM      2  O   UNL     1       7.593   5.162  19.693  0.00  0.00    +0.000 OA
ENDROOT
BRANCH   1   3
ATOM      3  C   UNL     1       6.793   6.744  18.032  0.00  0.00    +0.000 C 
ATOM      4  C   UNL     1       6.600   6.122  16.648  0.00  0.00    +0.000 C 
BRANCH   3   5
ATOM      5  C   UNL     1       8.152   7.437  18.189  0.00  0.00    +0.000 C 
BRANCH   5   6
ATOM      6  C   UNL     1       8.099   8.917  17.847  0.00  0.00    +0.000 C 
BRANCH   6   7
ATOM      7  C   UNL     1       8.842   9.735  18.895  0.00  0.00    +0.000 C 
BRANCH   7   8
ATOM      8  C   UNL     1       9.347  11.036  18.285  0.00  0.00    +0.000 C 
BRANCH   8   9
ATOM      9  C   UNL     1      10.733  11.368  18.812  0.00  0.00    +0.000 C 
BRANCH   9  10
ATOM     10  C   UNL     1      10.630  12.053  20.166  0.00  0.00    +0.000 C 
BRANCH  10  11
ATOM     11  C   UNL     1       9.662  13.228  20.106  0.00  0.00    +0.000 C 
BRANCH  11  12
ATOM     12  C   UNL     1       8.792  13.245  21.357  0.00  0.00    +0.000 C 
BRANCH  12  13
ATOM     13  C   UNL     1       8.983  11.976  22.184  0.00  0.00    +0.000 C 
BRANCH  13  15
ATOM     14  C   UNL     1       8.475  12.080  24.635  0.00  0.00    +0.000 C 
ATOM     15  C   UNL     1       7.892  11.789  23.251  0.00  0.00    +0.000 C 
ATOM     16  C   UNL     1       6.673  12.679  23.004  0.00  0.00    +0.000 C 
ENDBRANCH  13  15
ENDBRANCH  12  13
ENDBRANCH  11  12
ENDBRANCH  10  11
ENDBRANCH   9  10
ENDBRANCH   8   9
ENDBRANCH   7   8
ENDBRANCH   6   7
ENDBRANCH   5   6
ENDBRANCH   3   5
ENDBRANCH   1   3
BRANCH   1  17
ATOM     17  O   UNL     1       5.383   5.192  19.082  0.00  0.00    +0.000 OA
BRANCH  17  18
ATOM     18  C   UNL     1       5.227   3.786  18.881  0.00  0.00    +0.000 C 
BRANCH  18  19
ATOM     19  C   UNL     1       3.814   3.431  18.423  0.00  0.00    +0.000 C 
BRANCH  19  20
ATOM     20  O   UNL     1       3.438   2.154  18.950  0.00  0.00    +0.000 OA
ATOM     21  H   UNL     1       3.586   1.511  18.234  0.00  0.00    +0.000 HD
ENDBRANCH  19  20
BRANCH  19  22
ATOM     22  C   UNL     1       2.832   4.536  18.859  0.00  0.00    +0.000 C 
BRANCH  22  23
ATOM     23  O   UNL     1       2.657   5.528  17.841  0.00  0.00    +0.000 OA
BRANCH  23  24
ATOM     24  P   UNL     1       2.249   7.090  18.465  0.00  0.00    +0.000 P 
ATOM     25  O   UNL     1       2.507   6.699  19.928  0.00  0.00    +0.000 OA
ATOM     26  O   UNL     1       3.344   7.792  17.645  0.00  0.00    +0.000 OA
BRANCH  24  27
ATOM     27  C   UNL     1       1.818   8.741  19.124  0.00  0.00    +0.000 C 
BRANCH  27  28
ATOM     28  C   UNL     1       1.089   9.593  18.089  0.00  0.00    +0.000 C 
BRANCH  28  29
ATOM     29  N   UNL     1      -0.082  10.444  18.720  0.00  0.00    +0.000 N 
ATOM     30  C   UNL     1      -0.380   9.903  20.095  0.00  0.00    +0.000 C 
ATOM     31  C   UNL     1       0.352  11.886  18.761  0.00  0.00    +0.000 C 
ATOM     32  C   UNL     1      -1.290  10.278  17.819  0.00  0.00    +0.000 C 
ENDBRANCH  28  29
ENDBRANCH  27  28
ENDBRANCH  24  27
ENDBRANCH  23  24
ENDBRANCH  22  23
ENDBRANCH  19  22
ENDBRANCH  18  19
ENDBRANCH  17  18
ENDBRANCH   1  17
TORSDOF 21
ENDMDL
MODEL 6
REMARK VINA RESULT:      -5.4      1.768      3.298
REMARK  Name = 
REMARK  27 active torsions:
REMARK  status: ('A' for Active; 'I' for Inactive)
REMARK    1  A    between atoms: C_1  and  C_2
REMARK    2  A    between atoms: C_2  and  C_3
REMARK    3  A    between atoms: C_2  and  C_4
REMARK    4  A    between atoms: C_4  and  C_5
REMARK    5  A    between atoms: C_5  and  C_6
REMARK    6  A    between atoms: C_6  and  C_7
REMARK    7  A    between atoms: C_7  and  C_8
REMARK    8  A    between atoms: C_8  and  C_9
REMARK    9  A    between atoms: C_9  and  C_10
REMARK   10  A    between atoms: C_10  and  C_11
REMARK   11  A    between atoms: C_11  and  C_12
REMARK   12  A    between atoms: C_12  and  C_13
REMARK   13  A    between atoms: C_13  and  C_14
REMARK   14  A    between atoms: C_13  and  C_15
REMARK   15  A    between atoms: C_15  and  O_17
REMARK   16  A    between atoms: O_17  and  C_18
REMARK   17  A    between atoms: C_18  and  C_19
REMARK   18  A    between atoms: C_19  and  O_20
REMARK   19  A    between atoms: C_19  and  C_21
REMARK   20  A    between atoms: C_21  and  O_22
REMARK   21  A    between atoms: O_22  and  P_23
REMARK   22  A    between atoms: P_23  and  C_26
REMARK   23  A    between atoms: C_26  and  C_27
REMARK   24  A    between atoms: C_27  and  N_28
REMARK   25  A    between atoms: N_28  and  C_29
REMARK   26  A    between atoms: N_28  and  C_30
REMARK   27  A    between atoms: N_28  and  C_31
REMARK                            x       y       z     vdW  Elec       q    Type
REMARK                         _______ _______ _______ _____ _____    ______ ____
ROOT
ATOM      1  C   UNL     1       1.246   4.134  19.201  0.00  0.00    +0.000 C 
ATOM      2  O   UNL     1       1.117   4.295  17.997  0.00  0.00    +0.000 OA
ENDROOT
BRANCH   1   3
ATOM      3  C   UNL     1       1.259   2.796  19.903  0.00  0.00    +0.000 C 
ATOM      4  C   UNL     1       1.307   3.049  21.411  0.00  0.00    +0.000 C 
BRANCH   3   5
ATOM      5  C   UNL     1       2.446   1.967  19.400  0.00  0.00    +0.000 C 
BRANCH   5   6
ATOM      6  C   UNL     1       3.777   2.453  19.952  0.00  0.00    +0.000 C 
BRANCH   6   7
ATOM      7  C   UNL     1       4.745   2.762  18.819  0.00  0.00    +0.000 C 
BRANCH   7   8
ATOM      8  C   UNL     1       4.010   2.761  17.485  0.00  0.00    +0.000 C 
BRANCH   8   9
ATOM      9  C   UNL     1       4.419   3.963  16.650  0.00  0.00    +0.000 C 
BRANCH   9  10
ATOM     10  C   UNL     1       5.604   3.609  15.766  0.00  0.00    +0.000 C 
BRANCH  10  11
ATOM     11  C   UNL     1       6.118   4.839  15.029  0.00  0.00    +0.000 C 
BRANCH  11  12
ATOM     12  C   UNL     1       6.849   5.756  16.001  0.00  0.00    +0.000 C 
BRANCH  12  13
ATOM     13  C   UNL     1       7.461   4.967  17.156  0.00  0.00    +0.000 C 
BRANCH  13  15
ATOM     14  C   UNL     1       7.787   7.323  17.942  0.00  0.00    +0.000 C 
ATOM     15  C   UNL     1       7.820   5.853  18.360  0.00  0.00    +0.000 C 
ATOM     16  C   UNL     1       6.884   5.631  19.550  0.00  0.00    +0.000 C 
ENDBRANCH  13  15
ENDBRANCH  12  13
ENDBRANCH  11  12
ENDBRANCH  10  11
ENDBRANCH   9  10
ENDBRANCH   8   9
ENDBRANCH   7   8
ENDBRANCH   6   7
ENDBRANCH   5   6
ENDBRANCH   3   5
ENDBRANCH   1   3
BRANCH   1  17
ATOM     17  O   UNL     1       1.536   5.116  20.097  0.00  0.00    +0.000 OA
BRANCH  17  18
ATOM     18  C   UNL     1       2.765   5.810  19.872  0.00  0.00    +0.000 C 
BRANCH  18  19
ATOM     19  C   UNL     1       2.532   7.277  19.518  0.00  0.00    +0.000 C 
BRANCH  19  20
ATOM     20  O   UNL     1       1.994   7.378  18.194  0.00  0.00    +0.000 OA
ATOM     21  H   UNL     1       1.135   7.827  18.284  0.00  0.00    +0.000 HD
ENDBRANCH  19  20
BRANCH  19  22
ATOM     22  C   UNL     1       1.600   7.923  20.560  0.00  0.00    +0.000 C 
BRANCH  22  23
ATOM     23  O   UNL     1       1.154   9.221  20.148  0.00  0.00    +0.000 OA
BRANCH  23  24
ATOM     24  P   UNL     1       0.165  10.015  21.324  0.00  0.00    +0.000 P 
ATOM     25  O   UNL     1       0.398   8.951  22.408  0.00  0.00    +0.000 OA
ATOM     26  O   UNL     1       1.018  11.294  21.297  0.00  0.00    +0.000 OA
BRANCH  24  27
ATOM     27  C   UNL     1      -0.881  10.856  22.569  0.00  0.00    +0.000 C 
BRANCH  27  28
ATOM     28  C   UNL     1      -0.689  12.369  22.542  0.00  0.00    +0.000 C 
BRANCH  28  29
ATOM     29  N   UNL     1      -2.018  13.155  22.874  0.00  0.00    +0.000 N 
ATOM     30  C   UNL     1      -3.020  12.182  23.441  0.00  0.00    +0.000 C 
ATOM     31  C   UNL     1      -1.684  14.255  23.848  0.00  0.00    +0.000 C 
ATOM     32  C   UNL     1      -2.530  13.736  21.571  0.00  0.00    +0.000 C 
ENDBRANCH  28  29
ENDBRANCH  27  28
ENDBRANCH  24  27
ENDBRANCH  23  24
ENDBRANCH  22  23
ENDBRANCH  19  22
ENDBRANCH  18  19
ENDBRANCH  17  18
ENDBRANCH   1  17
TORSDOF 21
ENDMDL
MODEL 7
REMARK VINA RESULT:      -5.4      7.737     11.587
REMARK  Name = 
REMARK  27 active torsions:
REMARK  status: ('A' for Active; 'I' for Inactive)
REMARK    1  A    between atoms: C_1  and  C_2
REMARK    2  A    between atoms: C_2  and  C_3
REMARK    3  A    between atoms: C_2  and  C_4
REMARK    4  A    between atoms: C_4  and  C_5
REMARK    5  A    between atoms: C_5  and  C_6
REMARK    6  A    between atoms: C_6  and  C_7
REMARK    7  A    between atoms: C_7  and  C_8
REMARK    8  A    between atoms: C_8  and  C_9
REMARK    9  A    between atoms: C_9  and  C_10
REMARK   10  A    between atoms: C_10  and  C_11
REMARK   11  A    between atoms: C_11  and  C_12
REMARK   12  A    between atoms: C_12  and  C_13
REMARK   13  A    between atoms: C_13  and  C_14
REMARK   14  A    between atoms: C_13  and  C_15
REMARK   15  A    between atoms: C_15  and  O_17
REMARK   16  A    between atoms: O_17  and  C_18
REMARK   17  A    between atoms: C_18  and  C_19
REMARK   18  A    between atoms: C_19  and  O_20
REMARK   19  A    between atoms: C_19  and  C_21
REMARK   20  A    between atoms: C_21  and  O_22
REMARK   21  A    between atoms: O_22  and  P_23
REMARK   22  A    between atoms: P_23  and  C_26
REMARK   23  A    between atoms: C_26  and  C_27
REMARK   24  A    between atoms: C_27  and  N_28
REMARK   25  A    between atoms: N_28  and  C_29
REMARK   26  A    between atoms: N_28  and  C_30
REMARK   27  A    between atoms: N_28  and  C_31
REMARK                            x       y       z     vdW  Elec       q    Type
REMARK                         _______ _______ _______ _____ _____    ______ ____
ROOT
ATOM      1  C   UNL     1       9.484  10.608  18.753  0.00  0.00    +0.000 C 
ATOM      2  O   UNL     1       9.242  10.387  19.930  0.00  0.00    +0.000 OA
ENDROOT
BRANCH   1   3
ATOM      3  C   UNL     1      10.542  11.560  18.246  0.00  0.00    +0.000 C 
ATOM      4  C   UNL     1      11.606  11.714  19.334  0.00  0.00    +0.000 C 
BRANCH   3   5
ATOM      5  C   UNL     1       9.888  12.892  17.860  0.00  0.00    +0.000 C 
BRANCH   5   6
ATOM      6  C   UNL     1      10.892  13.914  17.352  0.00  0.00    +0.000 C 
BRANCH   6   7
ATOM      7  C   UNL     1      10.790  15.206  18.150  0.00  0.00    +0.000 C 
BRANCH   7   8
ATOM      8  C   UNL     1      11.953  15.315  19.127  0.00  0.00    +0.000 C 
BRANCH   8   9
ATOM      9  C   UNL     1      11.664  16.365  20.186  0.00  0.00    +0.000 C 
BRANCH   9  10
ATOM     10  C   UNL     1      10.288  16.135  20.791  0.00  0.00    +0.000 C 
BRANCH  10  11
ATOM     11  C   UNL     1      10.314  14.966  21.767  0.00  0.00    +0.000 C 
BRANCH  11  12
ATOM     12  C   UNL     1       9.283  13.923  21.353  0.00  0.00    +0.000 C 
BRANCH  12  13
ATOM     13  C   UNL     1       9.389  12.666  22.212  0.00  0.00    +0.000 C 
BRANCH  13  15
ATOM     14  C   UNL     1       8.175  11.813  24.231  0.00  0.00    +0.000 C 
ATOM     15  C   UNL     1       8.029  12.200  22.759  0.00  0.00    +0.000 C 
ATOM     16  C   UNL     1       6.942  13.266  22.608  0.00  0.00    +0.000 C 
ENDBRANCH  13  15
ENDBRANCH  12  13
ENDBRANCH  11  12
ENDBRANCH  10  11
ENDBRANCH   9  10
ENDBRANCH   8   9
ENDBRANCH   7   8
ENDBRANCH   6   7
ENDBRANCH   5   6
ENDBRANCH   3   5
ENDBRANCH   1   3
BRANCH   1  17
ATOM     17  O   UNL     1       8.939   9.938  17.701  0.00  0.00    +0.000 OA
BRANCH  17  18
ATOM     18  C   UNL     1       7.834   9.089  18.019  0.00  0.00    +0.000 C 
BRANCH  18  19
ATOM     19  C   UNL     1       8.161   7.617  17.775  0.00  0.00    +0.000 C 
BRANCH  19  20
ATOM     20  O   UNL     1       8.256   6.926  19.027  0.00  0.00    +0.000 OA
ATOM     21  H   UNL     1       8.885   7.435  19.569  0.00  0.00    +0.000 HD
ENDBRANCH  19  20
BRANCH  19  22
ATOM     22  C   UNL     1       7.090   6.990  16.861  0.00  0.00    +0.000 C 
BRANCH  22  23
ATOM     23  O   UNL     1       7.278   5.578  16.708  0.00  0.00    +0.000 OA
BRANCH  23  24
ATOM     24  P   UNL     1       5.861   4.652  17.067  0.00  0.00    +0.000 P 
ATOM     25  O   UNL     1       6.128   3.607  15.973  0.00  0.00    +0.000 OA
ATOM     26  O   UNL     1       6.302   4.389  18.516  0.00  0.00    +0.000 OA
BRANCH  24  27
ATOM     27  C   UNL     1       4.363   3.673  17.446  0.00  0.00    +0.000 C 
BRANCH  27  28
ATOM     28  C   UNL     1       4.315   3.254  18.913  0.00  0.00    +0.000 C 
BRANCH  28  29
ATOM     29  N   UNL     1       2.901   3.507  19.570  0.00  0.00    +0.000 N 
ATOM     30  C   UNL     1       2.874   2.835  20.919  0.00  0.00    +0.000 C 
ATOM     31  C   UNL     1       2.689   4.995  19.675  0.00  0.00    +0.000 C 
ATOM     32  C   UNL     1       1.866   2.885  18.655  0.00  0.00    +0.000 C 
ENDBRANCH  28  29
ENDBRANCH  27  28
ENDBRANCH  24  27
ENDBRANCH  23  24
ENDBRANCH  22  23
ENDBRANCH  19  22
ENDBRANCH  18  19
ENDBRANCH  17  18
ENDBRANCH   1  17
TORSDOF 21
ENDMDL
MODEL 8
REMARK VINA RESULT:      -5.4      1.818      2.755
REMARK  Name = 
REMARK  27 active torsions:
REMARK  status: ('A' for Active; 'I' for Inactive)
REMARK    1  A    between atoms: C_1  and  C_2
REMARK    2  A    between atoms: C_2  and  C_3
REMARK    3  A    between atoms: C_2  and  C_4
REMARK    4  A    between atoms: C_4  and  C_5
REMARK    5  A    between atoms: C_5  and  C_6
REMARK    6  A    between atoms: C_6  and  C_7
REMARK    7  A    between atoms: C_7  and  C_8
REMARK    8  A    between atoms: C_8  and  C_9
REMARK    9  A    between atoms: C_9  and  C_10
REMARK   10  A    between atoms: C_10  and  C_11
REMARK   11  A    between atoms: C_11  and  C_12
REMARK   12  A    between atoms: C_12  and  C_13
REMARK   13  A    between atoms: C_13  and  C_14
REMARK   14  A    between atoms: C_13  and  C_15
REMARK   15  A    between atoms: C_15  and  O_17
REMARK   16  A    between atoms: O_17  and  C_18
REMARK   17  A    between atoms: C_18  and  C_19
REMARK   18  A    between atoms: C_19  and  O_20
REMARK   19  A    between atoms: C_19  and  C_21
REMARK   20  A    between atoms: C_21  and  O_22
REMARK   21  A    between atoms: O_22  and  P_23
REMARK   22  A    between atoms: P_23  and  C_26
REMARK   23  A    between atoms: C_26  and  C_27
REMARK   24  A    between atoms: C_27  and  N_28
REMARK   25  A    between atoms: N_28  and  C_29
REMARK   26  A    between atoms: N_28  and  C_30
REMARK   27  A    between atoms: N_28  and  C_31
REMARK                            x       y       z     vdW  Elec       q    Type
REMARK                         _______ _______ _______ _____ _____    ______ ____
ROOT
ATOM      1  C   UNL     1       1.685   8.125  20.097  0.00  0.00    +0.000 C 
ATOM      2  O   UNL     1       1.291   8.997  19.339  0.00  0.00    +0.000 OA
ENDROOT
BRANCH   1   3
ATOM      3  C   UNL     1       2.536   6.942  19.696  0.00  0.00    +0.000 C 
ATOM      4  C   UNL     1       2.287   6.657  18.213  0.00  0.00    +0.000 C 
BRANCH   3   5
ATOM      5  C   UNL     1       2.205   5.746  20.596  0.00  0.00    +0.000 C 
BRANCH   5   6
ATOM      6  C   UNL     1       1.065   4.900  20.052  0.00  0.00    +0.000 C 
BRANCH   6   7
ATOM      7  C   UNL     1       1.205   3.455  20.513  0.00  0.00    +0.000 C 
BRANCH   7   8
ATOM      8  C   UNL     1       1.096   2.511  19.323  0.00  0.00    +0.000 C 
BRANCH   8   9
ATOM      9  C   UNL     1       1.564   3.200  18.052  0.00  0.00    +0.000 C 
BRANCH   9  10
ATOM     10  C   UNL     1       2.880   2.599  17.583  0.00  0.00    +0.000 C 
BRANCH  10  11
ATOM     11  C   UNL     1       4.060   3.416  18.090  0.00  0.00    +0.000 C 
BRANCH  11  12
ATOM     12  C   UNL     1       4.945   3.830  16.920  0.00  0.00    +0.000 C 
BRANCH  12  13
ATOM     13  C   UNL     1       5.221   5.331  16.937  0.00  0.00    +0.000 C 
BRANCH  13  15
ATOM     14  C   UNL     1       7.526   4.628  17.620  0.00  0.00    +0.000 C 
ATOM     15  C   UNL     1       6.451   5.703  17.781  0.00  0.00    +0.000 C 
ATOM     16  C   UNL     1       7.025   7.071  17.409  0.00  0.00    +0.000 C 
ENDBRANCH  13  15
ENDBRANCH  12  13
ENDBRANCH  11  12
ENDBRANCH  10  11
ENDBRANCH   9  10
ENDBRANCH   8   9
ENDBRANCH   7   8
ENDBRANCH   6   7
ENDBRANCH   5   6
ENDBRANCH   3   5
ENDBRANCH   1   3
BRANCH   1  17
ATOM     17  O   UNL     1       1.544   8.139  21.451  0.00  0.00    +0.000 OA
BRANCH  17  18
ATOM     18  C   UNL     1       1.097   9.377  22.009  0.00  0.00    +0.000 C 
BRANCH  18  19
ATOM     19  C   UNL     1      -0.427   9.439  22.105  0.00  0.00    +0.000 C 
BRANCH  19  20
ATOM     20  O   UNL     1      -0.927   8.218  22.664  0.00  0.00    +0.000 OA
ATOM     21  H   UNL     1      -0.151   7.648  22.808  0.00  0.00    +0.000 HD
ENDBRANCH  19  20
BRANCH  19  22
ATOM     22  C   UNL     1      -0.847  10.661  22.944  0.00  0.00    +0.000 C 
BRANCH  22  23
ATOM     23  O   UNL     1      -0.016  11.798  22.686  0.00  0.00    +0.000 OA
BRANCH  23  24
ATOM     24  P   UNL     1      -0.906  13.262  22.447  0.00  0.00    +0.000 P 
ATOM     25  O   UNL     1       0.320  14.172  22.620  0.00  0.00    +0.000 OA
ATOM     26  O   UNL     1      -1.371  12.846  21.042  0.00  0.00    +0.000 OA
BRANCH  24  27
ATOM     27  C   UNL     1      -1.848  14.810  22.194  0.00  0.00    +0.000 C 
BRANCH  27  28
ATOM     28  C   UNL     1      -2.233  15.463  23.519  0.00  0.00    +0.000 C 
BRANCH  28  29
ATOM     29  N   UNL     1      -3.773  15.802  23.604  0.00  0.00    +0.000 N 
ATOM     30  C   UNL     1      -4.038  16.499  24.914  0.00  0.00    +0.000 C 
ATOM     31  C   UNL     1      -4.131  16.665  22.422  0.00  0.00    +0.000 C 
ATOM     32  C   UNL     1      -4.524  14.487  23.549  0.00  0.00    +0.000 C 
ENDBRANCH  28  29
ENDBRANCH  27  28
ENDBRANCH  24  27
ENDBRANCH  23  24
ENDBRANCH  22  23
ENDBRANCH  19  22
ENDBRANCH  18  19
ENDBRANCH  17  18
ENDBRANCH   1  17
TORSDOF 21
ENDMDL
MODEL 9
REMARK VINA RESULT:      -5.4      5.077     10.651
REMARK  Name = 
REMARK  27 active torsions:
REMARK  status: ('A' for Active; 'I' for Inactive)
REMARK    1  A    between atoms: C_1  and  C_2
REMARK    2  A    between atoms: C_2  and  C_3
REMARK    3  A    between atoms: C_2  and  C_4
REMARK    4  A    between atoms: C_4  and  C_5
REMARK    5  A    between atoms: C_5  and  C_6
REMARK    6  A    between atoms: C_6  and  C_7
REMARK    7  A    between atoms: C_7  and  C_8
REMARK    8  A    between atoms: C_8  and  C_9
REMARK    9  A    between atoms: C_9  and  C_10
REMARK   10  A    between atoms: C_10  and  C_11
REMARK   11  A    between atoms: C_11  and  C_12
REMARK   12  A    between atoms: C_12  and  C_13
REMARK   13  A    between atoms: C_13  and  C_14
REMARK   14  A    between atoms: C_13  and  C_15
REMARK   15  A    between atoms: C_15  and  O_17
REMARK   16  A    between atoms: O_17  and  C_18
REMARK   17  A    between atoms: C_18  and  C_19
REMARK   18  A    between atoms: C_19  and  O_20
REMARK   19  A    between atoms: C_19  and  C_21
REMARK   20  A    between atoms: C_21  and  O_22
REMARK   21  A    between atoms: O_22  and  P_23
REMARK   22  A    between atoms: P_23  and  C_26
REMARK   23  A    between atoms: C_26  and  C_27
REMARK   24  A    between atoms: C_27  and  N_28
REMARK   25  A    between atoms: N_28  and  C_29
REMARK   26  A    between atoms: N_28  and  C_30
REMARK   27  A    between atoms: N_28  and  C_31
REMARK                            x       y       z     vdW  Elec       q    Type
REMARK                         _______ _______ _______ _____ _____    ______ ____
ROOT
ATOM      1  C   UNL     1       2.063   6.733  19.870  0.00  0.00    +0.000 C 
ATOM      2  O   UNL     1       2.317   6.394  18.725  0.00  0.00    +0.000 OA
ENDROOT
BRANCH   1   3
ATOM      3  C   UNL     1       1.782   8.150  20.315  0.00  0.00    +0.000 C 
ATOM      4  C   UNL     1       0.605   8.119  21.292  0.00  0.00    +0.000 C 
BRANCH   3   5
ATOM      5  C   UNL     1       1.513   9.027  19.087  0.00  0.00    +0.000 C 
BRANCH   5   6
ATOM      6  C   UNL     1       0.290   9.915  19.256  0.00  0.00    +0.000 C 
BRANCH   6   7
ATOM      7  C   UNL     1       0.706  11.337  19.606  0.00  0.00    +0.000 C 
BRANCH   7   8
ATOM      8  C   UNL     1       1.652  11.884  18.544  0.00  0.00    +0.000 C 
BRANCH   8   9
ATOM      9  C   UNL     1       1.474  13.385  18.394  0.00  0.00    +0.000 C 
BRANCH   9  10
ATOM     10  C   UNL     1       0.391  13.882  19.340  0.00  0.00    +0.000 C 
BRANCH  10  11
ATOM     11  C   UNL     1       0.687  15.301  19.805  0.00  0.00    +0.000 C 
BRANCH  11  12
ATOM     12  C   UNL     1       1.472  16.045  18.731  0.00  0.00    +0.000 C 
BRANCH  12  13
ATOM     13  C   UNL     1       0.822  17.385  18.397  0.00  0.00    +0.000 C 
BRANCH  13  15
ATOM     14  C   UNL     1       2.641  17.234  16.680  0.00  0.00    +0.000 C 
ATOM     15  C   UNL     1       1.513  18.109  17.229  0.00  0.00    +0.000 C 
ATOM     16  C   UNL     1       0.540  18.467  16.105  0.00  0.00    +0.000 C 
ENDBRANCH  13  15
ENDBRANCH  12  13
ENDBRANCH  11  12
ENDBRANCH  10  11
ENDBRANCH   9  10
ENDBRANCH   8   9
ENDBRANCH   7   8
ENDBRANCH   6   7
ENDBRANCH   5   6
ENDBRANCH   3   5
ENDBRANCH   1   3
BRANCH   1  17
ATOM     17  O   UNL     1       1.854   5.884  20.912  0.00  0.00    +0.000 OA
BRANCH  17  18
ATOM     18  C   UNL     1       1.192   4.660  20.584  0.00  0.00    +0.000 C 
BRANCH  18  19
ATOM     19  C   UNL     1       2.085   3.447  20.835  0.00  0.00    +0.000 C 
BRANCH  19  20
ATOM     20  O   UNL     1       1.859   2.943  22.157  0.00  0.00    +0.000 OA
ATOM     21  H   UNL     1       2.629   3.217  22.687  0.00  0.00    +0.000 HD
ENDBRANCH  19  20
BRANCH  19  22
ATOM     22  C   UNL     1       1.818   2.372  19.764  0.00  0.00    +0.000 C 
BRANCH  22  23
ATOM     23  O   UNL     1       3.017   1.986  19.082  0.00  0.00    +0.000 OA
BRANCH  23  24
ATOM     24  P   UNL     1       4.227   3.222  19.062  0.00  0.00    +0.000 P 
ATOM     25  O   UNL     1       5.206   2.437  19.949  0.00  0.00    +0.000 OA
ATOM     26  O   UNL     1       4.361   3.179  17.532  0.00  0.00    +0.000 OA
BRANCH  24  27
ATOM     27  C   UNL     1       5.507   4.530  19.042  0.00  0.00    +0.000 C 
BRANCH  27  28
ATOM     28  C   UNL     1       5.435   5.373  17.772  0.00  0.00    +0.000 C 
BRANCH  28  29
ATOM     29  N   UNL     1       6.831   5.492  17.044  0.00  0.00    +0.000 N 
ATOM     30  C   UNL     1       7.782   4.501  17.666  0.00  0.00    +0.000 C 
ATOM     31  C   UNL     1       6.621   5.229  15.576  0.00  0.00    +0.000 C 
ATOM     32  C   UNL     1       7.331   6.906  17.264  0.00  0.00    +0.000 C 
ENDBRANCH  28  29
ENDBRANCH  27  28
ENDBRANCH  24  27
ENDBRANCH  23  24
ENDBRANCH  22  23
ENDBRANCH  19  22
ENDBRANCH  18  19
ENDBRANCH  17  18
ENDBRANCH   1  17
TORSDOF 21
ENDMDL
