MODEL 1
REMARK VINA RESULT:      -8.4      0.000      0.000
REMARK  Name = 
REMARK  5 active torsions:
REMARK  status: ('A' for Active; 'I' for Inactive)
REMARK    1  A    between atoms: S_2  and  C_4
REMARK    2  A    between atoms: S_2  and  N_14
REMARK    3  A    between atoms: C_9  and  C_10
REMARK    4  A    between atoms: C_17  and  N_18
REMARK    5  A    between atoms: C_23  and  C_24
REMARK                            x       y       z     vdW  Elec       q    Type
REMARK                         _______ _______ _______ _____ _____    ______ ____
ROOT
ATOM      1  N   UNL     1      -0.830  11.900  19.062  0.00  0.00    +0.000 NA
ATOM      2  C   UNL     1       0.603  12.128  19.449  0.00  0.00    +0.000 C 
ATOM      3  C   UNL     1       1.568  11.444  18.479  0.00  0.00    +0.000 C 
ATOM      4  C   UNL     1       1.316   9.937  18.384  0.00  0.00    +0.000 C 
ATOM      5  C   UNL     1      -0.127   9.758  17.910  0.00  0.00    +0.000 C 
ATOM      6  C   UNL     1      -1.120  10.434  18.848  0.00  0.00    +0.000 C 
ENDROOT
BRANCH   4   7
ATOM      7  N   UNL     1       1.492   9.253  19.665  0.00  0.00    +0.000 N 
ATOM      8  C   UNL     1       1.886   7.929  19.665  0.00  0.00    +0.000 A 
ATOM      9  N   UNL     1       1.425   7.212  20.702  0.00  0.00    +0.000 NA
ATOM     10  C   UNL     1       1.805   5.925  20.767  0.00  0.00    +0.000 A 
ATOM     11  C   UNL     1       2.613   5.330  19.832  0.00  0.00    +0.000 A 
ATOM     12  C   UNL     1       3.018   6.131  18.787  0.00  0.00    +0.000 A 
ATOM     13  N   UNL     1       2.667   7.433  18.702  0.00  0.00    +0.000 NA
ATOM     14  H   UNL     1       0.695   9.275  20.297  0.00  0.00    +0.000 HD
BRANCH  12  15
ATOM     15  C   UNL     1       3.877   5.629  17.688  0.00  0.00    +0.000 A 
ATOM     16  C   UNL     1       4.070   4.252  17.472  0.00  0.00    +0.000 A 
ATOM     17  C   UNL     1       4.888   3.785  16.437  0.00  0.00    +0.000 A 
ATOM     18  C   UNL     1       5.520   4.693  15.594  0.00  0.00    +0.000 A 
ATOM     19 CL   UNL     1       6.526   4.119  14.323  0.00  0.00    +0.000 Cl
ATOM     20  C   UNL     1       5.339   6.059  15.772  0.00  0.00    +0.000 A 
ATOM     21  C   UNL     1       4.522   6.521  16.812  0.00  0.00    +0.000 A 
ENDBRANCH  12  15
ENDBRANCH   4   7
BRANCH   1  23
ATOM     22  O   UNL     1      -1.773  13.956  20.263  0.00  0.00    +0.000 OA
ATOM     23  S   UNL     1      -1.959  12.522  20.228  0.00  0.00    +0.000 S 
ATOM     24  O   UNL     1      -1.839  11.762  21.457  0.00  0.00    +0.000 OA
BRANCH  23  25
ATOM     25  C   UNL     1      -3.612  12.204  19.617  0.00  0.00    +0.000 A 
ATOM     26  C   UNL     1      -3.698  11.754  18.282  0.00  0.00    +0.000 A 
ATOM     27  C   UNL     1      -4.926  11.674  17.623  0.00  0.00    +0.000 A 
ATOM     28  C   UNL     1      -6.086  12.056  18.281  0.00  0.00    +0.000 A 
ATOM     29  C   UNL     1      -6.014  12.507  19.598  0.00  0.00    +0.000 A 
ATOM     30  C   UNL     1      -4.781  12.594  20.295  0.00  0.00    +0.000 A 
BRANCH  30  31
ATOM     31  C   UNL     1      -4.863  13.145  21.699  0.00  0.00    +0.000 C 
ATOM     32  F   UNL     1      -4.330  12.399  22.693  0.00  0.00    +0.000 F 
ATOM     33  F   UNL     1      -4.286  14.379  21.791  0.00  0.00    +0.000 F 
ATOM     34  F   UNL     1      -6.166  13.340  22.069  0.00  0.00    +0.000 F 
ENDBRANCH  30  31
ENDBRANCH  23  25
ENDBRANCH   1  23
TORSDOF 5
ENDMDL
MODEL 2
REMARK VINA RESULT:      -8.3      0.100      1.061
REMARK  Name = 
REMARK  5 active torsions:
REMARK  status: ('A' for Active; 'I' for Inactive)
REMARK    1  A    between atoms: S_2  and  C_4
REMARK    2  A    between atoms: S_2  and  N_14
REMARK    3  A    between atoms: C_9  and  C_10
REMARK    4  A    between atoms: C_17  and  N_18
REMARK    5  A    between atoms: C_23  and  C_24
REMARK                            x       y       z     vdW  Elec       q    Type
REMARK                         _______ _______ _______ _____ _____    ______ ____
ROOT
ATOM      1  N   UNL     1      -0.855  11.913  19.122  0.00  0.00    +0.000 NA
ATOM      2  C   UNL     1       0.586  12.131  19.485  0.00  0.00    +0.000 C 
ATOM      3  C   UNL     1       1.529  11.443  18.497  0.00  0.00    +0.000 C 
ATOM      4  C   UNL     1       1.266   9.938  18.402  0.00  0.00    +0.000 C 
ATOM      5  C   UNL     1      -0.186   9.770  17.952  0.00  0.00    +0.000 C 
ATOM      6  C   UNL     1      -1.158  10.450  18.909  0.00  0.00    +0.000 C 
ENDROOT
BRANCH   4   7
ATOM      7  N   UNL     1       1.459   9.249  19.678  0.00  0.00    +0.000 N 
ATOM      8  C   UNL     1       1.864   7.928  19.668  0.00  0.00    +0.000 A 
ATOM      9  N   UNL     1       1.419   7.202  20.705  0.00  0.00    +0.000 NA
ATOM     10  C   UNL     1       1.811   5.918  20.759  0.00  0.00    +0.000 A 
ATOM     11  C   UNL     1       2.616   5.335  19.815  0.00  0.00    +0.000 A 
ATOM     12  C   UNL     1       3.005   6.145  18.770  0.00  0.00    +0.000 A 
ATOM     13  N   UNL     1       2.642   7.445  18.696  0.00  0.00    +0.000 NA
ATOM     14  H   UNL     1       0.667   9.260  20.317  0.00  0.00    +0.000 HD
BRANCH  12  15
ATOM     15  C   UNL     1       3.858   5.657  17.661  0.00  0.00    +0.000 A 
ATOM     16  C   UNL     1       4.542   6.545  16.810  0.00  0.00    +0.000 A 
ATOM     17  C   UNL     1       5.340   6.077  15.760  0.00  0.00    +0.000 A 
ATOM     18  C   UNL     1       5.473   4.709  15.550  0.00  0.00    +0.000 A 
ATOM     19 CL   UNL     1       6.453   4.135  14.260  0.00  0.00    +0.000 Cl
ATOM     20  C   UNL     1       4.822   3.805  16.382  0.00  0.00    +0.000 A 
ATOM     21  C   UNL     1       4.022   4.279  17.429  0.00  0.00    +0.000 A 
ENDBRANCH  12  15
ENDBRANCH   4   7
BRANCH   1  23
ATOM     22  O   UNL     1      -1.747  13.969  20.362  0.00  0.00    +0.000 OA
ATOM     23  S   UNL     1      -1.960  12.540  20.309  0.00  0.00    +0.000 S 
ATOM     24  O   UNL     1      -1.841  11.760  21.526  0.00  0.00    +0.000 OA
BRANCH  23  25
ATOM     25  C   UNL     1      -3.625  12.260  19.712  0.00  0.00    +0.000 A 
ATOM     26  C   UNL     1      -3.733  11.815  18.377  0.00  0.00    +0.000 A 
ATOM     27  C   UNL     1      -4.968  11.764  17.729  0.00  0.00    +0.000 A 
ATOM     28  C   UNL     1      -6.113  12.171  18.397  0.00  0.00    +0.000 A 
ATOM     29  C   UNL     1      -6.020  12.616  19.715  0.00  0.00    +0.000 A 
ATOM     30  C   UNL     1      -4.779  12.674  20.402  0.00  0.00    +0.000 A 
BRANCH  30  31
ATOM     31  C   UNL     1      -4.836  13.224  21.807  0.00  0.00    +0.000 C 
ATOM     32  F   UNL     1      -4.185  14.383  22.049  0.00  0.00    +0.000 F 
ATOM     33  F   UNL     1      -6.122  13.410  22.224  0.00  0.00    +0.000 F 
ATOM     34  F   UNL     1      -4.306  12.332  22.699  0.00  0.00    +0.000 F 
ENDBRANCH  30  31
ENDBRANCH  23  25
ENDBRANCH   1  23
TORSDOF 5
ENDMDL
MODEL 3
REMARK VINA RESULT:      -8.1      2.362      3.004
REMARK  Name = 
REMARK  5 active torsions:
REMARK  status: ('A' for Active; 'I' for Inactive)
REMARK    1  A    between atoms: S_2  and  C_4
REMARK    2  A    between atoms: S_2  and  N_14
REMARK    3  A    between atoms: C_9  and  C_10
REMARK    4  A    between atoms: C_17  and  N_18
REMARK    5  A    between atoms: C_23  and  C_24
REMARK                            x       y       z     vdW  Elec       q    Type
REMARK                         _______ _______ _______ _____ _____    ______ ____
ROOT
ATOM      1  N   UNL     1      -0.060  12.269  19.473  0.00  0.00    +0.000 NA
ATOM      2  C   UNL     1       1.422  12.031  19.513  0.00  0.00    +0.000 C 
ATOM      3  C   UNL     1       1.874  11.086  18.398  0.00  0.00    +0.000 C 
ATOM      4  C   UNL     1       1.156   9.736  18.462  0.00  0.00    +0.000 C 
ATOM      5  C   UNL     1      -0.341  10.024  18.336  0.00  0.00    +0.000 C 
ATOM      6  C   UNL     1      -0.829  10.971  19.426  0.00  0.00    +0.000 C 
ENDROOT
BRANCH   4   7
ATOM      7  N   UNL     1       1.406   9.021  19.712  0.00  0.00    +0.000 N 
ATOM      8  C   UNL     1       1.886   7.726  19.656  0.00  0.00    +0.000 A 
ATOM      9  N   UNL     1       1.498   6.945  20.675  0.00  0.00    +0.000 NA
ATOM     10  C   UNL     1       1.964   5.684  20.685  0.00  0.00    +0.000 A 
ATOM     11  C   UNL     1       2.786   5.177  19.712  0.00  0.00    +0.000 A 
ATOM     12  C   UNL     1       3.113   6.039  18.688  0.00  0.00    +0.000 A 
ATOM     13  N   UNL     1       2.675   7.318  18.659  0.00  0.00    +0.000 NA
ATOM     14  H   UNL     1       0.625   8.967  20.362  0.00  0.00    +0.000 HD
BRANCH  12  15
ATOM     15  C   UNL     1       3.976   5.634  17.553  0.00  0.00    +0.000 A 
ATOM     16  C   UNL     1       4.255   4.281  17.284  0.00  0.00    +0.000 A 
ATOM     17  C   UNL     1       5.076   3.907  16.215  0.00  0.00    +0.000 A 
ATOM     18  C   UNL     1       5.627   4.883  15.392  0.00  0.00    +0.000 A 
ATOM     19 CL   UNL     1       6.637   4.422  14.079  0.00  0.00    +0.000 Cl
ATOM     20  C   UNL     1       5.360   6.227  15.624  0.00  0.00    +0.000 A 
ATOM     21  C   UNL     1       4.540   6.597  16.697  0.00  0.00    +0.000 A 
ENDBRANCH  12  15
ENDBRANCH   4   7
BRANCH   1  23
ATOM     22  O   UNL     1       0.422  13.217  21.803  0.00  0.00    +0.000 OA
ATOM     23  S   UNL     1      -0.637  13.205  20.820  0.00  0.00    +0.000 S 
ATOM     24  O   UNL     1      -1.952  12.727  21.201  0.00  0.00    +0.000 OA
BRANCH  23  25
ATOM     25  C   UNL     1      -0.874  14.889  20.257  0.00  0.00    +0.000 A 
ATOM     26  C   UNL     1      -0.318  15.201  18.997  0.00  0.00    +0.000 A 
ATOM     27  C   UNL     1      -0.248  16.518  18.543  0.00  0.00    +0.000 A 
ATOM     28  C   UNL     1      -0.717  17.548  19.345  0.00  0.00    +0.000 A 
ATOM     29  C   UNL     1      -1.265  17.255  20.593  0.00  0.00    +0.000 A 
ATOM     30  C   UNL     1      -1.355  15.924  21.079  0.00  0.00    +0.000 A 
BRANCH  30  31
ATOM     31  C   UNL     1      -1.929  15.774  22.468  0.00  0.00    +0.000 C 
ATOM     32  F   UNL     1      -3.043  15.019  22.603  0.00  0.00    +0.000 F 
ATOM     33  F   UNL     1      -1.011  15.267  23.341  0.00  0.00    +0.000 F 
ATOM     34  F   UNL     1      -2.269  16.994  22.987  0.00  0.00    +0.000 F 
ENDBRANCH  30  31
ENDBRANCH  23  25
ENDBRANCH   1  23
TORSDOF 5
ENDMDL
MODEL 4
REMARK VINA RESULT:      -8.1      2.256      2.961
REMARK  Name = 
REMARK  5 active torsions:
REMARK  status: ('A' for Active; 'I' for Inactive)
REMARK    1  A    between atoms: S_2  and  C_4
REMARK    2  A    between atoms: S_2  and  N_14
REMARK    3  A    between atoms: C_9  and  C_10
REMARK    4  A    between atoms: C_17  and  N_18
REMARK    5  A    between atoms: C_23  and  C_24
REMARK                            x       y       z     vdW  Elec       q    Type
REMARK                         _______ _______ _______ _____ _____    ______ ____
ROOT
ATOM      1  N   UNL     1      -0.053  12.048  19.343  0.00  0.00    +0.000 NA
ATOM      2  C   UNL     1       1.438  11.872  19.355  0.00  0.00    +0.000 C 
ATOM      3  C   UNL     1       1.909  10.936  18.241  0.00  0.00    +0.000 C 
ATOM      4  C   UNL     1       1.249   9.558  18.331  0.00  0.00    +0.000 C 
ATOM      5  C   UNL     1      -0.261   9.783  18.232  0.00  0.00    +0.000 C 
ATOM      6  C   UNL     1      -0.767  10.719  19.323  0.00  0.00    +0.000 C 
ENDROOT
BRANCH   4   7
ATOM      7  N   UNL     1       1.553   8.866  19.583  0.00  0.00    +0.000 N 
ATOM      8  C   UNL     1       2.069   7.585  19.529  0.00  0.00    +0.000 A 
ATOM      9  N   UNL     1       1.731   6.806  20.568  0.00  0.00    +0.000 NA
ATOM     10  C   UNL     1       2.233   5.560  20.580  0.00  0.00    +0.000 A 
ATOM     11  C   UNL     1       3.044   5.065  19.592  0.00  0.00    +0.000 A 
ATOM     12  C   UNL     1       3.319   5.923  18.549  0.00  0.00    +0.000 A 
ATOM     13  N   UNL     1       2.843   7.188  18.516  0.00  0.00    +0.000 NA
ATOM     14  H   UNL     1       0.791   8.798  20.254  0.00  0.00    +0.000 HD
BRANCH  12  15
ATOM     15  C   UNL     1       4.163   5.529  17.396  0.00  0.00    +0.000 A 
ATOM     16  C   UNL     1       4.681   6.483  16.500  0.00  0.00    +0.000 A 
ATOM     17  C   UNL     1       5.471   6.104  15.410  0.00  0.00    +0.000 A 
ATOM     18  C   UNL     1       5.763   4.759  15.203  0.00  0.00    +0.000 A 
ATOM     19 CL   UNL     1       6.733   4.294  13.863  0.00  0.00    +0.000 Cl
ATOM     20  C   UNL     1       5.278   3.794  16.078  0.00  0.00    +0.000 A 
ATOM     21  C   UNL     1       4.485   4.179  17.165  0.00  0.00    +0.000 A 
ENDBRANCH  12  15
ENDBRANCH   4   7
BRANCH   1  23
ATOM     22  O   UNL     1       0.417  12.997  21.675  0.00  0.00    +0.000 OA
ATOM     23  S   UNL     1      -0.643  12.973  20.692  0.00  0.00    +0.000 S 
ATOM     24  O   UNL     1      -1.951  12.476  21.072  0.00  0.00    +0.000 OA
BRANCH  23  25
ATOM     25  C   UNL     1      -0.903  14.655  20.133  0.00  0.00    +0.000 A 
ATOM     26  C   UNL     1      -0.308  14.992  18.898  0.00  0.00    +0.000 A 
ATOM     27  C   UNL     1      -0.255  16.315  18.458  0.00  0.00    +0.000 A 
ATOM     28  C   UNL     1      -0.782  17.325  19.249  0.00  0.00    +0.000 A 
ATOM     29  C   UNL     1      -1.370  17.006  20.473  0.00  0.00    +0.000 A 
ATOM     30  C   UNL     1      -1.442  15.669  20.944  0.00  0.00    +0.000 A 
BRANCH  30  31
ATOM     31  C   UNL     1      -2.065  15.492  22.309  0.00  0.00    +0.000 C 
ATOM     32  F   UNL     1      -1.349  14.819  23.237  0.00  0.00    +0.000 F 
ATOM     33  F   UNL     1      -2.396  16.691  22.871  0.00  0.00    +0.000 F 
ATOM     34  F   UNL     1      -3.248  14.810  22.218  0.00  0.00    +0.000 F 
ENDBRANCH  30  31
ENDBRANCH  23  25
ENDBRANCH   1  23
TORSDOF 5
ENDMDL
MODEL 5
REMARK VINA RESULT:      -8.1      3.687      4.554
REMARK  Name = 
REMARK  5 active torsions:
REMARK  status: ('A' for Active; 'I' for Inactive)
REMARK    1  A    between atoms: S_2  and  C_4
REMARK    2  A    between atoms: S_2  and  N_14
REMARK    3  A    between atoms: C_9  and  C_10
REMARK    4  A    between atoms: C_17  and  N_18
REMARK    5  A    between atoms: C_23  and  C_24
REMARK                            x       y       z     vdW  Elec       q    Type
REMARK                         _______ _______ _______ _____ _____    ______ ____
ROOT
ATOM      1  N   UNL     1       0.879  12.813  19.037  0.00  0.00    +0.000 NA
ATOM      2  C   UNL     1       2.170  12.065  18.868  0.00  0.00    +0.000 C 
ATOM      3  C   UNL     1       2.026  10.902  17.885  0.00  0.00    +0.000 C 
ATOM      4  C   UNL     1       0.937   9.916  18.315  0.00  0.00    +0.000 C 
ATOM      5  C   UNL     1      -0.370  10.707  18.394  0.00  0.00    +0.000 C 
ATOM      6  C   UNL     1      -0.264  11.882  19.360  0.00  0.00    +0.000 C 
ENDROOT
BRANCH   4   7
ATOM      7  N   UNL     1       1.210   9.305  19.615  0.00  0.00    +0.000 N 
ATOM      8  C   UNL     1       1.707   8.016  19.654  0.00  0.00    +0.000 A 
ATOM      9  N   UNL     1       1.340   7.311  20.736  0.00  0.00    +0.000 NA
ATOM     10  C   UNL     1       1.823   6.062  20.839  0.00  0.00    +0.000 A 
ATOM     11  C   UNL     1       2.642   5.491  19.899  0.00  0.00    +0.000 A 
ATOM     12  C   UNL     1       2.947   6.274  18.807  0.00  0.00    +0.000 A 
ATOM     13  N   UNL     1       2.491   7.541  18.683  0.00  0.00    +0.000 NA
ATOM     14  H   UNL     1       0.436   9.292  20.276  0.00  0.00    +0.000 HD
BRANCH  12  15
ATOM     15  C   UNL     1       3.803   5.793  17.698  0.00  0.00    +0.000 A 
ATOM     16  C   UNL     1       3.960   4.421  17.427  0.00  0.00    +0.000 A 
ATOM     17  C   UNL     1       4.776   3.973  16.383  0.00  0.00    +0.000 A 
ATOM     18  C   UNL     1       5.444   4.896  15.585  0.00  0.00    +0.000 A 
ATOM     19 CL   UNL     1       6.447   4.346  14.302  0.00  0.00    +0.000 Cl
ATOM     20  C   UNL     1       5.300   6.259  15.817  0.00  0.00    +0.000 A 
ATOM     21  C   UNL     1       4.484   6.701  16.866  0.00  0.00    +0.000 A 
ENDBRANCH  12  15
ENDBRANCH   4   7
BRANCH   1  23
ATOM     22  O   UNL     1       2.346  14.152  20.655  0.00  0.00    +0.000 OA
ATOM     23  S   UNL     1       0.957  14.040  20.267  0.00  0.00    +0.000 S 
ATOM     24  O   UNL     1      -0.041  13.759  21.281  0.00  0.00    +0.000 OA
BRANCH  23  25
ATOM     25  C   UNL     1       0.474  15.596  19.523  0.00  0.00    +0.000 A 
ATOM     26  C   UNL     1      -0.853  16.009  19.769  0.00  0.00    +0.000 A 
ATOM     27  C   UNL     1      -1.416  17.084  19.080  0.00  0.00    +0.000 A 
ATOM     28  C   UNL     1      -0.668  17.756  18.124  0.00  0.00    +0.000 A 
ATOM     29  C   UNL     1       0.643  17.356  17.869  0.00  0.00    +0.000 A 
ATOM     30  C   UNL     1       1.243  16.269  18.557  0.00  0.00    +0.000 A 
BRANCH  30  31
ATOM     31  C   UNL     1       2.653  15.928  18.135  0.00  0.00    +0.000 C 
ATOM     32  F   UNL     1       2.869  14.695  17.625  0.00  0.00    +0.000 F 
ATOM     33  F   UNL     1       3.132  16.816  17.216  0.00  0.00    +0.000 F 
ATOM     34  F   UNL     1       3.514  16.024  19.195  0.00  0.00    +0.000 F 
ENDBRANCH  30  31
ENDBRANCH  23  25
ENDBRANCH   1  23
TORSDOF 5
ENDMDL
MODEL 6
REMARK VINA RESULT:      -8.0      3.638      4.573
REMARK  Name = 
REMARK  5 active torsions:
REMARK  status: ('A' for Active; 'I' for Inactive)
REMARK    1  A    between atoms: S_2  and  C_4
REMARK    2  A    between atoms: S_2  and  N_14
REMARK    3  A    between atoms: C_9  and  C_10
REMARK    4  A    between atoms: C_17  and  N_18
REMARK    5  A    between atoms: C_23  and  C_24
REMARK                            x       y       z     vdW  Elec       q    Type
REMARK                         _______ _______ _______ _____ _____    ______ ____
ROOT
ATOM      1  N   UNL     1       0.771  12.572  19.115  0.00  0.00    +0.000 NA
ATOM      2  C   UNL     1       2.118  11.928  18.953  0.00  0.00    +0.000 C 
ATOM      3  C   UNL     1       2.084  10.790  17.932  0.00  0.00    +0.000 C 
ATOM      4  C   UNL     1       1.063   9.712  18.306  0.00  0.00    +0.000 C 
ATOM      5  C   UNL     1      -0.301  10.400  18.378  0.00  0.00    +0.000 C 
ATOM      6  C   UNL     1      -0.305  11.548  19.381  0.00  0.00    +0.000 C 
ENDROOT
BRANCH   4   7
ATOM      7  N   UNL     1       1.354   9.081  19.593  0.00  0.00    +0.000 N 
ATOM      8  C   UNL     1       1.857   7.794  19.606  0.00  0.00    +0.000 A 
ATOM      9  N   UNL     1       1.506   7.071  20.680  0.00  0.00    +0.000 NA
ATOM     10  C   UNL     1       1.997   5.822  20.757  0.00  0.00    +0.000 A 
ATOM     11  C   UNL     1       2.808   5.271  19.800  0.00  0.00    +0.000 A 
ATOM     12  C   UNL     1       3.096   6.073  18.717  0.00  0.00    +0.000 A 
ATOM     13  N   UNL     1       2.633   7.339  18.619  0.00  0.00    +0.000 NA
ATOM     14  H   UNL     1       0.588   9.054  20.262  0.00  0.00    +0.000 HD
BRANCH  12  15
ATOM     15  C   UNL     1       3.943   5.614  17.590  0.00  0.00    +0.000 A 
ATOM     16  C   UNL     1       4.559   6.525  16.711  0.00  0.00    +0.000 A 
ATOM     17  C   UNL     1       5.350   6.085  15.645  0.00  0.00    +0.000 A 
ATOM     18  C   UNL     1       5.545   4.722  15.446  0.00  0.00    +0.000 A 
ATOM     19 CL   UNL     1       6.518   4.182  14.136  0.00  0.00    +0.000 Cl
ATOM     20  C   UNL     1       4.962   3.798  16.305  0.00  0.00    +0.000 A 
ATOM     21  C   UNL     1       4.168   4.244  17.368  0.00  0.00    +0.000 A 
ENDBRANCH  12  15
ENDBRANCH   4   7
BRANCH   1  23
ATOM     22  O   UNL     1       2.046  13.776  20.981  0.00  0.00    +0.000 OA
ATOM     23  S   UNL     1       0.730  13.761  20.383  0.00  0.00    +0.000 S 
ATOM     24  O   UNL     1      -0.427  13.518  21.222  0.00  0.00    +0.000 OA
BRANCH  23  25
ATOM     25  C   UNL     1       0.458  15.362  19.627  0.00  0.00    +0.000 A 
ATOM     26  C   UNL     1      -0.826  15.918  19.810  0.00  0.00    +0.000 A 
ATOM     27  C   UNL     1      -1.231  17.050  19.102  0.00  0.00    +0.000 A 
ATOM     28  C   UNL     1      -0.368  17.637  18.189  0.00  0.00    +0.000 A 
ATOM     29  C   UNL     1       0.903  17.095  17.996  0.00  0.00    +0.000 A 
ATOM     30  C   UNL     1       1.344  15.947  18.706  0.00  0.00    +0.000 A 
BRANCH  30  31
ATOM     31  C   UNL     1       2.727  15.454  18.351  0.00  0.00    +0.000 C 
ATOM     32  F   UNL     1       3.541  15.097  19.370  0.00  0.00    +0.000 F 
ATOM     33  F   UNL     1       2.679  14.386  17.503  0.00  0.00    +0.000 F 
ATOM     34  F   UNL     1       3.424  16.413  17.667  0.00  0.00    +0.000 F 
ENDBRANCH  30  31
ENDBRANCH  23  25
ENDBRANCH   1  23
TORSDOF 5
ENDMDL
MODEL 7
REMARK VINA RESULT:      -8.0      3.273      3.969
REMARK  Name = 
REMARK  5 active torsions:
REMARK  status: ('A' for Active; 'I' for Inactive)
REMARK    1  A    between atoms: S_2  and  C_4
REMARK    2  A    between atoms: S_2  and  N_14
REMARK    3  A    between atoms: C_9  and  C_10
REMARK    4  A    between atoms: C_17  and  N_18
REMARK    5  A    between atoms: C_23  and  C_24
REMARK                            x       y       z     vdW  Elec       q    Type
REMARK                         _______ _______ _______ _____ _____    ______ ____
ROOT
ATOM      1  N   UNL     1       0.406  12.496  19.688  0.00  0.00    +0.000 NA
ATOM      2  C   UNL     1       1.801  11.964  19.528  0.00  0.00    +0.000 C 
ATOM      3  C   UNL     1       1.884  10.917  18.416  0.00  0.00    +0.000 C 
ATOM      4  C   UNL     1       0.934   9.742  18.660  0.00  0.00    +0.000 C 
ATOM      5  C   UNL     1      -0.479  10.324  18.735  0.00  0.00    +0.000 C 
ATOM      6  C   UNL     1      -0.600  11.380  19.828  0.00  0.00    +0.000 C 
ENDROOT
BRANCH   4   7
ATOM      7  N   UNL     1       1.227   9.026  19.901  0.00  0.00    +0.000 N 
ATOM      8  C   UNL     1       1.743   7.747  19.827  0.00  0.00    +0.000 A 
ATOM      9  N   UNL     1       1.396   6.947  20.847  0.00  0.00    +0.000 NA
ATOM     10  C   UNL     1       1.899   5.701  20.840  0.00  0.00    +0.000 A 
ATOM     11  C   UNL     1       2.718   5.225  19.849  0.00  0.00    +0.000 A 
ATOM     12  C   UNL     1       3.002   6.103  18.826  0.00  0.00    +0.000 A 
ATOM     13  N   UNL     1       2.526   7.369  18.814  0.00  0.00    +0.000 NA
ATOM     14  H   UNL     1       0.459   8.945  20.564  0.00  0.00    +0.000 HD
BRANCH  12  15
ATOM     15  C   UNL     1       3.856   5.732  17.673  0.00  0.00    +0.000 A 
ATOM     16  C   UNL     1       4.082   4.387  17.325  0.00  0.00    +0.000 A 
ATOM     17  C   UNL     1       4.896   4.043  16.240  0.00  0.00    +0.000 A 
ATOM     18  C   UNL     1       5.491   5.044  15.479  0.00  0.00    +0.000 A 
ATOM     19 CL   UNL     1       6.491   4.620  14.146  0.00  0.00    +0.000 Cl
ATOM     20  C   UNL     1       5.277   6.381  15.789  0.00  0.00    +0.000 A 
ATOM     21  C   UNL     1       4.465   6.720  16.878  0.00  0.00    +0.000 A 
ENDBRANCH  12  15
ENDBRANCH   4   7
BRANCH   1  23
ATOM     22  O   UNL     1       1.563  13.776  21.581  0.00  0.00    +0.000 OA
ATOM     23  S   UNL     1       0.235  13.567  21.047  0.00  0.00    +0.000 S 
ATOM     24  O   UNL     1      -0.808  13.064  21.920  0.00  0.00    +0.000 OA
BRANCH  23  25
ATOM     25  C   UNL     1      -0.358  15.142  20.435  0.00  0.00    +0.000 A 
ATOM     26  C   UNL     1      -1.668  15.499  20.821  0.00  0.00    +0.000 A 
ATOM     27  C   UNL     1      -2.321  16.589  20.245  0.00  0.00    +0.000 A 
ATOM     28  C   UNL     1      -1.683  17.332  19.262  0.00  0.00    +0.000 A 
ATOM     29  C   UNL     1      -0.390  16.988  18.868  0.00  0.00    +0.000 A 
ATOM     30  C   UNL     1       0.301  15.888  19.441  0.00  0.00    +0.000 A 
BRANCH  30  31
ATOM     31  C   UNL     1       1.674  15.615  18.875  0.00  0.00    +0.000 C 
ATOM     32  F   UNL     1       2.685  15.436  19.754  0.00  0.00    +0.000 F 
ATOM     33  F   UNL     1       1.675  14.522  18.058  0.00  0.00    +0.000 F 
ATOM     34  F   UNL     1       2.084  16.648  18.076  0.00  0.00    +0.000 F 
ENDBRANCH  30  31
ENDBRANCH  23  25
ENDBRANCH   1  23
TORSDOF 5
ENDMDL
MODEL 8
REMARK VINA RESULT:      -7.9      2.916      4.515
REMARK  Name = 
REMARK  5 active torsions:
REMARK  status: ('A' for Active; 'I' for Inactive)
REMARK    1  A    between atoms: S_2  and  C_4
REMARK    2  A    between atoms: S_2  and  N_14
REMARK    3  A    between atoms: C_9  and  C_10
REMARK    4  A    between atoms: C_17  and  N_18
REMARK    5  A    between atoms: C_23  and  C_24
REMARK                            x       y       z     vdW  Elec       q    Type
REMARK                         _______ _______ _______ _____ _____    ______ ____
ROOT
ATOM      1  N   UNL     1       0.300  12.777  19.567  0.00  0.00    +0.000 NA
ATOM      2  C   UNL     1       1.723  12.304  19.499  0.00  0.00    +0.000 C 
ATOM      3  C   UNL     1       1.922  11.259  18.400  0.00  0.00    +0.000 C 
ATOM      4  C   UNL     1       1.006  10.047  18.586  0.00  0.00    +0.000 C 
ATOM      5  C   UNL     1      -0.431  10.570  18.566  0.00  0.00    +0.000 C 
ATOM      6  C   UNL     1      -0.666  11.621  19.645  0.00  0.00    +0.000 C 
ENDROOT
BRANCH   4   7
ATOM      7  N   UNL     1       1.247   9.345  19.846  0.00  0.00    +0.000 N 
ATOM      8  C   UNL     1       1.705   8.042  19.806  0.00  0.00    +0.000 A 
ATOM      9  N   UNL     1       1.306   7.281  20.837  0.00  0.00    +0.000 NA
ATOM     10  C   UNL     1       1.751   6.013  20.863  0.00  0.00    +0.000 A 
ATOM     11  C   UNL     1       2.563   5.479  19.896  0.00  0.00    +0.000 A 
ATOM     12  C   UNL     1       2.902   6.322  18.860  0.00  0.00    +0.000 A 
ATOM     13  N   UNL     1       2.486   7.607  18.814  0.00  0.00    +0.000 NA
ATOM     14  H   UNL     1       0.467   9.313  20.498  0.00  0.00    +0.000 HD
BRANCH  12  15
ATOM     15  C   UNL     1       3.756   5.887  17.729  0.00  0.00    +0.000 A 
ATOM     16  C   UNL     1       4.438   6.815  16.920  0.00  0.00    +0.000 A 
ATOM     17  C   UNL     1       5.236   6.399  15.849  0.00  0.00    +0.000 A 
ATOM     18  C   UNL     1       5.372   5.041  15.576  0.00  0.00    +0.000 A 
ATOM     19 CL   UNL     1       6.352   4.530  14.260  0.00  0.00    +0.000 Cl
ATOM     20  C   UNL     1       4.722   4.099  16.364  0.00  0.00    +0.000 A 
ATOM     21  C   UNL     1       3.921   4.522  17.432  0.00  0.00    +0.000 A 
ENDBRANCH  12  15
ENDBRANCH   4   7
BRANCH   1  23
ATOM     22  O   UNL     1       0.386  13.127  22.103  0.00  0.00    +0.000 OA
ATOM     23  S   UNL     1      -0.002  13.842  20.908  0.00  0.00    +0.000 S 
ATOM     24  O   UNL     1      -1.350  14.367  20.803  0.00  0.00    +0.000 OA
BRANCH  23  25
ATOM     25  C   UNL     1       1.086  15.255  20.744  0.00  0.00    +0.000 A 
ATOM     26  C   UNL     1       2.047  15.414  21.766  0.00  0.00    +0.000 A 
ATOM     27  C   UNL     1       2.807  16.580  21.870  0.00  0.00    +0.000 A 
ATOM     28  C   UNL     1       2.611  17.612  20.964  0.00  0.00    +0.000 A 
ATOM     29  C   UNL     1       1.663  17.469  19.951  0.00  0.00    +0.000 A 
ATOM     30  C   UNL     1       0.879  16.293  19.818  0.00  0.00    +0.000 A 
BRANCH  30  31
ATOM     31  C   UNL     1      -0.137  16.311  18.701  0.00  0.00    +0.000 C 
ATOM     32  F   UNL     1      -0.333  15.159  18.020  0.00  0.00    +0.000 F 
ATOM     33  F   UNL     1      -1.365  16.712  19.142  0.00  0.00    +0.000 F 
ATOM     34  F   UNL     1       0.208  17.227  17.745  0.00  0.00    +0.000 F 
ENDBRANCH  30  31
ENDBRANCH  23  25
ENDBRANCH   1  23
TORSDOF 5
ENDMDL
MODEL 9
REMARK VINA RESULT:      -7.8      3.564      5.469
REMARK  Name = 
REMARK  5 active torsions:
REMARK  status: ('A' for Active; 'I' for Inactive)
REMARK    1  A    between atoms: S_2  and  C_4
REMARK    2  A    between atoms: S_2  and  N_14
REMARK    3  A    between atoms: C_9  and  C_10
REMARK    4  A    between atoms: C_17  and  N_18
REMARK    5  A    between atoms: C_23  and  C_24
REMARK                            x       y       z     vdW  Elec       q    Type
REMARK                         _______ _______ _______ _____ _____    ______ ____
ROOT
ATOM      1  N   UNL     1       1.004  12.594  19.143  0.00  0.00    +0.000 NA
ATOM      2  C   UNL     1       2.245  11.790  18.885  0.00  0.00    +0.000 C 
ATOM      3  C   UNL     1       1.983  10.637  17.914  0.00  0.00    +0.000 C 
ATOM      4  C   UNL     1       0.883   9.699  18.419  0.00  0.00    +0.000 C 
ATOM      5  C   UNL     1      -0.379  10.547  18.588  0.00  0.00    +0.000 C 
ATOM      6  C   UNL     1      -0.154  11.713  19.543  0.00  0.00    +0.000 C 
ENDROOT
BRANCH   4   7
ATOM      7  N   UNL     1       1.218   9.072  19.697  0.00  0.00    +0.000 N 
ATOM      8  C   UNL     1       1.766   7.803  19.694  0.00  0.00    +0.000 A 
ATOM      9  N   UNL     1       1.459   7.063  20.770  0.00  0.00    +0.000 NA
ATOM     10  C   UNL     1       1.993   5.831  20.831  0.00  0.00    +0.000 A 
ATOM     11  C   UNL     1       2.805   5.312  19.857  0.00  0.00    +0.000 A 
ATOM     12  C   UNL     1       3.047   6.129  18.774  0.00  0.00    +0.000 A 
ATOM     13  N   UNL     1       2.539   7.379  18.690  0.00  0.00    +0.000 NA
ATOM     14  H   UNL     1       0.466   9.015  20.379  0.00  0.00    +0.000 HD
BRANCH  12  15
ATOM     15  C   UNL     1       3.888   5.706  17.630  0.00  0.00    +0.000 A 
ATOM     16  C   UNL     1       4.073   4.347  17.312  0.00  0.00    +0.000 A 
ATOM     17  C   UNL     1       4.875   3.953  16.236  0.00  0.00    +0.000 A 
ATOM     18  C   UNL     1       5.500   4.917  15.452  0.00  0.00    +0.000 A 
ATOM     19 CL   UNL     1       6.485   4.433  14.129  0.00  0.00    +0.000 Cl
ATOM     20  C   UNL     1       5.327   6.268  15.731  0.00  0.00    +0.000 A 
ATOM     21  C   UNL     1       4.526   6.656  16.812  0.00  0.00    +0.000 A 
ENDBRANCH  12  15
ENDBRANCH   4   7
BRANCH   1  23
ATOM     22  O   UNL     1       0.954  13.178  21.636  0.00  0.00    +0.000 OA
ATOM     23  S   UNL     1       1.220  13.812  20.365  0.00  0.00    +0.000 S 
ATOM     24  O   UNL     1       0.470  14.995  19.992  0.00  0.00    +0.000 OA
BRANCH  23  25
ATOM     25  C   UNL     1       2.943  14.302  20.353  0.00  0.00    +0.000 A 
ATOM     26  C   UNL     1       3.664  14.045  21.539  0.00  0.00    +0.000 A 
ATOM     27  C   UNL     1       4.943  14.566  21.735  0.00  0.00    +0.000 A 
ATOM     28  C   UNL     1       5.519  15.363  20.757  0.00  0.00    +0.000 A 
ATOM     29  C   UNL     1       4.816  15.628  19.582  0.00  0.00    +0.000 A 
ATOM     30  C   UNL     1       3.515  15.108  19.353  0.00  0.00    +0.000 A 
BRANCH  30  31
ATOM     31  C   UNL     1       2.867  15.523  18.053  0.00  0.00    +0.000 C 
ATOM     32  F   UNL     1       1.766  16.304  18.128  0.00  0.00    +0.000 F 
ATOM     33  F   UNL     1       3.746  16.174  17.237  0.00  0.00    +0.000 F 
ATOM     34  F   UNL     1       2.470  14.427  17.337  0.00  0.00    +0.000 F 
ENDBRANCH  30  31
ENDBRANCH  23  25
ENDBRANCH   1  23
TORSDOF 5
ENDMDL
