MODEL 1
REMARK VINA RESULT:      -9.7      0.000      0.000
REMARK  Name = 
REMARK  4 active torsions:
REMARK  status: ('A' for Active; 'I' for Inactive)
REMARK    1  A    between atoms: C_1  and  C_2
REMARK    2  A    between atoms: C_2  and  C_3
REMARK    3  A    between atoms: C_7  and  C_9
REMARK    4  A    between atoms: C_12  and  C_13
REMARK                            x       y       z     vdW  Elec       q    Type
REMARK                         _______ _______ _______ _____ _____    ______ ____
ROOT
ATOM      1  C   UNL     1       3.528   4.901  18.491  0.00  0.00    +0.000 A 
ATOM      2  N   UNL     1       2.836   5.884  19.143  0.00  0.00    +0.000 NA
ATOM      3  C   UNL     1       2.851   7.165  18.713  0.00  0.00    +0.000 A 
ATOM      4  N   UNL     1       2.066   8.138  19.359  0.00  0.00    +0.000 N 
ATOM      5  C   UNL     1       1.197   7.853  20.406  0.00  0.00    +0.000 C 
ATOM      6  O   UNL     1       1.001   6.746  20.880  0.00  0.00    +0.000 OA
ATOM      7  C   UNL     1       3.622   7.539  17.623  0.00  0.00    +0.000 A 
ATOM      8  C   UNL     1       4.306   6.546  16.919  0.00  0.00    +0.000 A 
ATOM      9  C   UNL     1       4.223   5.218  17.335  0.00  0.00    +0.000 A 
ATOM     10  F   UNL     1       4.814   4.281  16.587  0.00  0.00    +0.000 F 
ATOM     11  H   UNL     1       2.086   9.094  19.035  0.00  0.00    +0.000 HD
ENDROOT
BRANCH   1  13
ATOM     12  C   UNL     1       4.864   2.839  19.027  0.00  0.00    +0.000 C 
ATOM     13  C   UNL     1       3.440   3.466  19.060  0.00  0.00    +0.000 C 
ATOM     14  N   UNL     1       3.093   3.508  20.494  0.00  0.00    +0.000 NA
ATOM     15  C   UNL     1       2.000   3.028  20.936  0.00  0.00    +0.000 C 
ATOM     16  N   UNL     1       1.698   3.020  22.249  0.00  0.00    +0.000 N 
ATOM     17  O   UNL     1       1.004   2.491  20.216  0.00  0.00    +0.000 OA
ATOM     18  C   UNL     1       1.129   2.364  18.792  0.00  0.00    +0.000 C 
ATOM     19  C   UNL     1       2.535   2.505  18.244  0.00  0.00    +0.000 C 
ATOM     20  F   UNL     1       3.061   1.238  18.244  0.00  0.00    +0.000 F 
ATOM     21  F   UNL     1       2.483   2.855  16.930  0.00  0.00    +0.000 F 
ATOM     22  H   UNL     1       2.245   3.672  22.797  0.00  0.00    +0.000 HD
ATOM     23  H   UNL     1       0.713   2.976  22.468  0.00  0.00    +0.000 HD
ENDBRANCH   1  13
BRANCH   5  24
ATOM     24  C   UNL     1       0.460   9.038  20.985  0.00  0.00    +0.000 A 
ATOM     25  N   UNL     1       0.357   9.034  22.353  0.00  0.00    +0.000 NA
ATOM     26  C   UNL     1      -0.349  10.045  22.922  0.00  0.00    +0.000 A 
ATOM     27  C   UNL     1      -0.960  11.073  22.216  0.00  0.00    +0.000 A 
ATOM     28  C   UNL     1      -0.824  11.067  20.826  0.00  0.00    +0.000 A 
ATOM     29  C   UNL     1      -0.107  10.045  20.189  0.00  0.00    +0.000 A 
ATOM     30 CL   UNL     1      -0.042  10.139  18.467  0.00  0.00    +0.000 Cl
BRANCH  27  31
ATOM     31  C   UNL     1      -1.750  12.134  22.924  0.00  0.00    +0.000 C 
ATOM     32  F   UNL     1      -0.972  13.002  23.629  0.00  0.00    +0.000 F 
ATOM     33  F   UNL     1      -2.483  12.898  22.070  0.00  0.00    +0.000 F 
ATOM     34  F   UNL     1      -2.634  11.615  23.819  0.00  0.00    +0.000 F 
ENDBRANCH  27  31
ENDBRANCH   5  24
TORSDOF 3
ENDMDL
MODEL 2
REMARK VINA RESULT:      -9.1      1.212      1.682
REMARK  Name = 
REMARK  4 active torsions:
REMARK  status: ('A' for Active; 'I' for Inactive)
REMARK    1  A    between atoms: C_1  and  C_2
REMARK    2  A    between atoms: C_2  and  C_3
REMARK    3  A    between atoms: C_7  and  C_9
REMARK    4  A    between atoms: C_12  and  C_13
REMARK                            x       y       z     vdW  Elec       q    Type
REMARK                         _______ _______ _______ _____ _____    ______ ____
ROOT
ATOM      1  C   UNL     1       3.187   4.649  18.433  0.00  0.00    +0.000 A 
ATOM      2  N   UNL     1       2.560   5.674  19.086  0.00  0.00    +0.000 NA
ATOM      3  C   UNL     1       2.777   6.964  18.751  0.00  0.00    +0.000 A 
ATOM      4  N   UNL     1       2.059   7.992  19.389  0.00  0.00    +0.000 N 
ATOM      5  C   UNL     1       1.059   7.763  20.327  0.00  0.00    +0.000 C 
ATOM      6  O   UNL     1       0.680   6.665  20.701  0.00  0.00    +0.000 OA
ATOM      7  C   UNL     1       3.696   7.297  17.767  0.00  0.00    +0.000 A 
ATOM      8  C   UNL     1       4.318   6.267  17.061  0.00  0.00    +0.000 A 
ATOM      9  C   UNL     1       4.029   4.939  17.372  0.00  0.00    +0.000 A 
ATOM     10  F   UNL     1       4.571   3.977  16.618  0.00  0.00    +0.000 F 
ATOM     11  H   UNL     1       2.230   8.955  19.137  0.00  0.00    +0.000 HD
ENDROOT
BRANCH   1  13
ATOM     12  C   UNL     1       2.463   2.377  17.634  0.00  0.00    +0.000 C 
ATOM     13  C   UNL     1       2.863   3.206  18.888  0.00  0.00    +0.000 C 
ATOM     14  N   UNL     1       4.086   2.545  19.387  0.00  0.00    +0.000 NA
ATOM     15  C   UNL     1       4.205   2.183  20.602  0.00  0.00    +0.000 C 
ATOM     16  N   UNL     1       5.298   1.536  21.054  0.00  0.00    +0.000 N 
ATOM     17  O   UNL     1       3.326   2.381  21.594  0.00  0.00    +0.000 OA
ATOM     18  C   UNL     1       2.070   3.023  21.330  0.00  0.00    +0.000 C 
ATOM     19  C   UNL     1       1.668   3.094  19.871  0.00  0.00    +0.000 C 
ATOM     20  F   UNL     1       0.955   1.948  19.626  0.00  0.00    +0.000 F 
ATOM     21  F   UNL     1       0.771   4.102  19.690  0.00  0.00    +0.000 F 
ATOM     22  H   UNL     1       6.105   1.631  20.452  0.00  0.00    +0.000 HD
ATOM     23  H   UNL     1       5.473   1.619  22.045  0.00  0.00    +0.000 HD
ENDBRANCH   1  13
BRANCH   5  24
ATOM     24  C   UNL     1       0.421   8.998  20.918  0.00  0.00    +0.000 A 
ATOM     25  N   UNL     1       0.250   8.958  22.279  0.00  0.00    +0.000 NA
ATOM     26  C   UNL     1      -0.375  10.018  22.854  0.00  0.00    +0.000 A 
ATOM     27  C   UNL     1      -0.841  11.128  22.161  0.00  0.00    +0.000 A 
ATOM     28  C   UNL     1      -0.637  11.155  20.779  0.00  0.00    +0.000 A 
ATOM     29  C   UNL     1       0.001  10.086  20.137  0.00  0.00    +0.000 A 
ATOM     30 CL   UNL     1       0.160  10.231  18.425  0.00  0.00    +0.000 Cl
BRANCH  27  31
ATOM     31  C   UNL     1      -1.551  12.242  22.873  0.00  0.00    +0.000 C 
ATOM     32  F   UNL     1      -2.341  12.987  22.052  0.00  0.00    +0.000 F 
ATOM     33  F   UNL     1      -2.363  11.792  23.868  0.00  0.00    +0.000 F 
ATOM     34  F   UNL     1      -0.690  13.118  23.458  0.00  0.00    +0.000 F 
ENDBRANCH  27  31
ENDBRANCH   5  24
TORSDOF 3
ENDMDL
MODEL 3
REMARK VINA RESULT:      -9.0      3.001      9.508
REMARK  Name = 
REMARK  4 active torsions:
REMARK  status: ('A' for Active; 'I' for Inactive)
REMARK    1  A    between atoms: C_1  and  C_2
REMARK    2  A    between atoms: C_2  and  C_3
REMARK    3  A    between atoms: C_7  and  C_9
REMARK    4  A    between atoms: C_12  and  C_13
REMARK                            x       y       z     vdW  Elec       q    Type
REMARK                         _______ _______ _______ _____ _____    ______ ____
ROOT
ATOM      1  C   UNL     1       0.087  10.559  20.444  0.00  0.00    +0.000 A 
ATOM      2  N   UNL     1       0.949   9.726  19.785  0.00  0.00    +0.000 NA
ATOM      3  C   UNL     1       1.368   8.565  20.331  0.00  0.00    +0.000 A 
ATOM      4  N   UNL     1       2.193   7.694  19.596  0.00  0.00    +0.000 N 
ATOM      5  C   UNL     1       2.568   7.920  18.277  0.00  0.00    +0.000 C 
ATOM      6  O   UNL     1       2.228   8.877  17.601  0.00  0.00    +0.000 OA
ATOM      7  C   UNL     1       0.984   8.204  21.614  0.00  0.00    +0.000 A 
ATOM      8  C   UNL     1       0.075   9.019  22.291  0.00  0.00    +0.000 A 
ATOM      9  C   UNL     1      -0.404  10.178  21.683  0.00  0.00    +0.000 A 
ATOM     10  F   UNL     1      -1.342  10.888  22.318  0.00  0.00    +0.000 F 
ATOM     11  H   UNL     1       2.507   6.829  20.014  0.00  0.00    +0.000 HD
ENDROOT
BRANCH   1  13
ATOM     12  C   UNL     1       0.350  11.900  18.333  0.00  0.00    +0.000 C 
ATOM     13  C   UNL     1      -0.340  11.861  19.728  0.00  0.00    +0.000 C 
ATOM     14  N   UNL     1      -1.783  11.823  19.420  0.00  0.00    +0.000 NA
ATOM     15  C   UNL     1      -2.605  12.640  19.947  0.00  0.00    +0.000 C 
ATOM     16  N   UNL     1      -3.916  12.642  19.635  0.00  0.00    +0.000 N 
ATOM     17  O   UNL     1      -2.334  13.579  20.866  0.00  0.00    +0.000 OA
ATOM     18  C   UNL     1      -0.988  13.778  21.320  0.00  0.00    +0.000 C 
ATOM     19  C   UNL     1       0.092  13.164  20.452  0.00  0.00    +0.000 C 
ATOM     20  F   UNL     1       0.425  14.131  19.536  0.00  0.00    +0.000 F 
ATOM     21  F   UNL     1       1.223  12.982  21.186  0.00  0.00    +0.000 F 
ATOM     22  H   UNL     1      -4.232  11.784  19.202  0.00  0.00    +0.000 HD
ATOM     23  H   UNL     1      -4.529  13.037  20.334  0.00  0.00    +0.000 HD
ENDBRANCH   1  13
BRANCH   5  24
ATOM     24  C   UNL     1       3.478   6.880  17.668  0.00  0.00    +0.000 A 
ATOM     25  N   UNL     1       4.610   7.385  17.080  0.00  0.00    +0.000 NA
ATOM     26  C   UNL     1       5.434   6.498  16.463  0.00  0.00    +0.000 A 
ATOM     27  C   UNL     1       5.208   5.129  16.396  0.00  0.00    +0.000 A 
ATOM     28  C   UNL     1       4.059   4.637  17.019  0.00  0.00    +0.000 A 
ATOM     29  C   UNL     1       3.176   5.509  17.668  0.00  0.00    +0.000 A 
ATOM     30 CL   UNL     1       1.780   4.775  18.368  0.00  0.00    +0.000 Cl
BRANCH  27  31
ATOM     31  C   UNL     1       6.156   4.225  15.664  0.00  0.00    +0.000 C 
ATOM     32  F   UNL     1       5.840   2.906  15.785  0.00  0.00    +0.000 F 
ATOM     33  F   UNL     1       6.196   4.480  14.329  0.00  0.00    +0.000 F 
ATOM     34  F   UNL     1       7.436   4.343  16.109  0.00  0.00    +0.000 F 
ENDBRANCH  27  31
ENDBRANCH   5  24
TORSDOF 3
ENDMDL
MODEL 4
REMARK VINA RESULT:      -9.0      2.099      3.379
REMARK  Name = 
REMARK  4 active torsions:
REMARK  status: ('A' for Active; 'I' for Inactive)
REMARK    1  A    between atoms: C_1  and  C_2
REMARK    2  A    between atoms: C_2  and  C_3
REMARK    3  A    between atoms: C_7  and  C_9
REMARK    4  A    between atoms: C_12  and  C_13
REMARK                            x       y       z     vdW  Elec       q    Type
REMARK                         _______ _______ _______ _____ _____    ______ ____
ROOT
ATOM      1  C   UNL     1       3.561   5.455  19.077  0.00  0.00    +0.000 A 
ATOM      2  N   UNL     1       2.745   6.469  19.498  0.00  0.00    +0.000 NA
ATOM      3  C   UNL     1       1.824   6.280  20.467  0.00  0.00    +0.000 A 
ATOM      4  N   UNL     1       1.054   7.362  20.934  0.00  0.00    +0.000 N 
ATOM      5  C   UNL     1       1.225   8.671  20.499  0.00  0.00    +0.000 C 
ATOM      6  O   UNL     1       2.053   9.040  19.682  0.00  0.00    +0.000 OA
ATOM      7  C   UNL     1       1.631   5.027  21.028  0.00  0.00    +0.000 A 
ATOM      8  C   UNL     1       2.477   3.986  20.642  0.00  0.00    +0.000 A 
ATOM      9  C   UNL     1       3.470   4.216  19.691  0.00  0.00    +0.000 A 
ATOM     10  F   UNL     1       4.322   3.225  19.409  0.00  0.00    +0.000 F 
ATOM     11  H   UNL     1       0.363   7.211  21.655  0.00  0.00    +0.000 HD
ENDROOT
BRANCH   1  13
ATOM     12  C   UNL     1       4.298   7.209  17.433  0.00  0.00    +0.000 C 
ATOM     13  C   UNL     1       4.588   5.777  17.967  0.00  0.00    +0.000 C 
ATOM     14  N   UNL     1       5.945   5.870  18.542  0.00  0.00    +0.000 NA
ATOM     15  C   UNL     1       6.867   5.052  18.224  0.00  0.00    +0.000 C 
ATOM     16  N   UNL     1       8.120   5.159  18.708  0.00  0.00    +0.000 N 
ATOM     17  O   UNL     1       6.761   3.989  17.413  0.00  0.00    +0.000 OA
ATOM     18  C   UNL     1       5.518   3.704  16.755  0.00  0.00    +0.000 C 
ATOM     19  C   UNL     1       4.516   4.840  16.732  0.00  0.00    +0.000 C 
ATOM     20  F   UNL     1       4.780   5.543  15.583  0.00  0.00    +0.000 F 
ATOM     21  F   UNL     1       3.262   4.343  16.549  0.00  0.00    +0.000 F 
ATOM     22  H   UNL     1       8.187   5.730  19.541  0.00  0.00    +0.000 HD
ATOM     23  H   UNL     1       8.660   4.306  18.712  0.00  0.00    +0.000 HD
ENDBRANCH   1  13
BRANCH   5  24
ATOM     24  C   UNL     1       0.285   9.688  21.100  0.00  0.00    +0.000 A 
ATOM     25  N   UNL     1       0.127   9.589  22.459  0.00  0.00    +0.000 NA
ATOM     26  C   UNL     1      -0.755  10.441  23.042  0.00  0.00    +0.000 A 
ATOM     27  C   UNL     1      -1.494  11.398  22.360  0.00  0.00    +0.000 A 
ATOM     28  C   UNL     1      -1.301  11.494  20.980  0.00  0.00    +0.000 A 
ATOM     29  C   UNL     1      -0.404  10.638  20.329  0.00  0.00    +0.000 A 
ATOM     30 CL   UNL     1      -0.284  10.840  18.619  0.00  0.00    +0.000 Cl
BRANCH  27  31
ATOM     31  C   UNL     1      -2.472  12.279  23.081  0.00  0.00    +0.000 C 
ATOM     32  F   UNL     1      -3.377  12.867  22.251  0.00  0.00    +0.000 F 
ATOM     33  F   UNL     1      -3.199  11.601  24.009  0.00  0.00    +0.000 F 
ATOM     34  F   UNL     1      -1.863  13.296  23.749  0.00  0.00    +0.000 F 
ENDBRANCH  27  31
ENDBRANCH   5  24
TORSDOF 3
ENDMDL
MODEL 5
REMARK VINA RESULT:      -9.0      3.076      9.426
REMARK  Name = 
REMARK  4 active torsions:
REMARK  status: ('A' for Active; 'I' for Inactive)
REMARK    1  A    between atoms: C_1  and  C_2
REMARK    2  A    between atoms: C_2  and  C_3
REMARK    3  A    between atoms: C_7  and  C_9
REMARK    4  A    between atoms: C_12  and  C_13
REMARK                            x       y       z     vdW  Elec       q    Type
REMARK                         _______ _______ _______ _____ _____    ______ ____
ROOT
ATOM      1  C   UNL     1      -0.290  10.490  20.243  0.00  0.00    +0.000 A 
ATOM      2  N   UNL     1       0.625   9.671  19.642  0.00  0.00    +0.000 NA
ATOM      3  C   UNL     1       1.345   8.774  20.350  0.00  0.00    +0.000 A 
ATOM      4  N   UNL     1       2.222   7.892  19.691  0.00  0.00    +0.000 N 
ATOM      5  C   UNL     1       2.357   7.832  18.309  0.00  0.00    +0.000 C 
ATOM      6  O   UNL     1       1.739   8.515  17.509  0.00  0.00    +0.000 OA
ATOM      7  C   UNL     1       1.223   8.696  21.728  0.00  0.00    +0.000 A 
ATOM      8  C   UNL     1       0.268   9.494  22.359  0.00  0.00    +0.000 A 
ATOM      9  C   UNL     1      -0.518  10.364  21.604  0.00  0.00    +0.000 A 
ATOM     10  F   UNL     1      -1.485  11.047  22.225  0.00  0.00    +0.000 F 
ATOM     11  H   UNL     1       2.762   7.228  20.228  0.00  0.00    +0.000 HD
ENDROOT
BRANCH   1  13
ATOM     12  C   UNL     1      -1.169  10.862  17.917  0.00  0.00    +0.000 C 
ATOM     13  C   UNL     1      -1.069  11.477  19.343  0.00  0.00    +0.000 C 
ATOM     14  N   UNL     1      -2.471  11.579  19.795  0.00  0.00    +0.000 NA
ATOM     15  C   UNL     1      -2.952  12.667  20.251  0.00  0.00    +0.000 C 
ATOM     16  N   UNL     1      -4.243  12.781  20.621  0.00  0.00    +0.000 N 
ATOM     17  O   UNL     1      -2.297  13.820  20.449  0.00  0.00    +0.000 OA
ATOM     18  C   UNL     1      -0.913  13.936  20.089  0.00  0.00    +0.000 C 
ATOM     19  C   UNL     1      -0.387  12.859  19.162  0.00  0.00    +0.000 C 
ATOM     20  F   UNL     1      -0.594  13.331  17.891  0.00  0.00    +0.000 F 
ATOM     21  F   UNL     1       0.966  12.772  19.280  0.00  0.00    +0.000 F 
ATOM     22  H   UNL     1      -4.699  11.893  20.788  0.00  0.00    +0.000 HD
ATOM     23  H   UNL     1      -4.441  13.512  21.288  0.00  0.00    +0.000 HD
ENDBRANCH   1  13
BRANCH   5  24
ATOM     24  C   UNL     1       3.369   6.836  17.794  0.00  0.00    +0.000 A 
ATOM     25  N   UNL     1       4.489   7.397  17.232  0.00  0.00    +0.000 NA
ATOM     26  C   UNL     1       5.403   6.547  16.698  0.00  0.00    +0.000 A 
ATOM     27  C   UNL     1       5.281   5.163  16.688  0.00  0.00    +0.000 A 
ATOM     28  C   UNL     1       4.143   4.615  17.284  0.00  0.00    +0.000 A 
ATOM     29  C   UNL     1       3.168   5.448  17.848  0.00  0.00    +0.000 A 
ATOM     30 CL   UNL     1       1.797   4.645  18.522  0.00  0.00    +0.000 Cl
BRANCH  27  31
ATOM     31  C   UNL     1       6.327   4.300  16.046  0.00  0.00    +0.000 C 
ATOM     32  F   UNL     1       6.858   4.849  14.919  0.00  0.00    +0.000 F 
ATOM     33  F   UNL     1       7.377   4.049  16.872  0.00  0.00    +0.000 F 
ATOM     34  F   UNL     1       5.841   3.084  15.675  0.00  0.00    +0.000 F 
ENDBRANCH  27  31
ENDBRANCH   5  24
TORSDOF 3
ENDMDL
MODEL 6
REMARK VINA RESULT:      -8.7      2.015      3.612
REMARK  Name = 
REMARK  4 active torsions:
REMARK  status: ('A' for Active; 'I' for Inactive)
REMARK    1  A    between atoms: C_1  and  C_2
REMARK    2  A    between atoms: C_2  and  C_3
REMARK    3  A    between atoms: C_7  and  C_9
REMARK    4  A    between atoms: C_12  and  C_13
REMARK                            x       y       z     vdW  Elec       q    Type
REMARK                         _______ _______ _______ _____ _____    ______ ____
ROOT
ATOM      1  C   UNL     1       3.831   4.270  19.047  0.00  0.00    +0.000 A 
ATOM      2  N   UNL     1       3.098   5.367  19.408  0.00  0.00    +0.000 NA
ATOM      3  C   UNL     1       2.241   5.333  20.452  0.00  0.00    +0.000 A 
ATOM      4  N   UNL     1       1.560   6.500  20.846  0.00  0.00    +0.000 N 
ATOM      5  C   UNL     1       1.761   7.743  20.259  0.00  0.00    +0.000 C 
ATOM      6  O   UNL     1       2.543   7.977  19.352  0.00  0.00    +0.000 OA
ATOM      7  C   UNL     1       2.030   4.160  21.159  0.00  0.00    +0.000 A 
ATOM      8  C   UNL     1       2.796   3.039  20.834  0.00  0.00    +0.000 A 
ATOM      9  C   UNL     1       3.727   3.111  19.799  0.00  0.00    +0.000 A 
ATOM     10  F   UNL     1       4.508   2.050  19.572  0.00  0.00    +0.000 F 
ATOM     11  H   UNL     1       0.917   6.466  21.624  0.00  0.00    +0.000 HD
ENDROOT
BRANCH   1  13
ATOM     12  C   UNL     1       4.776   3.079  17.044  0.00  0.00    +0.000 C 
ATOM     13  C   UNL     1       4.790   4.415  17.842  0.00  0.00    +0.000 C 
ATOM     14  N   UNL     1       4.263   5.413  16.891  0.00  0.00    +0.000 NA
ATOM     15  C   UNL     1       4.878   6.502  16.649  0.00  0.00    +0.000 C 
ATOM     16  N   UNL     1       4.427   7.396  15.747  0.00  0.00    +0.000 N 
ATOM     17  O   UNL     1       6.006   6.937  17.227  0.00  0.00    +0.000 OA
ATOM     18  C   UNL     1       6.682   6.124  18.197  0.00  0.00    +0.000 C 
ATOM     19  C   UNL     1       6.272   4.666  18.226  0.00  0.00    +0.000 C 
ATOM     20  F   UNL     1       7.108   4.029  17.343  0.00  0.00    +0.000 F 
ATOM     21  F   UNL     1       6.578   4.126  19.437  0.00  0.00    +0.000 F 
ATOM     22  H   UNL     1       3.449   7.282  15.514  0.00  0.00    +0.000 HD
ATOM     23  H   UNL     1       4.741   8.346  15.883  0.00  0.00    +0.000 HD
ENDBRANCH   1  13
BRANCH   5  24
ATOM     24  C   UNL     1       0.916   8.869  20.805  0.00  0.00    +0.000 A 
ATOM     25  N   UNL     1       0.815   8.897  22.174  0.00  0.00    +0.000 NA
ATOM     26  C   UNL     1       0.017   9.853  22.715  0.00  0.00    +0.000 A 
ATOM     27  C   UNL     1      -0.690  10.797  21.981  0.00  0.00    +0.000 A 
ATOM     28  C   UNL     1      -0.556  10.761  20.591  0.00  0.00    +0.000 A 
ATOM     29  C   UNL     1       0.254   9.794  19.982  0.00  0.00    +0.000 A 
ATOM     30 CL   UNL     1       0.307   9.841  18.258  0.00  0.00    +0.000 Cl
BRANCH  27  31
ATOM     31  C   UNL     1      -1.576  11.799  22.661  0.00  0.00    +0.000 C 
ATOM     32  F   UNL     1      -0.884  12.799  23.272  0.00  0.00    +0.000 F 
ATOM     33  F   UNL     1      -2.432  12.409  21.798  0.00  0.00    +0.000 F 
ATOM     34  F   UNL     1      -2.352  11.237  23.627  0.00  0.00    +0.000 F 
ENDBRANCH  27  31
ENDBRANCH   5  24
TORSDOF 3
ENDMDL
MODEL 7
REMARK VINA RESULT:      -8.7      2.988      9.614
REMARK  Name = 
REMARK  4 active torsions:
REMARK  status: ('A' for Active; 'I' for Inactive)
REMARK    1  A    between atoms: C_1  and  C_2
REMARK    2  A    between atoms: C_2  and  C_3
REMARK    3  A    between atoms: C_7  and  C_9
REMARK    4  A    between atoms: C_12  and  C_13
REMARK                            x       y       z     vdW  Elec       q    Type
REMARK                         _______ _______ _______ _____ _____    ______ ____
ROOT
ATOM      1  C   UNL     1      -0.776  11.295  21.007  0.00  0.00    +0.000 A 
ATOM      2  N   UNL     1       0.078  10.389  20.442  0.00  0.00    +0.000 NA
ATOM      3  C   UNL     1       0.634   9.394  21.166  0.00  0.00    +0.000 A 
ATOM      4  N   UNL     1       1.447   8.431  20.540  0.00  0.00    +0.000 N 
ATOM      5  C   UNL     1       1.675   8.391  19.169  0.00  0.00    +0.000 C 
ATOM      6  O   UNL     1       1.202   9.165  18.353  0.00  0.00    +0.000 OA
ATOM      7  C   UNL     1       0.403   9.294  22.529  0.00  0.00    +0.000 A 
ATOM      8  C   UNL     1      -0.495  10.184  23.120  0.00  0.00    +0.000 A 
ATOM      9  C   UNL     1      -1.115  11.161  22.343  0.00  0.00    +0.000 A 
ATOM     10  F   UNL     1      -2.038  11.939  22.918  0.00  0.00    +0.000 F 
ATOM     11  H   UNL     1       1.864   7.692  21.089  0.00  0.00    +0.000 HD
ENDROOT
BRANCH   1  13
ATOM     12  C   UNL     1      -0.875  12.128  18.636  0.00  0.00    +0.000 C 
ATOM     13  C   UNL     1      -1.365  12.392  20.089  0.00  0.00    +0.000 C 
ATOM     14  N   UNL     1      -2.833  12.254  20.010  0.00  0.00    +0.000 NA
ATOM     15  C   UNL     1      -3.618  13.152  20.456  0.00  0.00    +0.000 C 
ATOM     16  N   UNL     1      -4.957  13.054  20.345  0.00  0.00    +0.000 N 
ATOM     17  O   UNL     1      -3.274  14.280  21.095  0.00  0.00    +0.000 OA
ATOM     18  C   UNL     1      -1.891  14.606  21.293  0.00  0.00    +0.000 C 
ATOM     19  C   UNL     1      -0.909  13.834  20.435  0.00  0.00    +0.000 C 
ATOM     20  F   UNL     1      -0.756  14.575  19.290  0.00  0.00    +0.000 F 
ATOM     21  F   UNL     1       0.320  13.848  21.020  0.00  0.00    +0.000 F 
ATOM     22  H   UNL     1      -5.284  12.114  20.163  0.00  0.00    +0.000 HD
ATOM     23  H   UNL     1      -5.489  13.584  21.020  0.00  0.00    +0.000 HD
ENDBRANCH   1  13
BRANCH   5  24
ATOM     24  C   UNL     1       2.597   7.295  18.691  0.00  0.00    +0.000 A 
ATOM     25  N   UNL     1       3.433   7.659  17.665  0.00  0.00    +0.000 NA
ATOM     26  C   UNL     1       4.241   6.693  17.156  0.00  0.00    +0.000 A 
ATOM     27  C   UNL     1       4.279   5.380  17.605  0.00  0.00    +0.000 A 
ATOM     28  C   UNL     1       3.434   5.039  18.664  0.00  0.00    +0.000 A 
ATOM     29  C   UNL     1       2.579   5.997  19.224  0.00  0.00    +0.000 A 
ATOM     30 CL   UNL     1       1.565   5.437  20.503  0.00  0.00    +0.000 Cl
BRANCH  27  31
ATOM     31  C   UNL     1       5.181   4.368  16.962  0.00  0.00    +0.000 C 
ATOM     32  F   UNL     1       6.399   4.275  17.564  0.00  0.00    +0.000 F 
ATOM     33  F   UNL     1       4.657   3.113  16.981  0.00  0.00    +0.000 F 
ATOM     34  F   UNL     1       5.432   4.651  15.655  0.00  0.00    +0.000 F 
ENDBRANCH  27  31
ENDBRANCH   5  24
TORSDOF 3
ENDMDL
MODEL 8
REMARK VINA RESULT:      -8.5      2.598      9.191
REMARK  Name = 
REMARK  4 active torsions:
REMARK  status: ('A' for Active; 'I' for Inactive)
REMARK    1  A    between atoms: C_1  and  C_2
REMARK    2  A    between atoms: C_2  and  C_3
REMARK    3  A    between atoms: C_7  and  C_9
REMARK    4  A    between atoms: C_12  and  C_13
REMARK                            x       y       z     vdW  Elec       q    Type
REMARK                         _______ _______ _______ _____ _____    ______ ____
ROOT
ATOM      1  C   UNL     1       0.083  11.601  21.457  0.00  0.00    +0.000 A 
ATOM      2  N   UNL     1       0.654  10.430  21.043  0.00  0.00    +0.000 NA
ATOM      3  C   UNL     1       0.455   9.272  21.709  0.00  0.00    +0.000 A 
ATOM      4  N   UNL     1       0.992   8.069  21.213  0.00  0.00    +0.000 N 
ATOM      5  C   UNL     1       1.682   7.973  20.011  0.00  0.00    +0.000 C 
ATOM      6  O   UNL     1       1.897   8.898  19.245  0.00  0.00    +0.000 OA
ATOM      7  C   UNL     1      -0.290   9.244  22.877  0.00  0.00    +0.000 A 
ATOM      8  C   UNL     1      -0.914  10.419  23.298  0.00  0.00    +0.000 A 
ATOM      9  C   UNL     1      -0.757  11.591  22.559  0.00  0.00    +0.000 A 
ATOM     10  F   UNL     1      -1.440  12.676  22.937  0.00  0.00    +0.000 F 
ATOM     11  H   UNL     1       0.844   7.207  21.720  0.00  0.00    +0.000 HD
ENDROOT
BRANCH   1  13
ATOM     12  C   UNL     1       0.707  14.034  21.597  0.00  0.00    +0.000 C 
ATOM     13  C   UNL     1       0.366  12.871  20.620  0.00  0.00    +0.000 C 
ATOM     14  N   UNL     1       1.597  12.691  19.825  0.00  0.00    +0.000 NA
ATOM     15  C   UNL     1       1.577  12.673  18.551  0.00  0.00    +0.000 C 
ATOM     16  N   UNL     1       2.701  12.556  17.818  0.00  0.00    +0.000 N 
ATOM     17  O   UNL     1       0.498  12.745  17.759  0.00  0.00    +0.000 OA
ATOM     18  C   UNL     1      -0.808  12.910  18.330  0.00  0.00    +0.000 C 
ATOM     19  C   UNL     1      -0.837  13.366  19.775  0.00  0.00    +0.000 C 
ATOM     20  F   UNL     1      -0.857  14.737  19.729  0.00  0.00    +0.000 F 
ATOM     21  F   UNL     1      -2.026  13.023  20.341  0.00  0.00    +0.000 F 
ATOM     22  H   UNL     1       3.490  12.193  18.336  0.00  0.00    +0.000 HD
ATOM     23  H   UNL     1       2.576  12.187  16.886  0.00  0.00    +0.000 HD
ENDBRANCH   1  13
BRANCH   5  24
ATOM     24  C   UNL     1       2.203   6.599  19.663  0.00  0.00    +0.000 A 
ATOM     25  N   UNL     1       1.797   5.601  20.513  0.00  0.00    +0.000 NA
ATOM     26  C   UNL     1       2.286   4.356  20.282  0.00  0.00    +0.000 A 
ATOM     27  C   UNL     1       3.156   4.030  19.248  0.00  0.00    +0.000 A 
ATOM     28  C   UNL     1       3.539   5.059  18.384  0.00  0.00    +0.000 A 
ATOM     29  C   UNL     1       3.064   6.362  18.580  0.00  0.00    +0.000 A 
ATOM     30 CL   UNL     1       3.639   7.543  17.461  0.00  0.00    +0.000 Cl
BRANCH  27  31
ATOM     31  C   UNL     1       3.674   2.632  19.085  0.00  0.00    +0.000 C 
ATOM     32  F   UNL     1       4.079   2.354  17.815  0.00  0.00    +0.000 F 
ATOM     33  F   UNL     1       4.743   2.374  19.884  0.00  0.00    +0.000 F 
ATOM     34  F   UNL     1       2.739   1.692  19.392  0.00  0.00    +0.000 F 
ENDBRANCH  27  31
ENDBRANCH   5  24
TORSDOF 3
ENDMDL
MODEL 9
REMARK VINA RESULT:      -8.5      2.633      9.348
REMARK  Name = 
REMARK  4 active torsions:
REMARK  status: ('A' for Active; 'I' for Inactive)
REMARK    1  A    between atoms: C_1  and  C_2
REMARK    2  A    between atoms: C_2  and  C_3
REMARK    3  A    between atoms: C_7  and  C_9
REMARK    4  A    between atoms: C_12  and  C_13
REMARK                            x       y       z     vdW  Elec       q    Type
REMARK                         _______ _______ _______ _____ _____    ______ ____
ROOT
ATOM      1  C   UNL     1      -0.122  11.277  21.522  0.00  0.00    +0.000 A 
ATOM      2  N   UNL     1       0.617  10.319  20.885  0.00  0.00    +0.000 NA
ATOM      3  C   UNL     1       0.810   9.097  21.428  0.00  0.00    +0.000 A 
ATOM      4  N   UNL     1       1.509   8.107  20.714  0.00  0.00    +0.000 N 
ATOM      5  C   UNL     1       1.977   8.281  19.416  0.00  0.00    +0.000 C 
ATOM      6  O   UNL     1       1.835   9.290  18.744  0.00  0.00    +0.000 OA
ATOM      7  C   UNL     1       0.312   8.793  22.686  0.00  0.00    +0.000 A 
ATOM      8  C   UNL     1      -0.478   9.742  23.337  0.00  0.00    +0.000 A 
ATOM      9  C   UNL     1      -0.726  10.972  22.731  0.00  0.00    +0.000 A 
ATOM     10  F   UNL     1      -1.560  11.823  23.338  0.00  0.00    +0.000 F 
ATOM     11  H   UNL     1       1.654   7.198  21.129  0.00  0.00    +0.000 HD
ENDROOT
BRANCH   1  13
ATOM     12  C   UNL     1      -0.206  13.764  21.885  0.00  0.00    +0.000 C 
ATOM     13  C   UNL     1      -0.290  12.641  20.811  0.00  0.00    +0.000 C 
ATOM     14  N   UNL     1       0.862  12.897  19.925  0.00  0.00    +0.000 NA
ATOM     15  C   UNL     1       0.732  12.983  18.660  0.00  0.00    +0.000 C 
ATOM     16  N   UNL     1       1.770  13.264  17.849  0.00  0.00    +0.000 N 
ATOM     17  O   UNL     1      -0.392  12.805  17.951  0.00  0.00    +0.000 OA
ATOM     18  C   UNL     1      -1.632  12.531  18.617  0.00  0.00    +0.000 C 
ATOM     19  C   UNL     1      -1.656  12.833  20.102  0.00  0.00    +0.000 C 
ATOM     20  F   UNL     1      -2.070  14.138  20.207  0.00  0.00    +0.000 F 
ATOM     21  F   UNL     1      -2.642  12.111  20.702  0.00  0.00    +0.000 F 
ATOM     22  H   UNL     1       2.674  13.103  18.274  0.00  0.00    +0.000 HD
ATOM     23  H   UNL     1       1.671  12.955  16.893  0.00  0.00    +0.000 HD
ENDBRANCH   1  13
BRANCH   5  24
ATOM     24  C   UNL     1       2.726   7.109  18.828  0.00  0.00    +0.000 A 
ATOM     25  N   UNL     1       3.584   7.433  17.808  0.00  0.00    +0.000 NA
ATOM     26  C   UNL     1       4.238   6.408  17.202  0.00  0.00    +0.000 A 
ATOM     27  C   UNL     1       4.100   5.071  17.550  0.00  0.00    +0.000 A 
ATOM     28  C   UNL     1       3.236   4.768  18.606  0.00  0.00    +0.000 A 
ATOM     29  C   UNL     1       2.537   5.788  19.263  0.00  0.00    +0.000 A 
ATOM     30 CL   UNL     1       1.479   5.275  20.526  0.00  0.00    +0.000 Cl
BRANCH  27  31
ATOM     31  C   UNL     1       4.838   3.998  16.805  0.00  0.00    +0.000 C 
ATOM     32  F   UNL     1       6.180   4.009  17.037  0.00  0.00    +0.000 F 
ATOM     33  F   UNL     1       4.412   2.748  17.130  0.00  0.00    +0.000 F 
ATOM     34  F   UNL     1       4.692   4.106  15.457  0.00  0.00    +0.000 F 
ENDBRANCH  27  31
ENDBRANCH   5  24
TORSDOF 3
ENDMDL
