MODEL 1
REMARK VINA RESULT:      -8.0      0.000      0.000
REMARK  Name = 
REMARK  12 active torsions:
REMARK  status: ('A' for Active; 'I' for Inactive)
REMARK    1  A    between atoms: C_1  and  O_2
REMARK    2  A    between atoms: O_2  and  C_3
REMARK    3  A    between atoms: C_6  and  N_7
REMARK    4  A    between atoms: C_8  and  C_10
REMARK    5  A    between atoms: C_10  and  O_11
REMARK    6  A    between atoms: O_11  and  C_12
REMARK    7  A    between atoms: C_15  and  N_16
REMARK    8  A    between atoms: N_16  and  C_17
REMARK    9  A    between atoms: N_16  and  S_18
REMARK   10  A    between atoms: S_18  and  C_21
REMARK   11  A    between atoms: C_31  and  O_32
REMARK   12  A    between atoms: O_32  and  C_33
REMARK                            x       y       z     vdW  Elec       q    Type
REMARK                         _______ _______ _______ _____ _____    ______ ____
ROOT
ATOM      1  C   UNL     1       6.762   5.671  17.675  0.00  0.00    +0.000 A 
ATOM      2  C   UNL     1       6.379   5.300  18.971  0.00  0.00    +0.000 A 
ATOM      3  C   UNL     1       5.399   4.321  19.167  0.00  0.00    +0.000 A 
ATOM      4  C   UNL     1       4.768   3.749  18.068  0.00  0.00    +0.000 A 
ATOM      5  C   UNL     1       5.144   4.120  16.774  0.00  0.00    +0.000 A 
ATOM      6  C   UNL     1       6.139   5.083  16.577  0.00  0.00    +0.000 A 
ENDROOT
BRANCH   4   7
ATOM      7  N   UNL     1       3.721   2.795  18.223  0.00  0.00    +0.000 N 
ATOM      8  C   UNL     1       4.001   1.517  18.875  0.00  0.00    +0.000 C 
BRANCH   7   9
ATOM      9  S   UNL     1       2.115   3.309  18.036  0.00  0.00    +0.000 S 
ATOM     10  O   UNL     1       1.848   3.606  16.647  0.00  0.00    +0.000 OA
ATOM     11  O   UNL     1       1.275   2.375  18.765  0.00  0.00    +0.000 OA
BRANCH   9  12
ATOM     12  C   UNL     1       2.032   4.853  18.933  0.00  0.00    +0.000 A 
ATOM     13  C   UNL     1       2.294   6.063  18.285  0.00  0.00    +0.000 A 
ATOM     14  C   UNL     1       2.178   7.265  18.993  0.00  0.00    +0.000 A 
ATOM     15  C   UNL     1       1.782   7.253  20.331  0.00  0.00    +0.000 A 
ATOM     16 CL   UNL     1       1.659   8.730  21.204  0.00  0.00    +0.000 Cl
ATOM     17  C   UNL     1       1.476   6.049  20.966  0.00  0.00    +0.000 A 
ATOM     18  C   UNL     1       1.589   4.848  20.264  0.00  0.00    +0.000 A 
ENDBRANCH   9  12
ENDBRANCH   7   9
ENDBRANCH   4   7
BRANCH   1  19
ATOM     19  O   UNL     1       7.733   6.597  17.386  0.00  0.00    +0.000 OA
BRANCH  19  20
ATOM     20  C   UNL     1       8.241   7.268  18.533  0.00  0.00    +0.000 C 
BRANCH  20  22
ATOM     21  N   UNL     1       9.276   9.385  19.164  0.00  0.00    +0.000 N 
ATOM     22  C   UNL     1       8.335   8.774  18.356  0.00  0.00    +0.000 C 
ATOM     23  O   UNL     1       7.620   9.328  17.525  0.00  0.00    +0.000 OA
ATOM     24  H   UNL     1       9.685   8.810  19.895  0.00  0.00    +0.000 HD
BRANCH  21  28
ATOM     25  C   UNL     1      10.047  13.552  19.266  0.00  0.00    +0.000 A 
ATOM     26  C   UNL     1      10.302  12.810  18.106  0.00  0.00    +0.000 A 
ATOM     27  C   UNL     1      10.050  11.440  18.055  0.00  0.00    +0.000 A 
ATOM     28  C   UNL     1       9.575  10.763  19.171  0.00  0.00    +0.000 A 
ATOM     29  C   UNL     1       9.389  11.482  20.355  0.00  0.00    +0.000 A 
ATOM     30  C   UNL     1       9.608  12.870  20.415  0.00  0.00    +0.000 A 
BRANCH  25  32
ATOM     31  C   UNL     1       9.108  15.693  18.925  0.00  0.00    +0.000 C 
ATOM     32  O   UNL     1      10.246  14.909  19.289  0.00  0.00    +0.000 OA
ENDBRANCH  25  32
BRANCH  30  33
ATOM     33  O   UNL     1       9.312  13.373  21.655  0.00  0.00    +0.000 OA
ATOM     34  C   UNL     1       7.957  13.493  22.050  0.00  0.00    +0.000 C 
ENDBRANCH  30  33
ENDBRANCH  21  28
ENDBRANCH  20  22
ENDBRANCH  19  20
ENDBRANCH   1  19
TORSDOF 9
ENDMDL
MODEL 2
REMARK VINA RESULT:      -7.6      6.409      9.047
REMARK  Name = 
REMARK  12 active torsions:
REMARK  status: ('A' for Active; 'I' for Inactive)
REMARK    1  A    between atoms: C_1  and  O_2
REMARK    2  A    between atoms: O_2  and  C_3
REMARK    3  A    between atoms: C_6  and  N_7
REMARK    4  A    between atoms: C_8  and  C_10
REMARK    5  A    between atoms: C_10  and  O_11
REMARK    6  A    between atoms: O_11  and  C_12
REMARK    7  A    between atoms: C_15  and  N_16
REMARK    8  A    between atoms: N_16  and  C_17
REMARK    9  A    between atoms: N_16  and  S_18
REMARK   10  A    between atoms: S_18  and  C_21
REMARK   11  A    between atoms: C_31  and  O_32
REMARK   12  A    between atoms: O_32  and  C_33
REMARK                            x       y       z     vdW  Elec       q    Type
REMARK                         _______ _______ _______ _____ _____    ______ ____
ROOT
ATOM      1  C   UNL     1       1.795   8.752  19.207  0.00  0.00    +0.000 A 
ATOM      2  C   UNL     1       1.662   7.840  20.262  0.00  0.00    +0.000 A 
ATOM      3  C   UNL     1       2.157   6.537  20.139  0.00  0.00    +0.000 A 
ATOM      4  C   UNL     1       2.739   6.132  18.943  0.00  0.00    +0.000 A 
ATOM      5  C   UNL     1       2.869   7.038  17.886  0.00  0.00    +0.000 A 
ATOM      6  C   UNL     1       2.394   8.347  18.017  0.00  0.00    +0.000 A 
ENDROOT
BRANCH   4   7
ATOM      7  N   UNL     1       3.198   4.797  18.752  0.00  0.00    +0.000 N 
ATOM      8  C   UNL     1       2.354   3.840  18.038  0.00  0.00    +0.000 C 
BRANCH   7   9
ATOM      9  S   UNL     1       4.846   4.460  18.977  0.00  0.00    +0.000 S 
ATOM     10  O   UNL     1       5.443   5.458  19.835  0.00  0.00    +0.000 OA
ATOM     11  O   UNL     1       4.958   3.049  19.297  0.00  0.00    +0.000 OA
BRANCH   9  12
ATOM     12  C   UNL     1       5.567   4.658  17.353  0.00  0.00    +0.000 A 
ATOM     13  C   UNL     1       6.582   5.595  17.139  0.00  0.00    +0.000 A 
ATOM     14  C   UNL     1       7.167   5.702  15.872  0.00  0.00    +0.000 A 
ATOM     15  C   UNL     1       6.754   4.861  14.838  0.00  0.00    +0.000 A 
ATOM     16 CL   UNL     1       7.462   5.008  13.277  0.00  0.00    +0.000 Cl
ATOM     17  C   UNL     1       5.774   3.894  15.063  0.00  0.00    +0.000 A 
ATOM     18  C   UNL     1       5.188   3.782  16.324  0.00  0.00    +0.000 A 
ENDBRANCH   9  12
ENDBRANCH   7   9
ENDBRANCH   4   7
BRANCH   1  19
ATOM     19  O   UNL     1       1.369  10.056  19.248  0.00  0.00    +0.000 OA
BRANCH  19  20
ATOM     20  C   UNL     1       0.017  10.203  19.667  0.00  0.00    +0.000 C 
BRANCH  20  22
ATOM     21  N   UNL     1      -1.325  11.687  21.062  0.00  0.00    +0.000 N 
ATOM     22  C   UNL     1      -0.132  10.997  20.954  0.00  0.00    +0.000 C 
ATOM     23  O   UNL     1       0.766  10.959  21.791  0.00  0.00    +0.000 OA
ATOM     24  H   UNL     1      -1.899  11.730  20.225  0.00  0.00    +0.000 HD
BRANCH  21  28
ATOM     25  C   UNL     1      -2.645  14.038  24.332  0.00  0.00    +0.000 A 
ATOM     26  C   UNL     1      -1.462  14.362  23.656  0.00  0.00    +0.000 A 
ATOM     27  C   UNL     1      -1.018  13.601  22.576  0.00  0.00    +0.000 A 
ATOM     28  C   UNL     1      -1.716  12.473  22.165  0.00  0.00    +0.000 A 
ATOM     29  C   UNL     1      -2.857  12.101  22.881  0.00  0.00    +0.000 A 
ATOM     30  C   UNL     1      -3.337  12.874  23.954  0.00  0.00    +0.000 A 
BRANCH  25  32
ATOM     31  C   UNL     1      -2.395  16.051  25.545  0.00  0.00    +0.000 C 
ATOM     32  O   UNL     1      -3.105  14.824  25.358  0.00  0.00    +0.000 OA
ENDBRANCH  25  32
BRANCH  30  33
ATOM     33  O   UNL     1      -4.494  12.351  24.472  0.00  0.00    +0.000 OA
ATOM     34  C   UNL     1      -5.742  12.829  24.004  0.00  0.00    +0.000 C 
ENDBRANCH  30  33
ENDBRANCH  21  28
ENDBRANCH  20  22
ENDBRANCH  19  20
ENDBRANCH   1  19
TORSDOF 9
ENDMDL
MODEL 3
REMARK VINA RESULT:      -7.6      1.813      2.602
REMARK  Name = 
REMARK  12 active torsions:
REMARK  status: ('A' for Active; 'I' for Inactive)
REMARK    1  A    between atoms: C_1  and  O_2
REMARK    2  A    between atoms: O_2  and  C_3
REMARK    3  A    between atoms: C_6  and  N_7
REMARK    4  A    between atoms: C_8  and  C_10
REMARK    5  A    between atoms: C_10  and  O_11
REMARK    6  A    between atoms: O_11  and  C_12
REMARK    7  A    between atoms: C_15  and  N_16
REMARK    8  A    between atoms: N_16  and  C_17
REMARK    9  A    between atoms: N_16  and  S_18
REMARK   10  A    between atoms: S_18  and  C_21
REMARK   11  A    between atoms: C_31  and  O_32
REMARK   12  A    between atoms: O_32  and  C_33
REMARK                            x       y       z     vdW  Elec       q    Type
REMARK                         _______ _______ _______ _____ _____    ______ ____
ROOT
ATOM      1  C   UNL     1       8.032   7.305  18.413  0.00  0.00    +0.000 A 
ATOM      2  C   UNL     1       7.934   6.102  19.124  0.00  0.00    +0.000 A 
ATOM      3  C   UNL     1       7.078   5.086  18.684  0.00  0.00    +0.000 A 
ATOM      4  C   UNL     1       6.282   5.295  17.563  0.00  0.00    +0.000 A 
ATOM      5  C   UNL     1       6.373   6.496  16.854  0.00  0.00    +0.000 A 
ATOM      6  C   UNL     1       7.245   7.503  17.281  0.00  0.00    +0.000 A 
ENDROOT
BRANCH   4   7
ATOM      7  N   UNL     1       5.350   4.313  17.118  0.00  0.00    +0.000 N 
ATOM      8  C   UNL     1       5.610   3.583  15.878  0.00  0.00    +0.000 C 
BRANCH   7   9
ATOM      9  S   UNL     1       4.200   3.722  18.216  0.00  0.00    +0.000 S 
ATOM     10  O   UNL     1       3.271   2.848  17.538  0.00  0.00    +0.000 OA
ATOM     11  O   UNL     1       4.920   3.265  19.391  0.00  0.00    +0.000 OA
BRANCH   9  12
ATOM     12  C   UNL     1       3.287   5.171  18.729  0.00  0.00    +0.000 A 
ATOM     13  C   UNL     1       2.755   5.253  20.018  0.00  0.00    +0.000 A 
ATOM     14  C   UNL     1       2.083   6.414  20.416  0.00  0.00    +0.000 A 
ATOM     15  C   UNL     1       1.967   7.492  19.536  0.00  0.00    +0.000 A 
ATOM     16 CL   UNL     1       1.125   8.911  20.022  0.00  0.00    +0.000 Cl
ATOM     17  C   UNL     1       2.538   7.429  18.265  0.00  0.00    +0.000 A 
ATOM     18  C   UNL     1       3.209   6.273  17.863  0.00  0.00    +0.000 A 
ENDBRANCH   9  12
ENDBRANCH   7   9
ENDBRANCH   4   7
BRANCH   1  19
ATOM     19  O   UNL     1       8.864   8.342  18.750  0.00  0.00    +0.000 OA
BRANCH  19  20
ATOM     20  C   UNL     1       8.458   9.598  18.218  0.00  0.00    +0.000 C 
BRANCH  20  22
ATOM     21  N   UNL     1       9.249  11.869  17.813  0.00  0.00    +0.000 N 
ATOM     22  C   UNL     1       9.380  10.742  18.602  0.00  0.00    +0.000 C 
ATOM     23  O   UNL     1      10.134  10.610  19.564  0.00  0.00    +0.000 OA
ATOM     24  H   UNL     1       8.685  11.769  16.973  0.00  0.00    +0.000 HD
BRANCH  21  28
ATOM     25  C   UNL     1      11.277  15.555  18.327  0.00  0.00    +0.000 A 
ATOM     26  C   UNL     1      11.736  14.616  17.395  0.00  0.00    +0.000 A 
ATOM     27  C   UNL     1      11.077  13.401  17.211  0.00  0.00    +0.000 A 
ATOM     28  C   UNL     1       9.967  13.071  17.979  0.00  0.00    +0.000 A 
ATOM     29  C   UNL     1       9.548  13.971  18.962  0.00  0.00    +0.000 A 
ATOM     30  C   UNL     1      10.181  15.215  19.140  0.00  0.00    +0.000 A 
BRANCH  25  32
ATOM     31  C   UNL     1      11.516  17.755  17.498  0.00  0.00    +0.000 C 
ATOM     32  O   UNL     1      11.897  16.771  18.462  0.00  0.00    +0.000 OA
ENDBRANCH  25  32
BRANCH  30  33
ATOM     33  O   UNL     1       9.571  15.954  20.120  0.00  0.00    +0.000 OA
ATOM     34  C   UNL     1       8.167  16.130  20.084  0.00  0.00    +0.000 C 
ENDBRANCH  30  33
ENDBRANCH  21  28
ENDBRANCH  20  22
ENDBRANCH  19  20
ENDBRANCH   1  19
TORSDOF 9
ENDMDL
MODEL 4
REMARK VINA RESULT:      -7.6      5.833      8.428
REMARK  Name = 
REMARK  12 active torsions:
REMARK  status: ('A' for Active; 'I' for Inactive)
REMARK    1  A    between atoms: C_1  and  O_2
REMARK    2  A    between atoms: O_2  and  C_3
REMARK    3  A    between atoms: C_6  and  N_7
REMARK    4  A    between atoms: C_8  and  C_10
REMARK    5  A    between atoms: C_10  and  O_11
REMARK    6  A    between atoms: O_11  and  C_12
REMARK    7  A    between atoms: C_15  and  N_16
REMARK    8  A    between atoms: N_16  and  C_17
REMARK    9  A    between atoms: N_16  and  S_18
REMARK   10  A    between atoms: S_18  and  C_21
REMARK   11  A    between atoms: C_31  and  O_32
REMARK   12  A    between atoms: O_32  and  C_33
REMARK                            x       y       z     vdW  Elec       q    Type
REMARK                         _______ _______ _______ _____ _____    ______ ____
ROOT
ATOM      1  C   UNL     1       1.902   7.297  19.684  0.00  0.00    +0.000 A 
ATOM      2  C   UNL     1       2.110   6.794  18.393  0.00  0.00    +0.000 A 
ATOM      3  C   UNL     1       2.168   5.414  18.171  0.00  0.00    +0.000 A 
ATOM      4  C   UNL     1       2.068   4.539  19.247  0.00  0.00    +0.000 A 
ATOM      5  C   UNL     1       1.866   5.037  20.537  0.00  0.00    +0.000 A 
ATOM      6  C   UNL     1       1.787   6.416  20.757  0.00  0.00    +0.000 A 
ENDROOT
BRANCH   4   7
ATOM      7  N   UNL     1       2.186   3.129  19.075  0.00  0.00    +0.000 N 
ATOM      8  C   UNL     1       1.069   2.377  18.506  0.00  0.00    +0.000 C 
BRANCH   7   9
ATOM      9  S   UNL     1       3.729   2.426  19.135  0.00  0.00    +0.000 S 
ATOM     10  O   UNL     1       4.098   2.158  20.506  0.00  0.00    +0.000 OA
ATOM     11  O   UNL     1       3.760   1.367  18.143  0.00  0.00    +0.000 OA
BRANCH   9  12
ATOM     12  C   UNL     1       4.826   3.702  18.531  0.00  0.00    +0.000 A 
ATOM     13  C   UNL     1       4.972   3.916  17.157  0.00  0.00    +0.000 A 
ATOM     14  C   UNL     1       5.799   4.951  16.704  0.00  0.00    +0.000 A 
ATOM     15  C   UNL     1       6.454   5.775  17.621  0.00  0.00    +0.000 A 
ATOM     16 CL   UNL     1       7.484   7.034  17.062  0.00  0.00    +0.000 Cl
ATOM     17  C   UNL     1       6.272   5.591  18.992  0.00  0.00    +0.000 A 
ATOM     18  C   UNL     1       5.447   4.561  19.449  0.00  0.00    +0.000 A 
ENDBRANCH   9  12
ENDBRANCH   7   9
ENDBRANCH   4   7
BRANCH   1  19
ATOM     19  O   UNL     1       1.800   8.630  19.993  0.00  0.00    +0.000 OA
BRANCH  19  20
ATOM     20  C   UNL     1       1.137   8.881  21.227  0.00  0.00    +0.000 C 
BRANCH  20  22
ATOM     21  N   UNL     1       0.009  10.757  22.303  0.00  0.00    +0.000 N 
ATOM     22  C   UNL     1       0.123  10.010  21.145  0.00  0.00    +0.000 C 
ATOM     23  O   UNL     1      -0.487  10.197  20.095  0.00  0.00    +0.000 OA
ATOM     24  H   UNL     1       0.477  10.388  23.126  0.00  0.00    +0.000 HD
BRANCH  21  28
ATOM     25  C   UNL     1      -2.651  14.025  22.762  0.00  0.00    +0.000 A 
ATOM     26  C   UNL     1      -1.332  14.236  22.339  0.00  0.00    +0.000 A 
ATOM     27  C   UNL     1      -0.448  13.171  22.179  0.00  0.00    +0.000 A 
ATOM     28  C   UNL     1      -0.838  11.871  22.476  0.00  0.00    +0.000 A 
ATOM     29  C   UNL     1      -2.128  11.661  22.969  0.00  0.00    +0.000 A 
ATOM     30  C   UNL     1      -3.044  12.720  23.107  0.00  0.00    +0.000 A 
BRANCH  25  32
ATOM     31  C   UNL     1      -4.283  15.346  21.680  0.00  0.00    +0.000 C 
ATOM     32  O   UNL     1      -3.531  15.072  22.864  0.00  0.00    +0.000 OA
ENDBRANCH  25  32
BRANCH  30  33
ATOM     33  O   UNL     1      -4.261  12.276  23.556  0.00  0.00    +0.000 OA
ATOM     34  C   UNL     1      -4.587  12.412  24.928  0.00  0.00    +0.000 C 
ENDBRANCH  30  33
ENDBRANCH  21  28
ENDBRANCH  20  22
ENDBRANCH  19  20
ENDBRANCH   1  19
TORSDOF 9
ENDMDL
MODEL 5
REMARK VINA RESULT:      -7.6      5.379      8.751
REMARK  Name = 
REMARK  12 active torsions:
REMARK  status: ('A' for Active; 'I' for Inactive)
REMARK    1  A    between atoms: C_1  and  O_2
REMARK    2  A    between atoms: O_2  and  C_3
REMARK    3  A    between atoms: C_6  and  N_7
REMARK    4  A    between atoms: C_8  and  C_10
REMARK    5  A    between atoms: C_10  and  O_11
REMARK    6  A    between atoms: O_11  and  C_12
REMARK    7  A    between atoms: C_15  and  N_16
REMARK    8  A    between atoms: N_16  and  C_17
REMARK    9  A    between atoms: N_16  and  S_18
REMARK   10  A    between atoms: S_18  and  C_21
REMARK   11  A    between atoms: C_31  and  O_32
REMARK   12  A    between atoms: O_32  and  C_33
REMARK                            x       y       z     vdW  Elec       q    Type
REMARK                         _______ _______ _______ _____ _____    ______ ____
ROOT
ATOM      1  C   UNL     1       1.844   7.420  19.530  0.00  0.00    +0.000 A 
ATOM      2  C   UNL     1       1.950   6.822  18.268  0.00  0.00    +0.000 A 
ATOM      3  C   UNL     1       1.993   5.429  18.144  0.00  0.00    +0.000 A 
ATOM      4  C   UNL     1       1.980   4.637  19.287  0.00  0.00    +0.000 A 
ATOM      5  C   UNL     1       1.880   5.229  20.549  0.00  0.00    +0.000 A 
ATOM      6  C   UNL     1       1.815   6.622  20.671  0.00  0.00    +0.000 A 
ENDROOT
BRANCH   4   7
ATOM      7  N   UNL     1       2.087   3.218  19.211  0.00  0.00    +0.000 N 
ATOM      8  C   UNL     1       0.929   2.430  18.791  0.00  0.00    +0.000 C 
BRANCH   7   9
ATOM      9  S   UNL     1       3.630   2.514  19.199  0.00  0.00    +0.000 S 
ATOM     10  O   UNL     1       4.052   2.222  20.550  0.00  0.00    +0.000 OA
ATOM     11  O   UNL     1       3.623   1.473  18.187  0.00  0.00    +0.000 OA
BRANCH   9  12
ATOM     12  C   UNL     1       4.703   3.802  18.576  0.00  0.00    +0.000 A 
ATOM     13  C   UNL     1       5.340   4.680  19.457  0.00  0.00    +0.000 A 
ATOM     14  C   UNL     1       6.212   5.652  18.953  0.00  0.00    +0.000 A 
ATOM     15  C   UNL     1       6.461   5.725  17.581  0.00  0.00    +0.000 A 
ATOM     16 CL   UNL     1       7.519   6.932  16.963  0.00  0.00    +0.000 Cl
ATOM     17  C   UNL     1       5.861   4.820  16.706  0.00  0.00    +0.000 A 
ATOM     18  C   UNL     1       4.990   3.848  17.203  0.00  0.00    +0.000 A 
ENDBRANCH   9  12
ENDBRANCH   7   9
ENDBRANCH   4   7
BRANCH   1  19
ATOM     19  O   UNL     1       1.765   8.773  19.746  0.00  0.00    +0.000 OA
BRANCH  19  20
ATOM     20  C   UNL     1       1.891   9.549  18.560  0.00  0.00    +0.000 C 
BRANCH  20  22
ATOM     21  N   UNL     1      -0.499   9.785  18.131  0.00  0.00    +0.000 N 
ATOM     22  C   UNL     1       0.698  10.455  18.304  0.00  0.00    +0.000 C 
ATOM     23  O   UNL     1       0.859  11.673  18.293  0.00  0.00    +0.000 OA
ATOM     24  H   UNL     1      -0.441   8.776  18.029  0.00  0.00    +0.000 HD
BRANCH  21  28
ATOM     25  C   UNL     1      -4.302  11.580  17.604  0.00  0.00    +0.000 A 
ATOM     26  C   UNL     1      -3.714  10.844  16.568  0.00  0.00    +0.000 A 
ATOM     27  C   UNL     1      -2.466  10.244  16.728  0.00  0.00    +0.000 A 
ATOM     28  C   UNL     1      -1.751  10.395  17.909  0.00  0.00    +0.000 A 
ATOM     29  C   UNL     1      -2.297  11.190  18.919  0.00  0.00    +0.000 A 
ATOM     30  C   UNL     1      -3.569  11.777  18.788  0.00  0.00    +0.000 A 
BRANCH  25  32
ATOM     31  C   UNL     1      -6.616  11.347  18.022  0.00  0.00    +0.000 C 
ATOM     32  O   UNL     1      -5.555  12.120  17.458  0.00  0.00    +0.000 OA
ENDBRANCH  25  32
BRANCH  30  33
ATOM     33  O   UNL     1      -3.924  12.465  19.918  0.00  0.00    +0.000 OA
ATOM     34  C   UNL     1      -2.968  13.291  20.557  0.00  0.00    +0.000 C 
ENDBRANCH  30  33
ENDBRANCH  21  28
ENDBRANCH  20  22
ENDBRANCH  19  20
ENDBRANCH   1  19
TORSDOF 9
ENDMDL
MODEL 6
REMARK VINA RESULT:      -7.5      6.030      9.413
REMARK  Name = 
REMARK  12 active torsions:
REMARK  status: ('A' for Active; 'I' for Inactive)
REMARK    1  A    between atoms: C_1  and  O_2
REMARK    2  A    between atoms: O_2  and  C_3
REMARK    3  A    between atoms: C_6  and  N_7
REMARK    4  A    between atoms: C_8  and  C_10
REMARK    5  A    between atoms: C_10  and  O_11
REMARK    6  A    between atoms: O_11  and  C_12
REMARK    7  A    between atoms: C_15  and  N_16
REMARK    8  A    between atoms: N_16  and  C_17
REMARK    9  A    between atoms: N_16  and  S_18
REMARK   10  A    between atoms: S_18  and  C_21
REMARK   11  A    between atoms: C_31  and  O_32
REMARK   12  A    between atoms: O_32  and  C_33
REMARK                            x       y       z     vdW  Elec       q    Type
REMARK                         _______ _______ _______ _____ _____    ______ ____
ROOT
ATOM      1  C   UNL     1       2.150   8.757  18.310  0.00  0.00    +0.000 A 
ATOM      2  C   UNL     1       1.817   8.145  19.525  0.00  0.00    +0.000 A 
ATOM      3  C   UNL     1       2.297   6.867  19.831  0.00  0.00    +0.000 A 
ATOM      4  C   UNL     1       3.069   6.181  18.898  0.00  0.00    +0.000 A 
ATOM      5  C   UNL     1       3.399   6.787  17.683  0.00  0.00    +0.000 A 
ATOM      6  C   UNL     1       2.937   8.073  17.386  0.00  0.00    +0.000 A 
ENDROOT
BRANCH   4   7
ATOM      7  N   UNL     1       3.525   4.854  19.141  0.00  0.00    +0.000 N 
ATOM      8  C   UNL     1       2.587   3.738  19.030  0.00  0.00    +0.000 C 
BRANCH   7   9
ATOM      9  S   UNL     1       5.195   4.551  19.140  0.00  0.00    +0.000 S 
ATOM     10  O   UNL     1       5.899   5.656  19.750  0.00  0.00    +0.000 OA
ATOM     11  O   UNL     1       5.388   3.196  19.623  0.00  0.00    +0.000 OA
BRANCH   9  12
ATOM     12  C   UNL     1       5.643   4.528  17.410  0.00  0.00    +0.000 A 
ATOM     13  C   UNL     1       6.842   5.104  16.982  0.00  0.00    +0.000 A 
ATOM     14  C   UNL     1       7.198   5.034  15.630  0.00  0.00    +0.000 A 
ATOM     15  C   UNL     1       6.370   4.373  14.722  0.00  0.00    +0.000 A 
ATOM     16 CL   UNL     1       6.801   4.305  13.058  0.00  0.00    +0.000 Cl
ATOM     17  C   UNL     1       5.196   3.758  15.156  0.00  0.00    +0.000 A 
ATOM     18  C   UNL     1       4.836   3.824  16.503  0.00  0.00    +0.000 A 
ENDBRANCH   9  12
ENDBRANCH   7   9
ENDBRANCH   4   7
BRANCH   1  19
ATOM     19  O   UNL     1       1.752  10.017  17.939  0.00  0.00    +0.000 OA
BRANCH  19  20
ATOM     20  C   UNL     1       1.359  10.837  19.033  0.00  0.00    +0.000 C 
BRANCH  20  22
ATOM     21  N   UNL     1      -0.790  11.193  17.935  0.00  0.00    +0.000 N 
ATOM     22  C   UNL     1      -0.147  11.010  19.145  0.00  0.00    +0.000 C 
ATOM     23  O   UNL     1      -0.678  10.952  20.251  0.00  0.00    +0.000 OA
ATOM     24  H   UNL     1      -0.196  11.358  17.128  0.00  0.00    +0.000 HD
BRANCH  21  28
ATOM     25  C   UNL     1      -4.993  11.594  17.561  0.00  0.00    +0.000 A 
ATOM     26  C   UNL     1      -4.211  11.248  16.452  0.00  0.00    +0.000 A 
ATOM     27  C   UNL     1      -2.829  11.108  16.561  0.00  0.00    +0.000 A 
ATOM     28  C   UNL     1      -2.182  11.349  17.766  0.00  0.00    +0.000 A 
ATOM     29  C   UNL     1      -2.946  11.767  18.858  0.00  0.00    +0.000 A 
ATOM     30  C   UNL     1      -4.346  11.883  18.776  0.00  0.00    +0.000 A 
BRANCH  25  32
ATOM     31  C   UNL     1      -6.864  12.966  17.111  0.00  0.00    +0.000 C 
ATOM     32  O   UNL     1      -6.359  11.675  17.459  0.00  0.00    +0.000 OA
ENDBRANCH  25  32
BRANCH  30  33
ATOM     33  O   UNL     1      -4.891  12.255  19.977  0.00  0.00    +0.000 OA
ATOM     34  C   UNL     1      -4.568  13.520  20.525  0.00  0.00    +0.000 C 
ENDBRANCH  30  33
ENDBRANCH  21  28
ENDBRANCH  20  22
ENDBRANCH  19  20
ENDBRANCH   1  19
TORSDOF 9
ENDMDL
MODEL 7
REMARK VINA RESULT:      -7.5      5.020      6.571
REMARK  Name = 
REMARK  12 active torsions:
REMARK  status: ('A' for Active; 'I' for Inactive)
REMARK    1  A    between atoms: C_1  and  O_2
REMARK    2  A    between atoms: O_2  and  C_3
REMARK    3  A    between atoms: C_6  and  N_7
REMARK    4  A    between atoms: C_8  and  C_10
REMARK    5  A    between atoms: C_10  and  O_11
REMARK    6  A    between atoms: O_11  and  C_12
REMARK    7  A    between atoms: C_15  and  N_16
REMARK    8  A    between atoms: N_16  and  C_17
REMARK    9  A    between atoms: N_16  and  S_18
REMARK   10  A    between atoms: S_18  and  C_21
REMARK   11  A    between atoms: C_31  and  O_32
REMARK   12  A    between atoms: O_32  and  C_33
REMARK                            x       y       z     vdW  Elec       q    Type
REMARK                         _______ _______ _______ _____ _____    ______ ____
ROOT
ATOM      1  C   UNL     1       1.918   7.341  19.778  0.00  0.00    +0.000 A 
ATOM      2  C   UNL     1       2.100   6.867  18.473  0.00  0.00    +0.000 A 
ATOM      3  C   UNL     1       2.147   5.492  18.218  0.00  0.00    +0.000 A 
ATOM      4  C   UNL     1       2.063   4.593  19.276  0.00  0.00    +0.000 A 
ATOM      5  C   UNL     1       1.886   5.063  20.581  0.00  0.00    +0.000 A 
ATOM      6  C   UNL     1       1.818   6.437  20.833  0.00  0.00    +0.000 A 
ENDROOT
BRANCH   4   7
ATOM      7  N   UNL     1       2.170   3.187  19.070  0.00  0.00    +0.000 N 
ATOM      8  C   UNL     1       1.056   2.461  18.464  0.00  0.00    +0.000 C 
BRANCH   7   9
ATOM      9  S   UNL     1       3.705   2.467  19.138  0.00  0.00    +0.000 S 
ATOM     10  O   UNL     1       4.070   2.208  20.512  0.00  0.00    +0.000 OA
ATOM     11  O   UNL     1       3.725   1.400  18.155  0.00  0.00    +0.000 OA
BRANCH   9  12
ATOM     12  C   UNL     1       4.816   3.726  18.523  0.00  0.00    +0.000 A 
ATOM     13  C   UNL     1       4.967   3.927  17.148  0.00  0.00    +0.000 A 
ATOM     14  C   UNL     1       5.806   4.948  16.687  0.00  0.00    +0.000 A 
ATOM     15  C   UNL     1       6.467   5.774  17.597  0.00  0.00    +0.000 A 
ATOM     16 CL   UNL     1       7.512   7.016  17.027  0.00  0.00    +0.000 Cl
ATOM     17  C   UNL     1       6.282   5.604  18.969  0.00  0.00    +0.000 A 
ATOM     18  C   UNL     1       5.446   4.587  19.435  0.00  0.00    +0.000 A 
ENDBRANCH   9  12
ENDBRANCH   7   9
ENDBRANCH   4   7
BRANCH   1  19
ATOM     19  O   UNL     1       1.829   8.668  20.118  0.00  0.00    +0.000 OA
BRANCH  19  20
ATOM     20  C   UNL     1       1.112   9.453  19.173  0.00  0.00    +0.000 C 
BRANCH  20  22
ATOM     21  N   UNL     1       1.095  11.786  18.462  0.00  0.00    +0.000 N 
ATOM     22  C   UNL     1       1.043  10.925  19.542  0.00  0.00    +0.000 C 
ATOM     23  O   UNL     1       0.925  11.244  20.722  0.00  0.00    +0.000 OA
ATOM     24  H   UNL     1       1.335  11.372  17.565  0.00  0.00    +0.000 HD
BRANCH  21  28
ATOM     25  C   UNL     1       0.990  16.011  18.779  0.00  0.00    +0.000 A 
ATOM     26  C   UNL     1      -0.199  15.274  18.701  0.00  0.00    +0.000 A 
ATOM     27  C   UNL     1      -0.181  13.885  18.602  0.00  0.00    +0.000 A 
ATOM     28  C   UNL     1       1.022  13.192  18.534  0.00  0.00    +0.000 A 
ATOM     29  C   UNL     1       2.211  13.925  18.535  0.00  0.00    +0.000 A 
ATOM     30  C   UNL     1       2.213  15.326  18.668  0.00  0.00    +0.000 A 
BRANCH  25  32
ATOM     31  C   UNL     1       0.929  18.121  17.715  0.00  0.00    +0.000 C 
ATOM     32  O   UNL     1       0.962  17.374  18.934  0.00  0.00    +0.000 OA
ENDBRANCH  25  32
BRANCH  30  33
ATOM     33  O   UNL     1       3.488  15.827  18.698  0.00  0.00    +0.000 OA
ATOM     34  C   UNL     1       4.410  15.440  17.695  0.00  0.00    +0.000 C 
ENDBRANCH  30  33
ENDBRANCH  21  28
ENDBRANCH  20  22
ENDBRANCH  19  20
ENDBRANCH   1  19
TORSDOF 9
ENDMDL
MODEL 8
REMARK VINA RESULT:      -7.5      5.603      8.968
REMARK  Name = 
REMARK  12 active torsions:
REMARK  status: ('A' for Active; 'I' for Inactive)
REMARK    1  A    between atoms: C_1  and  O_2
REMARK    2  A    between atoms: O_2  and  C_3
REMARK    3  A    between atoms: C_6  and  N_7
REMARK    4  A    between atoms: C_8  and  C_10
REMARK    5  A    between atoms: C_10  and  O_11
REMARK    6  A    between atoms: O_11  and  C_12
REMARK    7  A    between atoms: C_15  and  N_16
REMARK    8  A    between atoms: N_16  and  C_17
REMARK    9  A    between atoms: N_16  and  S_18
REMARK   10  A    between atoms: S_18  and  C_21
REMARK   11  A    between atoms: C_31  and  O_32
REMARK   12  A    between atoms: O_32  and  C_33
REMARK                            x       y       z     vdW  Elec       q    Type
REMARK                         _______ _______ _______ _____ _____    ______ ____
ROOT
ATOM      1  C   UNL     1       2.158   7.687  18.993  0.00  0.00    +0.000 A 
ATOM      2  C   UNL     1       2.177   6.881  17.848  0.00  0.00    +0.000 A 
ATOM      3  C   UNL     1       2.175   5.486  17.962  0.00  0.00    +0.000 A 
ATOM      4  C   UNL     1       2.205   4.899  19.223  0.00  0.00    +0.000 A 
ATOM      5  C   UNL     1       2.190   5.700  20.368  0.00  0.00    +0.000 A 
ATOM      6  C   UNL     1       2.170   7.094  20.254  0.00  0.00    +0.000 A 
ENDROOT
BRANCH   4   7
ATOM      7  N   UNL     1       2.268   3.485  19.384  0.00  0.00    +0.000 N 
ATOM      8  C   UNL     1       1.073   2.753  19.801  0.00  0.00    +0.000 C 
BRANCH   7   9
ATOM      9  S   UNL     1       3.574   2.643  18.703  0.00  0.00    +0.000 S 
ATOM     10  O   UNL     1       4.179   1.781  19.692  0.00  0.00    +0.000 OA
ATOM     11  O   UNL     1       3.125   2.105  17.432  0.00  0.00    +0.000 OA
BRANCH   9  12
ATOM     12  C   UNL     1       4.767   3.914  18.307  0.00  0.00    +0.000 A 
ATOM     13  C   UNL     1       4.963   4.314  16.982  0.00  0.00    +0.000 A 
ATOM     14  C   UNL     1       5.867   5.343  16.698  0.00  0.00    +0.000 A 
ATOM     15  C   UNL     1       6.551   5.981  17.734  0.00  0.00    +0.000 A 
ATOM     16 CL   UNL     1       7.676   7.233  17.380  0.00  0.00    +0.000 Cl
ATOM     17  C   UNL     1       6.322   5.614  19.060  0.00  0.00    +0.000 A 
ATOM     18  C   UNL     1       5.420   4.589  19.350  0.00  0.00    +0.000 A 
ENDBRANCH   9  12
ENDBRANCH   7   9
ENDBRANCH   4   7
BRANCH   1  19
ATOM     19  O   UNL     1       2.127   9.059  18.979  0.00  0.00    +0.000 OA
BRANCH  19  20
ATOM     20  C   UNL     1       1.212   9.599  18.033  0.00  0.00    +0.000 C 
BRANCH  20  22
ATOM     21  N   UNL     1      -1.008  10.568  17.751  0.00  0.00    +0.000 N 
ATOM     22  C   UNL     1      -0.113  10.017  18.648  0.00  0.00    +0.000 C 
ATOM     23  O   UNL     1      -0.308   9.824  19.846  0.00  0.00    +0.000 OA
ATOM     24  H   UNL     1      -0.645  10.788  16.828  0.00  0.00    +0.000 HD
BRANCH  21  28
ATOM     25  C   UNL     1      -4.888  11.883  18.838  0.00  0.00    +0.000 A 
ATOM     26  C   UNL     1      -4.713  10.989  17.775  0.00  0.00    +0.000 A 
ATOM     27  C   UNL     1      -3.444  10.543  17.409  0.00  0.00    +0.000 A 
ATOM     28  C   UNL     1      -2.311  11.009  18.063  0.00  0.00    +0.000 A 
ATOM     29  C   UNL     1      -2.471  11.958  19.076  0.00  0.00    +0.000 A 
ATOM     30  C   UNL     1      -3.746  12.395  19.480  0.00  0.00    +0.000 A 
BRANCH  25  32
ATOM     31  C   UNL     1      -7.210  11.786  18.410  0.00  0.00    +0.000 C 
ATOM     32  O   UNL     1      -6.144  12.273  19.228  0.00  0.00    +0.000 OA
ENDBRANCH  25  32
BRANCH  30  33
ATOM     33  O   UNL     1      -3.667  13.284  20.520  0.00  0.00    +0.000 OA
ATOM     34  C   UNL     1      -3.802  12.811  21.849  0.00  0.00    +0.000 C 
ENDBRANCH  30  33
ENDBRANCH  21  28
ENDBRANCH  20  22
ENDBRANCH  19  20
ENDBRANCH   1  19
TORSDOF 9
ENDMDL
MODEL 9
REMARK VINA RESULT:      -7.4      6.600      9.339
REMARK  Name = 
REMARK  12 active torsions:
REMARK  status: ('A' for Active; 'I' for Inactive)
REMARK    1  A    between atoms: C_1  and  O_2
REMARK    2  A    between atoms: O_2  and  C_3
REMARK    3  A    between atoms: C_6  and  N_7
REMARK    4  A    between atoms: C_8  and  C_10
REMARK    5  A    between atoms: C_10  and  O_11
REMARK    6  A    between atoms: O_11  and  C_12
REMARK    7  A    between atoms: C_15  and  N_16
REMARK    8  A    between atoms: N_16  and  C_17
REMARK    9  A    between atoms: N_16  and  S_18
REMARK   10  A    between atoms: S_18  and  C_21
REMARK   11  A    between atoms: C_31  and  O_32
REMARK   12  A    between atoms: O_32  and  C_33
REMARK                            x       y       z     vdW  Elec       q    Type
REMARK                         _______ _______ _______ _____ _____    ______ ____
ROOT
ATOM      1  C   UNL     1       1.645   8.516  19.625  0.00  0.00    +0.000 A 
ATOM      2  C   UNL     1       2.213   8.259  18.371  0.00  0.00    +0.000 A 
ATOM      3  C   UNL     1       2.698   6.984  18.060  0.00  0.00    +0.000 A 
ATOM      4  C   UNL     1       2.660   5.981  19.023  0.00  0.00    +0.000 A 
ATOM      5  C   UNL     1       2.098   6.234  20.277  0.00  0.00    +0.000 A 
ATOM      6  C   UNL     1       1.594   7.503  20.580  0.00  0.00    +0.000 A 
ENDROOT
BRANCH   4   7
ATOM      7  N   UNL     1       3.201   4.687  18.771  0.00  0.00    +0.000 N 
ATOM      8  C   UNL     1       2.419   3.715  18.008  0.00  0.00    +0.000 C 
BRANCH   7   9
ATOM      9  S   UNL     1       4.866   4.441  18.988  0.00  0.00    +0.000 S 
ATOM     10  O   UNL     1       5.415   5.483  19.826  0.00  0.00    +0.000 OA
ATOM     11  O   UNL     1       5.056   3.043  19.328  0.00  0.00    +0.000 OA
BRANCH   9  12
ATOM     12  C   UNL     1       5.564   4.652  17.356  0.00  0.00    +0.000 A 
ATOM     13  C   UNL     1       6.470   5.686  17.101  0.00  0.00    +0.000 A 
ATOM     14  C   UNL     1       7.042   5.806  15.830  0.00  0.00    +0.000 A 
ATOM     15  C   UNL     1       6.726   4.884  14.831  0.00  0.00    +0.000 A 
ATOM     16 CL   UNL     1       7.416   5.045  13.263  0.00  0.00    +0.000 Cl
ATOM     17  C   UNL     1       5.858   3.825  15.097  0.00  0.00    +0.000 A 
ATOM     18  C   UNL     1       5.285   3.700  16.363  0.00  0.00    +0.000 A 
ENDBRANCH   9  12
ENDBRANCH   7   9
ENDBRANCH   4   7
BRANCH   1  19
ATOM     19  O   UNL     1       1.116   9.724  20.007  0.00  0.00    +0.000 OA
BRANCH  19  20
ATOM     20  C   UNL     1       0.277   9.643  21.154  0.00  0.00    +0.000 C 
BRANCH  20  22
ATOM     21  N   UNL     1      -0.876  11.195  22.640  0.00  0.00    +0.000 N 
ATOM     22  C   UNL     1      -0.627  10.852  21.324  0.00  0.00    +0.000 C 
ATOM     23  O   UNL     1      -1.041  11.440  20.328  0.00  0.00    +0.000 OA
ATOM     24  H   UNL     1      -0.577  10.527  23.345  0.00  0.00    +0.000 HD
BRANCH  21  28
ATOM     25  C   UNL     1      -3.335  14.441  23.818  0.00  0.00    +0.000 A 
ATOM     26  C   UNL     1      -1.952  14.611  23.677  0.00  0.00    +0.000 A 
ATOM     27  C   UNL     1      -1.131  13.555  23.286  0.00  0.00    +0.000 A 
ATOM     28  C   UNL     1      -1.658  12.289  23.065  0.00  0.00    +0.000 A 
ATOM     29  C   UNL     1      -3.025  12.093  23.275  0.00  0.00    +0.000 A 
ATOM     30  C   UNL     1      -3.874  13.154  23.639  0.00  0.00    +0.000 A 
BRANCH  25  32
ATOM     31  C   UNL     1      -4.730  16.181  23.038  0.00  0.00    +0.000 C 
ATOM     32  O   UNL     1      -4.143  15.499  24.148  0.00  0.00    +0.000 OA
ENDBRANCH  25  32
BRANCH  30  33
ATOM     33  O   UNL     1      -5.178  12.744  23.738  0.00  0.00    +0.000 OA
ATOM     34  C   UNL     1      -6.016  12.812  22.598  0.00  0.00    +0.000 C 
ENDBRANCH  30  33
ENDBRANCH  21  28
ENDBRANCH  20  22
ENDBRANCH  19  20
ENDBRANCH   1  19
TORSDOF 9
ENDMDL
