MODEL 1
REMARK VINA RESULT:      -8.0      0.000      0.000
REMARK  Name = 
REMARK  8 active torsions:
REMARK  status: ('A' for Active; 'I' for Inactive)
REMARK    1  A    between atoms: C_1  and  C_2
REMARK    2  A    between atoms: C_2  and  C_3
REMARK    3  A    between atoms: C_3  and  N_4
REMARK    4  A    between atoms: N_11  and  C_12
REMARK    5  A    between atoms: C_14  and  C_15
REMARK    6  A    between atoms: N_21  and  C_22
REMARK    7  A    between atoms: C_25  and  C_26
REMARK    8  A    between atoms: C_28  and  C_29
REMARK                            x       y       z     vdW  Elec       q    Type
REMARK                         _______ _______ _______ _____ _____    ______ ____
ROOT
ATOM      1  C   UNL     1       3.816   5.184  18.829  0.00  0.00    +0.000 A 
ATOM      2  N   UNL     1       3.402   4.357  19.833  0.00  0.00    +0.000 NA
ATOM      3  C   UNL     1       2.474   4.750  20.730  0.00  0.00    +0.000 A 
ATOM      4  C   UNL     1       1.997   3.729  21.721  0.00  0.00    +0.000 C 
ATOM      5  N   UNL     1       1.911   5.960  20.804  0.00  0.00    +0.000 NA
ATOM      6  C   UNL     1       2.336   6.791  19.833  0.00  0.00    +0.000 A 
ATOM      7  C   UNL     1       3.243   6.475  18.827  0.00  0.00    +0.000 A 
ATOM      8  C   UNL     1       3.315   7.656  18.070  0.00  0.00    +0.000 A 
ATOM      9  N   UNL     1       2.488   8.615  18.486  0.00  0.00    +0.000 NA
ATOM     10  N   UNL     1       1.910   8.098  19.605  0.00  0.00    +0.000 N 
ENDROOT
BRANCH   1  18
ATOM     11  N   UNL     1       6.392   4.036  13.194  0.00  0.00    +0.000 N 
ATOM     12  C   UNL     1       6.681   4.872  14.247  0.00  0.00    +0.000 C 
ATOM     13  O   UNL     1       7.797   5.359  14.402  0.00  0.00    +0.000 OA
ATOM     14  N   UNL     1       5.620   5.131  15.104  0.00  0.00    +0.000 N 
ATOM     15  C   UNL     1       4.350   4.404  15.141  0.00  0.00    +0.000 C 
ATOM     16  C   UNL     1       4.375   3.143  16.005  0.00  0.00    +0.000 C 
ATOM     17  C   UNL     1       4.791   3.314  17.468  0.00  0.00    +0.000 C 
ATOM     18  N   UNL     1       4.742   4.698  17.922  0.00  0.00    +0.000 N 
ATOM     19  C   UNL     1       5.933   5.508  17.591  0.00  0.00    +0.000 C 
ATOM     20  C   UNL     1       5.820   6.116  16.182  0.00  0.00    +0.000 C 
ATOM     21  H   UNL     1       5.463   4.160  12.830  0.00  0.00    +0.000 HD
BRANCH  11  22
ATOM     22  C   UNL     1       7.405   3.792  12.181  0.00  0.00    +0.000 C 
BRANCH  22  24
ATOM     23  C   UNL     1       5.694   2.055  11.471  0.00  0.00    +0.000 C 
ATOM     24  C   UNL     1       7.142   2.510  11.393  0.00  0.00    +0.000 C 
ENDBRANCH  22  24
ENDBRANCH  11  22
ENDBRANCH   1  18
BRANCH  10  25
ATOM     25  C   UNL     1       1.034   8.892  20.406  0.00  0.00    +0.000 A 
ATOM     26  C   UNL     1       1.090   8.760  21.804  0.00  0.00    +0.000 A 
ATOM     27  C   UNL     1       0.286   9.552  22.630  0.00  0.00    +0.000 A 
ATOM     28  C   UNL     1      -0.597  10.480  22.077  0.00  0.00    +0.000 A 
ATOM     29  C   UNL     1      -1.484  11.320  22.947  0.00  0.00    +0.000 C 
ATOM     30  C   UNL     1      -0.667  10.603  20.684  0.00  0.00    +0.000 A 
ATOM     31  C   UNL     1       0.134   9.818  19.830  0.00  0.00    +0.000 A 
ATOM     32  C   UNL     1      -0.083   9.955  18.346  0.00  0.00    +0.000 C 
ENDBRANCH  10  25
TORSDOF 4
ENDMDL
MODEL 2
REMARK VINA RESULT:      -8.0      4.550     10.155
REMARK  Name = 
REMARK  8 active torsions:
REMARK  status: ('A' for Active; 'I' for Inactive)
REMARK    1  A    between atoms: C_1  and  C_2
REMARK    2  A    between atoms: C_2  and  C_3
REMARK    3  A    between atoms: C_3  and  N_4
REMARK    4  A    between atoms: N_11  and  C_12
REMARK    5  A    between atoms: C_14  and  C_15
REMARK    6  A    between atoms: N_21  and  C_22
REMARK    7  A    between atoms: C_25  and  C_26
REMARK    8  A    between atoms: C_28  and  C_29
REMARK                            x       y       z     vdW  Elec       q    Type
REMARK                         _______ _______ _______ _____ _____    ______ ____
ROOT
ATOM      1  C   UNL     1       0.446  10.645  19.737  0.00  0.00    +0.000 A 
ATOM      2  N   UNL     1       0.220  10.458  21.070  0.00  0.00    +0.000 NA
ATOM      3  C   UNL     1       0.679   9.366  21.715  0.00  0.00    +0.000 A 
ATOM      4  C   UNL     1       0.485   9.308  23.201  0.00  0.00    +0.000 C 
ATOM      5  N   UNL     1       1.323   8.335  21.159  0.00  0.00    +0.000 NA
ATOM      6  C   UNL     1       1.525   8.499  19.837  0.00  0.00    +0.000 A 
ATOM      7  C   UNL     1       1.146   9.607  19.085  0.00  0.00    +0.000 A 
ATOM      8  C   UNL     1       1.613   9.300  17.796  0.00  0.00    +0.000 A 
ATOM      9  N   UNL     1       2.291   8.155  17.725  0.00  0.00    +0.000 NA
ATOM     10  N   UNL     1       2.203   7.635  18.981  0.00  0.00    +0.000 N 
ENDROOT
BRANCH   1  18
ATOM     11  N   UNL     1      -1.713  16.559  19.462  0.00  0.00    +0.000 N 
ATOM     12  C   UNL     1      -0.527  15.937  19.148  0.00  0.00    +0.000 C 
ATOM     13  O   UNL     1       0.288  16.444  18.383  0.00  0.00    +0.000 OA
ATOM     14  N   UNL     1      -0.320  14.714  19.769  0.00  0.00    +0.000 N 
ATOM     15  C   UNL     1      -1.331  13.929  20.480  0.00  0.00    +0.000 C 
ATOM     16  C   UNL     1      -2.163  13.016  19.580  0.00  0.00    +0.000 C 
ATOM     17  C   UNL     1      -1.398  12.010  18.718  0.00  0.00    +0.000 C 
ATOM     18  N   UNL     1      -0.021  11.810  19.152  0.00  0.00    +0.000 N 
ATOM     19  C   UNL     1       0.943  12.816  18.659  0.00  0.00    +0.000 C 
ATOM     20  C   UNL     1       0.981  14.048  19.580  0.00  0.00    +0.000 C 
ATOM     21  H   UNL     1      -1.997  16.418  20.416  0.00  0.00    +0.000 HD
BRANCH  11  22
ATOM     22  C   UNL     1      -1.974  17.894  18.951  0.00  0.00    +0.000 C 
BRANCH  22  24
ATOM     23  C   UNL     1      -4.245  17.345  19.944  0.00  0.00    +0.000 C 
ATOM     24  C   UNL     1      -3.450  18.274  19.041  0.00  0.00    +0.000 C 
ENDBRANCH  22  24
ENDBRANCH  11  22
ENDBRANCH   1  18
BRANCH  10  25
ATOM     25  C   UNL     1       2.723   6.336  19.268  0.00  0.00    +0.000 A 
ATOM     26  C   UNL     1       2.064   5.539  20.220  0.00  0.00    +0.000 A 
ATOM     27  C   UNL     1       2.507   4.243  20.499  0.00  0.00    +0.000 A 
ATOM     28  C   UNL     1       3.624   3.723  19.844  0.00  0.00    +0.000 A 
ATOM     29  C   UNL     1       4.129   2.343  20.148  0.00  0.00    +0.000 C 
ATOM     30  C   UNL     1       4.293   4.519  18.907  0.00  0.00    +0.000 A 
ATOM     31  C   UNL     1       3.865   5.828  18.607  0.00  0.00    +0.000 A 
ATOM     32  C   UNL     1       4.706   6.639  17.657  0.00  0.00    +0.000 C 
ENDBRANCH  10  25
TORSDOF 4
ENDMDL
MODEL 3
REMARK VINA RESULT:      -7.9      7.715     10.745
REMARK  Name = 
REMARK  8 active torsions:
REMARK  status: ('A' for Active; 'I' for Inactive)
REMARK    1  A    between atoms: C_1  and  C_2
REMARK    2  A    between atoms: C_2  and  C_3
REMARK    3  A    between atoms: C_3  and  N_4
REMARK    4  A    between atoms: N_11  and  C_12
REMARK    5  A    between atoms: C_14  and  C_15
REMARK    6  A    between atoms: N_21  and  C_22
REMARK    7  A    between atoms: C_25  and  C_26
REMARK    8  A    between atoms: C_28  and  C_29
REMARK                            x       y       z     vdW  Elec       q    Type
REMARK                         _______ _______ _______ _____ _____    ______ ____
ROOT
ATOM      1  C   UNL     1       2.893  14.017  20.659  0.00  0.00    +0.000 A 
ATOM      2  N   UNL     1       3.498  13.959  21.881  0.00  0.00    +0.000 NA
ATOM      3  C   UNL     1       4.751  14.421  22.068  0.00  0.00    +0.000 A 
ATOM      4  C   UNL     1       5.283  14.424  23.471  0.00  0.00    +0.000 C 
ATOM      5  N   UNL     1       5.560  14.910  21.123  0.00  0.00    +0.000 NA
ATOM      6  C   UNL     1       4.980  14.944  19.908  0.00  0.00    +0.000 A 
ATOM      7  C   UNL     1       3.680  14.548  19.613  0.00  0.00    +0.000 A 
ATOM      8  C   UNL     1       3.562  14.814  18.239  0.00  0.00    +0.000 A 
ATOM      9  N   UNL     1       4.638  15.393  17.707  0.00  0.00    +0.000 NA
ATOM     10  N   UNL     1       5.535  15.437  18.730  0.00  0.00    +0.000 N 
ENDROOT
BRANCH   1  18
ATOM     11  N   UNL     1      -2.365  12.043  17.801  0.00  0.00    +0.000 N 
ATOM     12  C   UNL     1      -1.377  11.445  18.547  0.00  0.00    +0.000 C 
ATOM     13  O   UNL     1      -1.547  10.363  19.102  0.00  0.00    +0.000 OA
ATOM     14  N   UNL     1      -0.180  12.145  18.611  0.00  0.00    +0.000 N 
ATOM     15  C   UNL     1       0.023  13.537  18.203  0.00  0.00    +0.000 C 
ATOM     16  C   UNL     1      -0.312  14.562  19.285  0.00  0.00    +0.000 C 
ATOM     17  C   UNL     1       0.415  14.419  20.624  0.00  0.00    +0.000 C 
ATOM     18  N   UNL     1       1.590  13.560  20.551  0.00  0.00    +0.000 N 
ATOM     19  C   UNL     1       1.314  12.112  20.658  0.00  0.00    +0.000 C 
ATOM     20  C   UNL     1       0.964  11.509  19.287  0.00  0.00    +0.000 C 
ATOM     21  H   UNL     1      -2.016  12.528  16.993  0.00  0.00    +0.000 HD
BRANCH  11  22
ATOM     22  C   UNL     1      -3.617  11.337  17.581  0.00  0.00    +0.000 C 
BRANCH  22  24
ATOM     23  C   UNL     1      -3.014  10.680  15.204  0.00  0.00    +0.000 C 
ATOM     24  C   UNL     1      -3.475  10.201  16.571  0.00  0.00    +0.000 C 
ENDBRANCH  22  24
ENDBRANCH  11  22
ENDBRANCH   1  18
BRANCH  10  25
ATOM     25  C   UNL     1       6.870  15.897  18.508  0.00  0.00    +0.000 A 
ATOM     26  C   UNL     1       7.172  17.245  18.767  0.00  0.00    +0.000 A 
ATOM     27  C   UNL     1       8.474  17.729  18.612  0.00  0.00    +0.000 A 
ATOM     28  C   UNL     1       9.496  16.881  18.182  0.00  0.00    +0.000 A 
ATOM     29  C   UNL     1      10.894  17.389  17.986  0.00  0.00    +0.000 C 
ATOM     30  C   UNL     1       9.196  15.542  17.907  0.00  0.00    +0.000 A 
ATOM     31  C   UNL     1       7.891  15.029  18.058  0.00  0.00    +0.000 A 
ATOM     32  C   UNL     1       7.649  13.601  17.646  0.00  0.00    +0.000 C 
ENDBRANCH  10  25
TORSDOF 4
ENDMDL
MODEL 4
REMARK VINA RESULT:      -7.7      4.639      9.792
REMARK  Name = 
REMARK  8 active torsions:
REMARK  status: ('A' for Active; 'I' for Inactive)
REMARK    1  A    between atoms: C_1  and  C_2
REMARK    2  A    between atoms: C_2  and  C_3
REMARK    3  A    between atoms: C_3  and  N_4
REMARK    4  A    between atoms: N_11  and  C_12
REMARK    5  A    between atoms: C_14  and  C_15
REMARK    6  A    between atoms: N_21  and  C_22
REMARK    7  A    between atoms: C_25  and  C_26
REMARK    8  A    between atoms: C_28  and  C_29
REMARK                            x       y       z     vdW  Elec       q    Type
REMARK                         _______ _______ _______ _____ _____    ______ ____
ROOT
ATOM      1  C   UNL     1       1.072  10.746  19.453  0.00  0.00    +0.000 A 
ATOM      2  N   UNL     1       0.746  10.496  20.755  0.00  0.00    +0.000 NA
ATOM      3  C   UNL     1       0.986   9.297  21.322  0.00  0.00    +0.000 A 
ATOM      4  C   UNL     1       0.705   9.158  22.789  0.00  0.00    +0.000 C 
ATOM      5  N   UNL     1       1.483   8.219  20.707  0.00  0.00    +0.000 NA
ATOM      6  C   UNL     1       1.780   8.449  19.413  0.00  0.00    +0.000 A 
ATOM      7  C   UNL     1       1.628   9.659  18.744  0.00  0.00    +0.000 A 
ATOM      8  C   UNL     1       2.107   9.380  17.454  0.00  0.00    +0.000 A 
ATOM      9  N   UNL     1       2.594   8.147  17.313  0.00  0.00    +0.000 NA
ATOM     10  N   UNL     1       2.354   7.553  18.515  0.00  0.00    +0.000 N 
ENDROOT
BRANCH   1  18
ATOM     11  N   UNL     1       0.129  16.975  19.586  0.00  0.00    +0.000 N 
ATOM     12  C   UNL     1       1.159  16.152  19.197  0.00  0.00    +0.000 C 
ATOM     13  O   UNL     1       2.042  16.534  18.433  0.00  0.00    +0.000 OA
ATOM     14  N   UNL     1       1.133  14.876  19.740  0.00  0.00    +0.000 N 
ATOM     15  C   UNL     1       0.002  14.264  20.441  0.00  0.00    +0.000 C 
ATOM     16  C   UNL     1      -1.016  13.591  19.520  0.00  0.00    +0.000 C 
ATOM     17  C   UNL     1      -0.486  12.509  18.577  0.00  0.00    +0.000 C 
ATOM     18  N   UNL     1       0.833  12.014  18.951  0.00  0.00    +0.000 N 
ATOM     19  C   UNL     1       1.966  12.839  18.482  0.00  0.00    +0.000 C 
ATOM     20  C   UNL     1       2.271  13.979  19.468  0.00  0.00    +0.000 C 
ATOM     21  H   UNL     1      -0.155  16.834  20.539  0.00  0.00    +0.000 HD
BRANCH  11  22
ATOM     22  C   UNL     1       0.128  18.365  19.159  0.00  0.00    +0.000 C 
BRANCH  22  24
ATOM     23  C   UNL     1      -0.119  18.614  16.645  0.00  0.00    +0.000 C 
ATOM     24  C   UNL     1      -0.824  18.614  17.991  0.00  0.00    +0.000 C 
ENDBRANCH  22  24
ENDBRANCH  11  22
ENDBRANCH   1  18
BRANCH  10  25
ATOM     25  C   UNL     1       2.639   6.167  18.712  0.00  0.00    +0.000 A 
ATOM     26  C   UNL     1       1.649   5.346  19.277  0.00  0.00    +0.000 A 
ATOM     27  C   UNL     1       1.864   3.975  19.444  0.00  0.00    +0.000 A 
ATOM     28  C   UNL     1       3.077   3.400  19.062  0.00  0.00    +0.000 A 
ATOM     29  C   UNL     1       3.336   1.935  19.256  0.00  0.00    +0.000 C 
ATOM     30  C   UNL     1       4.073   4.217  18.514  0.00  0.00    +0.000 A 
ATOM     31  C   UNL     1       3.879   5.601  18.334  0.00  0.00    +0.000 A 
ATOM     32  C   UNL     1       5.043   6.411  17.827  0.00  0.00    +0.000 C 
ENDBRANCH  10  25
TORSDOF 4
ENDMDL
MODEL 5
REMARK VINA RESULT:      -7.7      5.517     12.095
REMARK  Name = 
REMARK  8 active torsions:
REMARK  status: ('A' for Active; 'I' for Inactive)
REMARK    1  A    between atoms: C_1  and  C_2
REMARK    2  A    between atoms: C_2  and  C_3
REMARK    3  A    between atoms: C_3  and  N_4
REMARK    4  A    between atoms: N_11  and  C_12
REMARK    5  A    between atoms: C_14  and  C_15
REMARK    6  A    between atoms: N_21  and  C_22
REMARK    7  A    between atoms: C_25  and  C_26
REMARK    8  A    between atoms: C_28  and  C_29
REMARK                            x       y       z     vdW  Elec       q    Type
REMARK                         _______ _______ _______ _____ _____    ______ ____
ROOT
ATOM      1  C   UNL     1      -2.009  12.365  20.092  0.00  0.00    +0.000 A 
ATOM      2  N   UNL     1      -2.672  11.913  18.988  0.00  0.00    +0.000 NA
ATOM      3  C   UNL     1      -2.301  10.779  18.360  0.00  0.00    +0.000 A 
ATOM      4  C   UNL     1      -3.165  10.302  17.230  0.00  0.00    +0.000 C 
ATOM      5  N   UNL     1      -1.248  10.015  18.668  0.00  0.00    +0.000 NA
ATOM      6  C   UNL     1      -0.571  10.470  19.740  0.00  0.00    +0.000 A 
ATOM      7  C   UNL     1      -0.897  11.592  20.495  0.00  0.00    +0.000 A 
ATOM      8  C   UNL     1       0.085  11.605  21.499  0.00  0.00    +0.000 A 
ATOM      9  N   UNL     1       0.916  10.564  21.455  0.00  0.00    +0.000 NA
ATOM     10  N   UNL     1       0.538   9.880  20.340  0.00  0.00    +0.000 N 
ENDROOT
BRANCH   1  18
ATOM     11  N   UNL     1      -2.641  16.678  24.643  0.00  0.00    +0.000 N 
ATOM     12  C   UNL     1      -2.013  16.634  23.420  0.00  0.00    +0.000 C 
ATOM     13  O   UNL     1      -1.702  17.655  22.813  0.00  0.00    +0.000 OA
ATOM     14  N   UNL     1      -1.747  15.360  22.938  0.00  0.00    +0.000 N 
ATOM     15  C   UNL     1      -2.302  14.111  23.463  0.00  0.00    +0.000 C 
ATOM     16  C   UNL     1      -3.669  13.741  22.886  0.00  0.00    +0.000 C 
ATOM     17  C   UNL     1      -3.769  13.624  21.364  0.00  0.00    +0.000 C 
ATOM     18  N   UNL     1      -2.472  13.515  20.708  0.00  0.00    +0.000 N 
ATOM     19  C   UNL     1      -1.782  14.800  20.466  0.00  0.00    +0.000 C 
ATOM     20  C   UNL     1      -0.966  15.234  21.695  0.00  0.00    +0.000 C 
ATOM     21  H   UNL     1      -2.346  15.949  25.268  0.00  0.00    +0.000 HD
BRANCH  11  22
ATOM     22  C   UNL     1      -2.863  17.964  25.283  0.00  0.00    +0.000 C 
BRANCH  22  24
ATOM     23  C   UNL     1      -5.252  17.190  24.910  0.00  0.00    +0.000 C 
ATOM     24  C   UNL     1      -4.346  18.310  25.395  0.00  0.00    +0.000 C 
ENDBRANCH  22  24
ENDBRANCH  11  22
ENDBRANCH   1  18
BRANCH  10  25
ATOM     25  C   UNL     1       1.284   8.746  19.895  0.00  0.00    +0.000 A 
ATOM     26  C   UNL     1       1.309   7.595  20.700  0.00  0.00    +0.000 A 
ATOM     27  C   UNL     1       1.985   6.444  20.284  0.00  0.00    +0.000 A 
ATOM     28  C   UNL     1       2.658   6.424  19.062  0.00  0.00    +0.000 A 
ATOM     29  C   UNL     1       3.409   5.207  18.609  0.00  0.00    +0.000 C 
ATOM     30  C   UNL     1       2.649   7.574  18.263  0.00  0.00    +0.000 A 
ATOM     31  C   UNL     1       1.973   8.746  18.660  0.00  0.00    +0.000 A 
ATOM     32  C   UNL     1       2.102   9.960  17.779  0.00  0.00    +0.000 C 
ENDBRANCH  10  25
TORSDOF 4
ENDMDL
MODEL 6
REMARK VINA RESULT:      -7.7      4.404      9.501
REMARK  Name = 
REMARK  8 active torsions:
REMARK  status: ('A' for Active; 'I' for Inactive)
REMARK    1  A    between atoms: C_1  and  C_2
REMARK    2  A    between atoms: C_2  and  C_3
REMARK    3  A    between atoms: C_3  and  N_4
REMARK    4  A    between atoms: N_11  and  C_12
REMARK    5  A    between atoms: C_14  and  C_15
REMARK    6  A    between atoms: N_21  and  C_22
REMARK    7  A    between atoms: C_25  and  C_26
REMARK    8  A    between atoms: C_28  and  C_29
REMARK                            x       y       z     vdW  Elec       q    Type
REMARK                         _______ _______ _______ _____ _____    ______ ____
ROOT
ATOM      1  C   UNL     1       1.101  10.145  19.302  0.00  0.00    +0.000 A 
ATOM      2  N   UNL     1       0.554   9.825  20.511  0.00  0.00    +0.000 NA
ATOM      3  C   UNL     1       0.787   8.633  21.096  0.00  0.00    +0.000 A 
ATOM      4  C   UNL     1       0.241   8.423  22.477  0.00  0.00    +0.000 C 
ATOM      5  N   UNL     1       1.490   7.623  20.573  0.00  0.00    +0.000 NA
ATOM      6  C   UNL     1       2.009   7.920  19.366  0.00  0.00    +0.000 A 
ATOM      7  C   UNL     1       1.880   9.133  18.698  0.00  0.00    +0.000 A 
ATOM      8  C   UNL     1       2.623   8.939  17.523  0.00  0.00    +0.000 A 
ATOM      9  N   UNL     1       3.237   7.757  17.461  0.00  0.00    +0.000 NA
ATOM     10  N   UNL     1       2.825   7.106  18.584  0.00  0.00    +0.000 N 
ENDROOT
BRANCH   1  18
ATOM     11  N   UNL     1      -0.019  16.346  19.355  0.00  0.00    +0.000 N 
ATOM     12  C   UNL     1       1.050  15.550  19.017  0.00  0.00    +0.000 C 
ATOM     13  O   UNL     1       1.955  15.953  18.291  0.00  0.00    +0.000 OA
ATOM     14  N   UNL     1       1.035  14.276  19.566  0.00  0.00    +0.000 N 
ATOM     15  C   UNL     1      -0.109  13.636  20.220  0.00  0.00    +0.000 C 
ATOM     16  C   UNL     1      -1.065  12.931  19.259  0.00  0.00    +0.000 C 
ATOM     17  C   UNL     1      -0.465  11.859  18.347  0.00  0.00    +0.000 C 
ATOM     18  N   UNL     1       0.849  11.403  18.782  0.00  0.00    +0.000 N 
ATOM     19  C   UNL     1       1.979  12.257  18.359  0.00  0.00    +0.000 C 
ATOM     20  C   UNL     1       2.208  13.410  19.350  0.00  0.00    +0.000 C 
ATOM     21  H   UNL     1      -0.341  16.201  20.296  0.00  0.00    +0.000 HD
BRANCH  11  22
ATOM     22  C   UNL     1      -0.040  17.733  18.921  0.00  0.00    +0.000 C 
BRANCH  22  24
ATOM     23  C   UNL     1       0.211  18.514  16.518  0.00  0.00    +0.000 C 
ATOM     24  C   UNL     1      -0.713  17.907  17.561  0.00  0.00    +0.000 C 
ENDBRANCH  22  24
ENDBRANCH  11  22
ENDBRANCH   1  18
BRANCH  10  25
ATOM     25  C   UNL     1       3.191   5.744  18.811  0.00  0.00    +0.000 A 
ATOM     26  C   UNL     1       4.388   5.472  19.495  0.00  0.00    +0.000 A 
ATOM     27  C   UNL     1       4.764   4.156  19.784  0.00  0.00    +0.000 A 
ATOM     28  C   UNL     1       3.960   3.089  19.384  0.00  0.00    +0.000 A 
ATOM     29  C   UNL     1       4.359   1.670  19.664  0.00  0.00    +0.000 C 
ATOM     30  C   UNL     1       2.774   3.355  18.688  0.00  0.00    +0.000 A 
ATOM     31  C   UNL     1       2.373   4.672  18.387  0.00  0.00    +0.000 A 
ATOM     32  C   UNL     1       1.133   4.852  17.552  0.00  0.00    +0.000 C 
ENDBRANCH  10  25
TORSDOF 4
ENDMDL
MODEL 7
REMARK VINA RESULT:      -7.7      5.176     11.863
REMARK  Name = 
REMARK  8 active torsions:
REMARK  status: ('A' for Active; 'I' for Inactive)
REMARK    1  A    between atoms: C_1  and  C_2
REMARK    2  A    between atoms: C_2  and  C_3
REMARK    3  A    between atoms: C_3  and  N_4
REMARK    4  A    between atoms: N_11  and  C_12
REMARK    5  A    between atoms: C_14  and  C_15
REMARK    6  A    between atoms: N_21  and  C_22
REMARK    7  A    between atoms: C_25  and  C_26
REMARK    8  A    between atoms: C_28  and  C_29
REMARK                            x       y       z     vdW  Elec       q    Type
REMARK                         _______ _______ _______ _____ _____    ______ ____
ROOT
ATOM      1  C   UNL     1      -1.761  12.053  19.454  0.00  0.00    +0.000 A 
ATOM      2  N   UNL     1      -2.339  11.662  18.281  0.00  0.00    +0.000 NA
ATOM      3  C   UNL     1      -1.876  10.601  17.588  0.00  0.00    +0.000 A 
ATOM      4  C   UNL     1      -2.651  10.178  16.375  0.00  0.00    +0.000 C 
ATOM      5  N   UNL     1      -0.804   9.865  17.897  0.00  0.00    +0.000 NA
ATOM      6  C   UNL     1      -0.212  10.262  19.040  0.00  0.00    +0.000 A 
ATOM      7  C   UNL     1      -0.636  11.303  19.860  0.00  0.00    +0.000 A 
ATOM      8  C   UNL     1       0.288  11.280  20.918  0.00  0.00    +0.000 A 
ATOM      9  N   UNL     1       1.172  10.286  20.842  0.00  0.00    +0.000 NA
ATOM     10  N   UNL     1       0.892   9.678  19.656  0.00  0.00    +0.000 N 
ENDROOT
BRANCH   1  18
ATOM     11  N   UNL     1      -3.156  15.744  24.368  0.00  0.00    +0.000 N 
ATOM     12  C   UNL     1      -2.319  15.841  23.280  0.00  0.00    +0.000 C 
ATOM     13  O   UNL     1      -1.894  16.922  22.883  0.00  0.00    +0.000 OA
ATOM     14  N   UNL     1      -1.984  14.634  22.684  0.00  0.00    +0.000 N 
ATOM     15  C   UNL     1      -2.637  13.346  22.927  0.00  0.00    +0.000 C 
ATOM     16  C   UNL     1      -3.881  13.103  22.073  0.00  0.00    +0.000 C 
ATOM     17  C   UNL     1      -3.708  13.192  20.556  0.00  0.00    +0.000 C 
ATOM     18  N   UNL     1      -2.316  13.127  20.131  0.00  0.00    +0.000 N 
ATOM     19  C   UNL     1      -1.581  14.408  20.191  0.00  0.00    +0.000 C 
ATOM     20  C   UNL     1      -0.994  14.647  21.592  0.00  0.00    +0.000 C 
ATOM     21  H   UNL     1      -2.985  14.929  24.930  0.00  0.00    +0.000 HD
BRANCH  11  22
ATOM     22  C   UNL     1      -3.476  16.940  25.128  0.00  0.00    +0.000 C 
BRANCH  22  24
ATOM     23  C   UNL     1      -5.586  17.204  23.741  0.00  0.00    +0.000 C 
ATOM     24  C   UNL     1      -4.972  17.245  25.131  0.00  0.00    +0.000 C 
ENDBRANCH  22  24
ENDBRANCH  11  22
ENDBRANCH   1  18
BRANCH  10  25
ATOM     25  C   UNL     1       1.717   8.619  19.168  0.00  0.00    +0.000 A 
ATOM     26  C   UNL     1       2.364   8.781  17.931  0.00  0.00    +0.000 A 
ATOM     27  C   UNL     1       3.220   7.793  17.436  0.00  0.00    +0.000 A 
ATOM     28  C   UNL     1       3.437   6.620  18.159  0.00  0.00    +0.000 A 
ATOM     29  C   UNL     1       4.333   5.538  17.632  0.00  0.00    +0.000 C 
ATOM     30  C   UNL     1       2.782   6.447  19.384  0.00  0.00    +0.000 A 
ATOM     31  C   UNL     1       1.916   7.429  19.906  0.00  0.00    +0.000 A 
ATOM     32  C   UNL     1       1.184   7.110  21.183  0.00  0.00    +0.000 C 
ENDBRANCH  10  25
TORSDOF 4
ENDMDL
MODEL 8
REMARK VINA RESULT:      -7.6      4.931     11.593
REMARK  Name = 
REMARK  8 active torsions:
REMARK  status: ('A' for Active; 'I' for Inactive)
REMARK    1  A    between atoms: C_1  and  C_2
REMARK    2  A    between atoms: C_2  and  C_3
REMARK    3  A    between atoms: C_3  and  N_4
REMARK    4  A    between atoms: N_11  and  C_12
REMARK    5  A    between atoms: C_14  and  C_15
REMARK    6  A    between atoms: N_21  and  C_22
REMARK    7  A    between atoms: C_25  and  C_26
REMARK    8  A    between atoms: C_28  and  C_29
REMARK                            x       y       z     vdW  Elec       q    Type
REMARK                         _______ _______ _______ _____ _____    ______ ____
ROOT
ATOM      1  C   UNL     1      -1.506  11.803  19.690  0.00  0.00    +0.000 A 
ATOM      2  N   UNL     1      -2.090  11.535  18.486  0.00  0.00    +0.000 NA
ATOM      3  C   UNL     1      -1.648  10.535  17.697  0.00  0.00    +0.000 A 
ATOM      4  C   UNL     1      -2.429  10.242  16.450  0.00  0.00    +0.000 C 
ATOM      5  N   UNL     1      -0.591   9.752  17.934  0.00  0.00    +0.000 NA
ATOM      6  C   UNL     1       0.008  10.029  19.109  0.00  0.00    +0.000 A 
ATOM      7  C   UNL     1      -0.396  10.996  20.023  0.00  0.00    +0.000 A 
ATOM      8  C   UNL     1       0.526  10.856  21.074  0.00  0.00    +0.000 A 
ATOM      9  N   UNL     1       1.390   9.855  20.905  0.00  0.00    +0.000 NA
ATOM     10  N   UNL     1       1.099   9.367  19.667  0.00  0.00    +0.000 N 
ENDROOT
BRANCH   1  18
ATOM     11  N   UNL     1      -2.155  15.580  24.692  0.00  0.00    +0.000 N 
ATOM     12  C   UNL     1      -1.676  15.730  23.412  0.00  0.00    +0.000 C 
ATOM     13  O   UNL     1      -1.575  16.832  22.882  0.00  0.00    +0.000 OA
ATOM     14  N   UNL     1      -1.304  14.552  22.780  0.00  0.00    +0.000 N 
ATOM     15  C   UNL     1      -1.625  13.196  23.231  0.00  0.00    +0.000 C 
ATOM     16  C   UNL     1      -2.989  12.688  22.768  0.00  0.00    +0.000 C 
ATOM     17  C   UNL     1      -3.253  12.688  21.261  0.00  0.00    +0.000 C 
ATOM     18  N   UNL     1      -2.039  12.820  20.464  0.00  0.00    +0.000 N 
ATOM     19  C   UNL     1      -1.558  14.205  20.281  0.00  0.00    +0.000 C 
ATOM     20  C   UNL     1      -0.666  14.644  21.454  0.00  0.00    +0.000 C 
ATOM     21  H   UNL     1      -1.695  14.849  25.207  0.00  0.00    +0.000 HD
BRANCH  11  22
ATOM     22  C   UNL     1      -2.466  16.762  25.479  0.00  0.00    +0.000 C 
BRANCH  22  24
ATOM     23  C   UNL     1      -0.434  16.140  26.868  0.00  0.00    +0.000 C 
ATOM     24  C   UNL     1      -1.263  17.267  26.272  0.00  0.00    +0.000 C 
ENDBRANCH  22  24
ENDBRANCH  11  22
ENDBRANCH   1  18
BRANCH  10  25
ATOM     25  C   UNL     1       1.904   8.342  19.081  0.00  0.00    +0.000 A 
ATOM     26  C   UNL     1       2.561   8.609  17.868  0.00  0.00    +0.000 A 
ATOM     27  C   UNL     1       3.398   7.655  17.282  0.00  0.00    +0.000 A 
ATOM     28  C   UNL     1       3.585   6.412  17.889  0.00  0.00    +0.000 A 
ATOM     29  C   UNL     1       4.460   5.367  17.263  0.00  0.00    +0.000 C 
ATOM     30  C   UNL     1       2.919   6.136  19.089  0.00  0.00    +0.000 A 
ATOM     31  C   UNL     1       2.072   7.082  19.700  0.00  0.00    +0.000 A 
ATOM     32  C   UNL     1       1.326   6.657  20.938  0.00  0.00    +0.000 C 
ENDBRANCH  10  25
TORSDOF 4
ENDMDL
MODEL 9
REMARK VINA RESULT:      -7.6      5.477     12.018
REMARK  Name = 
REMARK  8 active torsions:
REMARK  status: ('A' for Active; 'I' for Inactive)
REMARK    1  A    between atoms: C_1  and  C_2
REMARK    2  A    between atoms: C_2  and  C_3
REMARK    3  A    between atoms: C_3  and  N_4
REMARK    4  A    between atoms: N_11  and  C_12
REMARK    5  A    between atoms: C_14  and  C_15
REMARK    6  A    between atoms: N_21  and  C_22
REMARK    7  A    between atoms: C_25  and  C_26
REMARK    8  A    between atoms: C_28  and  C_29
REMARK                            x       y       z     vdW  Elec       q    Type
REMARK                         _______ _______ _______ _____ _____    ______ ____
ROOT
ATOM      1  C   UNL     1      -1.962  12.332  20.344  0.00  0.00    +0.000 A 
ATOM      2  N   UNL     1      -2.654  11.930  19.238  0.00  0.00    +0.000 NA
ATOM      3  C   UNL     1      -2.303  10.823  18.552  0.00  0.00    +0.000 A 
ATOM      4  C   UNL     1      -3.196  10.397  17.425  0.00  0.00    +0.000 C 
ATOM      5  N   UNL     1      -1.245  10.045  18.800  0.00  0.00    +0.000 NA
ATOM      6  C   UNL     1      -0.539  10.452  19.873  0.00  0.00    +0.000 A 
ATOM      7  C   UNL     1      -0.843  11.540  20.684  0.00  0.00    +0.000 A 
ATOM      8  C   UNL     1       0.164  11.508  21.663  0.00  0.00    +0.000 A 
ATOM      9  N   UNL     1       0.991  10.468  21.553  0.00  0.00    +0.000 NA
ATOM     10  N   UNL     1       0.583   9.834  20.419  0.00  0.00    +0.000 N 
ENDROOT
BRANCH   1  18
ATOM     11  N   UNL     1      -2.140  16.699  24.884  0.00  0.00    +0.000 N 
ATOM     12  C   UNL     1      -1.742  16.674  23.568  0.00  0.00    +0.000 C 
ATOM     13  O   UNL     1      -1.637  17.701  22.903  0.00  0.00    +0.000 OA
ATOM     14  N   UNL     1      -1.456  15.415  23.060  0.00  0.00    +0.000 N 
ATOM     15  C   UNL     1      -1.795  14.138  23.691  0.00  0.00    +0.000 C 
ATOM     16  C   UNL     1      -3.205  13.638  23.378  0.00  0.00    +0.000 C 
ATOM     17  C   UNL     1      -3.568  13.472  21.901  0.00  0.00    +0.000 C 
ATOM     18  N   UNL     1      -2.406  13.455  21.021  0.00  0.00    +0.000 N 
ATOM     19  C   UNL     1      -1.888  14.787  20.643  0.00  0.00    +0.000 C 
ATOM     20  C   UNL     1      -0.904  15.322  21.697  0.00  0.00    +0.000 C 
ATOM     21  H   UNL     1      -1.674  16.014  25.454  0.00  0.00    +0.000 HD
BRANCH  11  22
ATOM     22  C   UNL     1      -2.355  17.978  25.539  0.00  0.00    +0.000 C 
BRANCH  22  24
ATOM     23  C   UNL     1      -0.519  17.207  27.115  0.00  0.00    +0.000 C 
ATOM     24  C   UNL     1      -1.175  18.388  26.417  0.00  0.00    +0.000 C 
ENDBRANCH  22  24
ENDBRANCH  11  22
ENDBRANCH   1  18
BRANCH  10  25
ATOM     25  C   UNL     1       1.314   8.718  19.906  0.00  0.00    +0.000 A 
ATOM     26  C   UNL     1       1.376   7.542  20.672  0.00  0.00    +0.000 A 
ATOM     27  C   UNL     1       2.038   6.409  20.190  0.00  0.00    +0.000 A 
ATOM     28  C   UNL     1       2.661   6.432  18.942  0.00  0.00    +0.000 A 
ATOM     29  C   UNL     1       3.396   5.234  18.419  0.00  0.00    +0.000 C 
ATOM     30  C   UNL     1       2.615   7.608  18.182  0.00  0.00    +0.000 A 
ATOM     31  C   UNL     1       1.952   8.763  18.645  0.00  0.00    +0.000 A 
ATOM     32  C   UNL     1       2.040  10.006  17.800  0.00  0.00    +0.000 C 
ENDBRANCH  10  25
TORSDOF 4
ENDMDL
