MODEL 1
REMARK VINA RESULT:      -7.9      0.000      0.000
REMARK  Name = 
REMARK  9 active torsions:
REMARK  status: ('A' for Active; 'I' for Inactive)
REMARK    1  A    between atoms: C_1  and  C_2
REMARK    2  A    between atoms: C_2  and  O_3
REMARK    3  A    between atoms: C_2  and  C_4
REMARK    4  A    between atoms: C_8  and  C_9
REMARK    5  A    between atoms: C_9  and  O_11
REMARK    6  A    between atoms: C_12  and  S_13
REMARK    7  A    between atoms: S_13  and  C_14
REMARK    8  A    between atoms: C_18  and  C_19
REMARK    9  A    between atoms: C_27  and  C_28
REMARK                            x       y       z     vdW  Elec       q    Type
REMARK                         _______ _______ _______ _____ _____    ______ ____
ROOT
ATOM      1  C   UNL     1       5.915   3.689  15.090  0.00  0.00    +0.000 C 
ATOM      2  C   UNL     1       6.938   4.232  16.109  0.00  0.00    +0.000 C 
ATOM      3  O   UNL     1       8.070   4.006  16.466  0.00  0.00    +0.000 OA
ATOM      4  N   UNL     1       6.036   5.102  16.636  0.00  0.00    +0.000 N 
ATOM      5  C   UNL     1       5.772   5.165  17.990  0.00  0.00    +0.000 C 
ATOM      6  C   UNL     1       4.574   4.630  18.290  0.00  0.00    +0.000 C 
ATOM      7  C   UNL     1       3.960   3.981  17.063  0.00  0.00    +0.000 C 
ATOM      8  C   UNL     1       3.977   2.458  17.123  0.00  0.00    +0.000 C 
ATOM      9  C   UNL     1       4.866   4.504  15.929  0.00  0.00    +0.000 C 
ENDROOT
BRANCH   1  11
ATOM     10  C   UNL     1       7.394   4.996  13.535  0.00  0.00    +0.000 C 
ATOM     11  C   UNL     1       6.136   4.145  13.655  0.00  0.00    +0.000 C 
BRANCH  11  12
ATOM     12  O   UNL     1       6.253   2.983  12.835  0.00  0.00    +0.000 OA
ATOM     13  H   UNL     1       7.084   2.526  13.052  0.00  0.00    +0.000 HD
ENDBRANCH  11  12
ENDBRANCH   1  11
BRANCH   5  14
ATOM     14  C   UNL     1       6.716   5.867  18.908  0.00  0.00    +0.000 C 
ATOM     15  O   UNL     1       7.007   5.475  20.026  0.00  0.00    +0.000 OA
BRANCH  14  16
ATOM     16  O   UNL     1       7.240   7.001  18.391  0.00  0.00    +0.000 OA
ATOM     17  H   UNL     1       6.634   7.527  17.823  0.00  0.00    +0.000 HD
ENDBRANCH  14  16
ENDBRANCH   5  14
BRANCH   6  18
ATOM     18  S   UNL     1       3.658   4.839  19.737  0.00  0.00    +0.000 S 
BRANCH  18  19
ATOM     19  C   UNL     1       2.969   6.423  19.462  0.00  0.00    +0.000 A 
ATOM     20  N   UNL     1       2.290   7.033  20.408  0.00  0.00    +0.000 NA
ATOM     21  C   UNL     1       1.709   8.185  19.899  0.00  0.00    +0.000 A 
ATOM     22  C   UNL     1       0.872   9.074  20.608  0.00  0.00    +0.000 A 
ATOM     23  C   UNL     1       0.350  10.217  19.973  0.00  0.00    +0.000 A 
ATOM     24  C   UNL     1       0.678  10.467  18.635  0.00  0.00    +0.000 A 
ATOM     25  C   UNL     1       1.492   9.591  17.908  0.00  0.00    +0.000 A 
ATOM     26  C   UNL     1       1.993   8.455  18.561  0.00  0.00    +0.000 A 
ATOM     27  S   UNL     1       2.990   7.198  17.937  0.00  0.00    +0.000 S 
BRANCH  23  28
ATOM     28  C   UNL     1      -0.552  11.175  20.716  0.00  0.00    +0.000 C 
ATOM     29  F   UNL     1      -1.065  10.664  21.869  0.00  0.00    +0.000 F 
ATOM     30  F   UNL     1       0.091  12.323  21.069  0.00  0.00    +0.000 F 
ATOM     31  F   UNL     1      -1.623  11.562  19.970  0.00  0.00    +0.000 F 
ENDBRANCH  23  28
ENDBRANCH  18  19
ENDBRANCH   6  18
TORSDOF 7
ENDMDL
MODEL 2
REMARK VINA RESULT:      -7.4      0.574      1.163
REMARK  Name = 
REMARK  9 active torsions:
REMARK  status: ('A' for Active; 'I' for Inactive)
REMARK    1  A    between atoms: C_1  and  C_2
REMARK    2  A    between atoms: C_2  and  O_3
REMARK    3  A    between atoms: C_2  and  C_4
REMARK    4  A    between atoms: C_8  and  C_9
REMARK    5  A    between atoms: C_9  and  O_11
REMARK    6  A    between atoms: C_12  and  S_13
REMARK    7  A    between atoms: S_13  and  C_14
REMARK    8  A    between atoms: C_18  and  C_19
REMARK    9  A    between atoms: C_27  and  C_28
REMARK                            x       y       z     vdW  Elec       q    Type
REMARK                         _______ _______ _______ _____ _____    ______ ____
ROOT
ATOM      1  C   UNL     1       6.110   3.561  15.169  0.00  0.00    +0.000 C 
ATOM      2  C   UNL     1       7.076   4.200  16.188  0.00  0.00    +0.000 C 
ATOM      3  O   UNL     1       8.208   4.050  16.582  0.00  0.00    +0.000 OA
ATOM      4  N   UNL     1       6.116   5.044  16.654  0.00  0.00    +0.000 N 
ATOM      5  C   UNL     1       5.813   5.150  17.996  0.00  0.00    +0.000 C 
ATOM      6  C   UNL     1       4.636   4.566  18.291  0.00  0.00    +0.000 C 
ATOM      7  C   UNL     1       4.090   3.833  17.079  0.00  0.00    +0.000 C 
ATOM      8  C   UNL     1       4.185   2.317  17.207  0.00  0.00    +0.000 C 
ATOM      9  C   UNL     1       4.997   4.355  15.945  0.00  0.00    +0.000 C 
ENDROOT
BRANCH   1  11
ATOM     10  C   UNL     1       5.029   4.102  12.967  0.00  0.00    +0.000 C 
ATOM     11  C   UNL     1       6.345   3.966  13.721  0.00  0.00    +0.000 C 
BRANCH  11  12
ATOM     12  O   UNL     1       7.041   5.212  13.719  0.00  0.00    +0.000 OA
ATOM     13  H   UNL     1       6.536   5.855  14.248  0.00  0.00    +0.000 HD
ENDBRANCH  11  12
ENDBRANCH   1  11
BRANCH   5  14
ATOM     14  C   UNL     1       6.694   5.939  18.906  0.00  0.00    +0.000 C 
ATOM     15  O   UNL     1       7.171   7.028  18.628  0.00  0.00    +0.000 OA
BRANCH  14  16
ATOM     16  O   UNL     1       6.930   5.340  20.094  0.00  0.00    +0.000 OA
ATOM     17  H   UNL     1       7.059   5.947  20.857  0.00  0.00    +0.000 HD
ENDBRANCH  14  16
ENDBRANCH   5  14
BRANCH   6  18
ATOM     18  S   UNL     1       3.673   4.788  19.704  0.00  0.00    +0.000 S 
BRANCH  18  19
ATOM     19  C   UNL     1       3.012   6.379  19.404  0.00  0.00    +0.000 A 
ATOM     20  N   UNL     1       2.286   6.988  20.315  0.00  0.00    +0.000 NA
ATOM     21  C   UNL     1       1.743   8.147  19.783  0.00  0.00    +0.000 A 
ATOM     22  C   UNL     1       0.875   9.039  20.450  0.00  0.00    +0.000 A 
ATOM     23  C   UNL     1       0.397  10.190  19.797  0.00  0.00    +0.000 A 
ATOM     24  C   UNL     1       0.800  10.446  18.480  0.00  0.00    +0.000 A 
ATOM     25  C   UNL     1       1.646   9.569  17.793  0.00  0.00    +0.000 A 
ATOM     26  C   UNL     1       2.102   8.424  18.464  0.00  0.00    +0.000 A 
ATOM     27  S   UNL     1       3.123   7.164  17.888  0.00  0.00    +0.000 S 
BRANCH  23  28
ATOM     28  C   UNL     1      -0.537  11.150  20.495  0.00  0.00    +0.000 C 
ATOM     29  F   UNL     1       0.008  12.377  20.724  0.00  0.00    +0.000 F 
ATOM     30  F   UNL     1      -1.677  11.373  19.784  0.00  0.00    +0.000 F 
ATOM     31  F   UNL     1      -0.941  10.689  21.711  0.00  0.00    +0.000 F 
ENDBRANCH  23  28
ENDBRANCH  18  19
ENDBRANCH   6  18
TORSDOF 7
ENDMDL
MODEL 3
REMARK VINA RESULT:      -7.0      2.888      4.475
REMARK  Name = 
REMARK  9 active torsions:
REMARK  status: ('A' for Active; 'I' for Inactive)
REMARK    1  A    between atoms: C_1  and  C_2
REMARK    2  A    between atoms: C_2  and  O_3
REMARK    3  A    between atoms: C_2  and  C_4
REMARK    4  A    between atoms: C_8  and  C_9
REMARK    5  A    between atoms: C_9  and  O_11
REMARK    6  A    between atoms: C_12  and  S_13
REMARK    7  A    between atoms: S_13  and  C_14
REMARK    8  A    between atoms: C_18  and  C_19
REMARK    9  A    between atoms: C_27  and  C_28
REMARK                            x       y       z     vdW  Elec       q    Type
REMARK                         _______ _______ _______ _____ _____    ______ ____
ROOT
ATOM      1  C   UNL     1       2.602   3.692  19.566  0.00  0.00    +0.000 C 
ATOM      2  C   UNL     1       4.007   3.818  18.939  0.00  0.00    +0.000 C 
ATOM      3  O   UNL     1       5.143   3.492  19.187  0.00  0.00    +0.000 OA
ATOM      4  N   UNL     1       3.546   4.601  17.926  0.00  0.00    +0.000 N 
ATOM      5  C   UNL     1       4.114   5.821  17.617  0.00  0.00    +0.000 C 
ATOM      6  C   UNL     1       3.331   6.846  18.002  0.00  0.00    +0.000 C 
ATOM      7  C   UNL     1       2.144   6.339  18.799  0.00  0.00    +0.000 C 
ATOM      8  C   UNL     1       2.248   6.652  20.288  0.00  0.00    +0.000 C 
ATOM      9  C   UNL     1       2.205   4.818  18.544  0.00  0.00    +0.000 C 
ENDROOT
BRANCH   1  11
ATOM     10  C   UNL     1       0.565   2.487  18.725  0.00  0.00    +0.000 C 
ATOM     11  C   UNL     1       1.934   2.339  19.375  0.00  0.00    +0.000 C 
BRANCH  11  12
ATOM     12  O   UNL     1       2.782   1.540  18.551  0.00  0.00    +0.000 OA
ATOM     13  H   UNL     1       3.707   1.804  18.701  0.00  0.00    +0.000 HD
ENDBRANCH  11  12
ENDBRANCH   1  11
BRANCH   5  14
ATOM     14  C   UNL     1       5.389   5.883  16.845  0.00  0.00    +0.000 C 
ATOM     15  O   UNL     1       5.465   6.177  15.663  0.00  0.00    +0.000 OA
BRANCH  14  16
ATOM     16  O   UNL     1       6.485   5.581  17.576  0.00  0.00    +0.000 OA
ATOM     17  H   UNL     1       7.320   6.015  17.288  0.00  0.00    +0.000 HD
ENDBRANCH  14  16
ENDBRANCH   5  14
BRANCH   6  18
ATOM     18  S   UNL     1       3.417   8.490  17.485  0.00  0.00    +0.000 S 
BRANCH  18  19
ATOM     19  C   UNL     1       1.868   9.087  18.034  0.00  0.00    +0.000 A 
ATOM     20  N   UNL     1       0.803   8.993  17.270  0.00  0.00    +0.000 NA
ATOM     21  C   UNL     1      -0.252   9.681  17.850  0.00  0.00    +0.000 A 
ATOM     22  C   UNL     1      -1.543   9.838  17.300  0.00  0.00    +0.000 A 
ATOM     23  C   UNL     1      -2.531  10.557  17.997  0.00  0.00    +0.000 A 
ATOM     24  C   UNL     1      -2.223  11.107  19.247  0.00  0.00    +0.000 A 
ATOM     25  C   UNL     1      -0.946  10.979  19.805  0.00  0.00    +0.000 A 
ATOM     26  C   UNL     1       0.024  10.265  19.086  0.00  0.00    +0.000 A 
ATOM     27  S   UNL     1       1.667   9.956  19.494  0.00  0.00    +0.000 S 
BRANCH  23  28
ATOM     28  C   UNL     1      -3.915  10.739  17.419  0.00  0.00    +0.000 C 
ATOM     29  F   UNL     1      -4.892  10.102  18.123  0.00  0.00    +0.000 F 
ATOM     30  F   UNL     1      -4.286  12.048  17.366  0.00  0.00    +0.000 F 
ATOM     31  F   UNL     1      -4.010  10.272  16.144  0.00  0.00    +0.000 F 
ENDBRANCH  23  28
ENDBRANCH  18  19
ENDBRANCH   6  18
TORSDOF 7
ENDMDL
MODEL 4
REMARK VINA RESULT:      -6.9      5.877      9.505
REMARK  Name = 
REMARK  9 active torsions:
REMARK  status: ('A' for Active; 'I' for Inactive)
REMARK    1  A    between atoms: C_1  and  C_2
REMARK    2  A    between atoms: C_2  and  O_3
REMARK    3  A    between atoms: C_2  and  C_4
REMARK    4  A    between atoms: C_8  and  C_9
REMARK    5  A    between atoms: C_9  and  O_11
REMARK    6  A    between atoms: C_12  and  S_13
REMARK    7  A    between atoms: S_13  and  C_14
REMARK    8  A    between atoms: C_18  and  C_19
REMARK    9  A    between atoms: C_27  and  C_28
REMARK                            x       y       z     vdW  Elec       q    Type
REMARK                         _______ _______ _______ _____ _____    ______ ____
ROOT
ATOM      1  C   UNL     1      -3.379  12.475  19.044  0.00  0.00    +0.000 C 
ATOM      2  C   UNL     1      -3.073  12.295  20.546  0.00  0.00    +0.000 C 
ATOM      3  O   UNL     1      -3.342  12.827  21.596  0.00  0.00    +0.000 OA
ATOM      4  N   UNL     1      -2.208  11.272  20.304  0.00  0.00    +0.000 N 
ATOM      5  C   UNL     1      -0.921  11.259  20.802  0.00  0.00    +0.000 C 
ATOM      6  C   UNL     1      -0.011  11.499  19.840  0.00  0.00    +0.000 C 
ATOM      7  C   UNL     1      -0.700  11.867  18.538  0.00  0.00    +0.000 C 
ATOM      8  C   UNL     1      -0.565  13.345  18.190  0.00  0.00    +0.000 C 
ATOM      9  C   UNL     1      -2.169  11.495  18.829  0.00  0.00    +0.000 C 
ENDROOT
BRANCH   1  11
ATOM     10  C   UNL     1      -4.631  10.637  17.876  0.00  0.00    +0.000 C 
ATOM     11  C   UNL     1      -4.745  11.969  18.604  0.00  0.00    +0.000 C 
BRANCH  11  12
ATOM     12  O   UNL     1      -5.558  11.823  19.767  0.00  0.00    +0.000 OA
ATOM     13  H   UNL     1      -5.056  11.337  20.444  0.00  0.00    +0.000 HD
ENDBRANCH  11  12
ENDBRANCH   1  11
BRANCH   5  14
ATOM     14  C   UNL     1      -0.670  10.898  22.228  0.00  0.00    +0.000 C 
ATOM     15  O   UNL     1      -0.572  11.707  23.137  0.00  0.00    +0.000 OA
BRANCH  14  16
ATOM     16  O   UNL     1      -0.557   9.568  22.443  0.00  0.00    +0.000 OA
ATOM     17  H   UNL     1      -1.290   9.017  22.087  0.00  0.00    +0.000 HD
ENDBRANCH  14  16
ENDBRANCH   5  14
BRANCH   6  18
ATOM     18  S   UNL     1       1.685  11.189  19.891  0.00  0.00    +0.000 S 
BRANCH  18  19
ATOM     19  C   UNL     1       1.717   9.479  19.524  0.00  0.00    +0.000 A 
ATOM     20  N   UNL     1       1.574   8.586  20.478  0.00  0.00    +0.000 NA
ATOM     21  C   UNL     1       1.802   7.317  19.967  0.00  0.00    +0.000 A 
ATOM     22  C   UNL     1       1.780   6.111  20.702  0.00  0.00    +0.000 A 
ATOM     23  C   UNL     1       2.024   4.882  20.060  0.00  0.00    +0.000 A 
ATOM     24  C   UNL     1       2.278   4.868  18.684  0.00  0.00    +0.000 A 
ATOM     25  C   UNL     1       2.321   6.051  17.938  0.00  0.00    +0.000 A 
ATOM     26  C   UNL     1       2.083   7.264  18.603  0.00  0.00    +0.000 A 
ATOM     27  S   UNL     1       2.088   8.865  17.971  0.00  0.00    +0.000 S 
BRANCH  23  28
ATOM     28  C   UNL     1       2.010   3.585  20.834  0.00  0.00    +0.000 C 
ATOM     29  F   UNL     1       0.795   2.970  20.852  0.00  0.00    +0.000 F 
ATOM     30  F   UNL     1       2.884   2.671  20.328  0.00  0.00    +0.000 F 
ATOM     31  F   UNL     1       2.361   3.754  22.138  0.00  0.00    +0.000 F 
ENDBRANCH  23  28
ENDBRANCH  18  19
ENDBRANCH   6  18
TORSDOF 7
ENDMDL
MODEL 5
REMARK VINA RESULT:      -6.9      3.196      5.195
REMARK  Name = 
REMARK  9 active torsions:
REMARK  status: ('A' for Active; 'I' for Inactive)
REMARK    1  A    between atoms: C_1  and  C_2
REMARK    2  A    between atoms: C_2  and  O_3
REMARK    3  A    between atoms: C_2  and  C_4
REMARK    4  A    between atoms: C_8  and  C_9
REMARK    5  A    between atoms: C_9  and  O_11
REMARK    6  A    between atoms: C_12  and  S_13
REMARK    7  A    between atoms: S_13  and  C_14
REMARK    8  A    between atoms: C_18  and  C_19
REMARK    9  A    between atoms: C_27  and  C_28
REMARK                            x       y       z     vdW  Elec       q    Type
REMARK                         _______ _______ _______ _____ _____    ______ ____
ROOT
ATOM      1  C   UNL     1       2.235   4.553  20.330  0.00  0.00    +0.000 C 
ATOM      2  C   UNL     1       3.591   4.612  19.595  0.00  0.00    +0.000 C 
ATOM      3  O   UNL     1       4.747   4.327  19.801  0.00  0.00    +0.000 OA
ATOM      4  N   UNL     1       3.049   5.261  18.530  0.00  0.00    +0.000 N 
ATOM      5  C   UNL     1       3.574   6.439  18.037  0.00  0.00    +0.000 C 
ATOM      6  C   UNL     1       2.804   7.498  18.348  0.00  0.00    +0.000 C 
ATOM      7  C   UNL     1       1.683   7.083  19.282  0.00  0.00    +0.000 C 
ATOM      8  C   UNL     1       1.884   7.576  20.711  0.00  0.00    +0.000 C 
ATOM      9  C   UNL     1       1.750   5.543  19.209  0.00  0.00    +0.000 C 
ENDROOT
BRANCH   1  11
ATOM     10  C   UNL     1       1.677   2.544  21.732  0.00  0.00    +0.000 C 
ATOM     11  C   UNL     1       1.577   3.181  20.352  0.00  0.00    +0.000 C 
BRANCH  11  12
ATOM     12  O   UNL     1       0.208   3.342  19.986  0.00  0.00    +0.000 OA
ATOM     13  H   UNL     1      -0.265   2.510  20.162  0.00  0.00    +0.000 HD
ENDBRANCH  11  12
ENDBRANCH   1  11
BRANCH   5  14
ATOM     14  C   UNL     1       4.792   6.416  17.175  0.00  0.00    +0.000 C 
ATOM     15  O   UNL     1       4.773   6.398  15.955  0.00  0.00    +0.000 OA
BRANCH  14  16
ATOM     16  O   UNL     1       5.953   6.417  17.869  0.00  0.00    +0.000 OA
ATOM     17  H   UNL     1       6.712   6.855  17.424  0.00  0.00    +0.000 HD
ENDBRANCH  14  16
ENDBRANCH   5  14
BRANCH   6  18
ATOM     18  S   UNL     1       2.828   9.067  17.631  0.00  0.00    +0.000 S 
BRANCH  18  19
ATOM     19  C   UNL     1       1.292   9.700  18.178  0.00  0.00    +0.000 A 
ATOM     20  N   UNL     1       0.190   9.468  17.501  0.00  0.00    +0.000 NA
ATOM     21  C   UNL     1      -0.853  10.207  18.036  0.00  0.00    +0.000 A 
ATOM     22  C   UNL     1      -2.177  10.249  17.547  0.00  0.00    +0.000 A 
ATOM     23  C   UNL     1      -3.148  11.039  18.190  0.00  0.00    +0.000 A 
ATOM     24  C   UNL     1      -2.790  11.776  19.325  0.00  0.00    +0.000 A 
ATOM     25  C   UNL     1      -1.480  11.764  19.818  0.00  0.00    +0.000 A 
ATOM     26  C   UNL     1      -0.528  10.975  19.155  0.00  0.00    +0.000 A 
ATOM     27  S   UNL     1       1.145  10.771  19.504  0.00  0.00    +0.000 S 
BRANCH  23  28
ATOM     28  C   UNL     1      -4.567  11.099  17.675  0.00  0.00    +0.000 C 
ATOM     29  F   UNL     1      -5.422  10.260  18.324  0.00  0.00    +0.000 F 
ATOM     30  F   UNL     1      -5.108  12.344  17.788  0.00  0.00    +0.000 F 
ATOM     31  F   UNL     1      -4.655  10.773  16.356  0.00  0.00    +0.000 F 
ENDBRANCH  23  28
ENDBRANCH  18  19
ENDBRANCH   6  18
TORSDOF 7
ENDMDL
MODEL 6
REMARK VINA RESULT:      -6.9      6.234      9.749
REMARK  Name = 
REMARK  9 active torsions:
REMARK  status: ('A' for Active; 'I' for Inactive)
REMARK    1  A    between atoms: C_1  and  C_2
REMARK    2  A    between atoms: C_2  and  O_3
REMARK    3  A    between atoms: C_2  and  C_4
REMARK    4  A    between atoms: C_8  and  C_9
REMARK    5  A    between atoms: C_9  and  O_11
REMARK    6  A    between atoms: C_12  and  S_13
REMARK    7  A    between atoms: S_13  and  C_14
REMARK    8  A    between atoms: C_18  and  C_19
REMARK    9  A    between atoms: C_27  and  C_28
REMARK                            x       y       z     vdW  Elec       q    Type
REMARK                         _______ _______ _______ _____ _____    ______ ____
ROOT
ATOM      1  C   UNL     1      -3.622  12.547  19.101  0.00  0.00    +0.000 C 
ATOM      2  C   UNL     1      -3.375  12.732  20.613  0.00  0.00    +0.000 C 
ATOM      3  O   UNL     1      -3.685  13.496  21.496  0.00  0.00    +0.000 OA
ATOM      4  N   UNL     1      -2.501  11.691  20.655  0.00  0.00    +0.000 N 
ATOM      5  C   UNL     1      -1.234  11.810  21.190  0.00  0.00    +0.000 C 
ATOM      6  C   UNL     1      -0.287  11.823  20.233  0.00  0.00    +0.000 C 
ATOM      7  C   UNL     1      -0.924  11.865  18.856  0.00  0.00    +0.000 C 
ATOM      8  C   UNL     1      -0.777  13.219  18.173  0.00  0.00    +0.000 C 
ATOM      9  C   UNL     1      -2.403  11.557  19.172  0.00  0.00    +0.000 C 
ENDROOT
BRANCH   1  11
ATOM     10  C   UNL     1      -4.798  10.588  18.059  0.00  0.00    +0.000 C 
ATOM     11  C   UNL     1      -4.969  11.938  18.742  0.00  0.00    +0.000 C 
BRANCH  11  12
ATOM     12  O   UNL     1      -5.720  11.786  19.945  0.00  0.00    +0.000 OA
ATOM     13  H   UNL     1      -6.561  12.269  19.855  0.00  0.00    +0.000 HD
ENDBRANCH  11  12
ENDBRANCH   1  11
BRANCH   5  14
ATOM     14  C   UNL     1      -1.039  11.799  22.669  0.00  0.00    +0.000 C 
ATOM     15  O   UNL     1      -0.804  10.798  23.326  0.00  0.00    +0.000 OA
BRANCH  14  16
ATOM     16  O   UNL     1      -1.143  13.019  23.243  0.00  0.00    +0.000 OA
ATOM     17  H   UNL     1      -1.704  13.062  24.049  0.00  0.00    +0.000 HD
ENDBRANCH  14  16
ENDBRANCH   5  14
BRANCH   6  18
ATOM     18  S   UNL     1       1.406  11.552  20.421  0.00  0.00    +0.000 S 
BRANCH  18  19
ATOM     19  C   UNL     1       1.529   9.884  19.907  0.00  0.00    +0.000 A 
ATOM     20  N   UNL     1       1.372   8.904  20.768  0.00  0.00    +0.000 NA
ATOM     21  C   UNL     1       1.681   7.695  20.161  0.00  0.00    +0.000 A 
ATOM     22  C   UNL     1       1.669   6.428  20.784  0.00  0.00    +0.000 A 
ATOM     23  C   UNL     1       1.998   5.272  20.051  0.00  0.00    +0.000 A 
ATOM     24  C   UNL     1       2.328   5.392  18.696  0.00  0.00    +0.000 A 
ATOM     25  C   UNL     1       2.362   6.639  18.061  0.00  0.00    +0.000 A 
ATOM     26  C   UNL     1       2.038   7.777  18.816  0.00  0.00    +0.000 A 
ATOM     27  S   UNL     1       2.011   9.427  18.330  0.00  0.00    +0.000 S 
BRANCH  23  28
ATOM     28  C   UNL     1       1.996   3.910  20.705  0.00  0.00    +0.000 C 
ATOM     29  F   UNL     1       2.266   3.941  22.039  0.00  0.00    +0.000 F 
ATOM     30  F   UNL     1       0.796   3.278  20.581  0.00  0.00    +0.000 F 
ATOM     31  F   UNL     1       2.917   3.071  20.157  0.00  0.00    +0.000 F 
ENDBRANCH  23  28
ENDBRANCH  18  19
ENDBRANCH   6  18
TORSDOF 7
ENDMDL
MODEL 7
REMARK VINA RESULT:      -6.8      6.103      9.956
REMARK  Name = 
REMARK  9 active torsions:
REMARK  status: ('A' for Active; 'I' for Inactive)
REMARK    1  A    between atoms: C_1  and  C_2
REMARK    2  A    between atoms: C_2  and  O_3
REMARK    3  A    between atoms: C_2  and  C_4
REMARK    4  A    between atoms: C_8  and  C_9
REMARK    5  A    between atoms: C_9  and  O_11
REMARK    6  A    between atoms: C_12  and  S_13
REMARK    7  A    between atoms: S_13  and  C_14
REMARK    8  A    between atoms: C_18  and  C_19
REMARK    9  A    between atoms: C_27  and  C_28
REMARK                            x       y       z     vdW  Elec       q    Type
REMARK                         _______ _______ _______ _____ _____    ______ ____
ROOT
ATOM      1  C   UNL     1       2.213  15.789  20.132  0.00  0.00    +0.000 C 
ATOM      2  C   UNL     1       1.596  15.095  21.365  0.00  0.00    +0.000 C 
ATOM      3  O   UNL     1       1.933  14.745  22.471  0.00  0.00    +0.000 OA
ATOM      4  N   UNL     1       0.420  14.870  20.720  0.00  0.00    +0.000 N 
ATOM      5  C   UNL     1      -0.159  13.618  20.654  0.00  0.00    +0.000 C 
ATOM      6  C   UNL     1      -0.040  13.077  19.427  0.00  0.00    +0.000 C 
ATOM      7  C   UNL     1       0.835  13.949  18.545  0.00  0.00    +0.000 C 
ATOM      8  C   UNL     1       2.209  13.342  18.284  0.00  0.00    +0.000 C 
ATOM      9  C   UNL     1       0.947  15.245  19.375  0.00  0.00    +0.000 C 
ENDROOT
BRANCH   1  11
ATOM     10  C   UNL     1       3.353  17.695  21.306  0.00  0.00    +0.000 C 
ATOM     11  C   UNL     1       2.336  17.302  20.243  0.00  0.00    +0.000 C 
BRANCH  11  12
ATOM     12  O   UNL     1       2.738  17.807  18.971  0.00  0.00    +0.000 OA
ATOM     13  H   UNL     1       1.955  17.872  18.396  0.00  0.00    +0.000 HD
ENDBRANCH  11  12
ENDBRANCH   1  11
BRANCH   5  14
ATOM     14  C   UNL     1      -0.903  13.071  21.826  0.00  0.00    +0.000 C 
ATOM     15  O   UNL     1      -2.094  13.244  22.027  0.00  0.00    +0.000 OA
BRANCH  14  16
ATOM     16  O   UNL     1      -0.135  12.348  22.671  0.00  0.00    +0.000 OA
ATOM     17  H   UNL     1      -0.623  11.751  23.282  0.00  0.00    +0.000 HD
ENDBRANCH  14  16
ENDBRANCH   5  14
BRANCH   6  18
ATOM     18  S   UNL     1      -0.929  11.755  18.766  0.00  0.00    +0.000 S 
BRANCH  18  19
ATOM     19  C   UNL     1       0.190  10.438  19.041  0.00  0.00    +0.000 A 
ATOM     20  N   UNL     1       0.997  10.033  18.086  0.00  0.00    +0.000 NA
ATOM     21  C   UNL     1       1.657   8.882  18.489  0.00  0.00    +0.000 A 
ATOM     22  C   UNL     1       2.571   8.135  17.714  0.00  0.00    +0.000 A 
ATOM     23  C   UNL     1       3.181   6.984  18.246  0.00  0.00    +0.000 A 
ATOM     24  C   UNL     1       2.880   6.593  19.556  0.00  0.00    +0.000 A 
ATOM     25  C   UNL     1       1.965   7.308  20.338  0.00  0.00    +0.000 A 
ATOM     26  C   UNL     1       1.364   8.447  19.781  0.00  0.00    +0.000 A 
ATOM     27  S   UNL     1       0.200   9.508  20.477  0.00  0.00    +0.000 S 
BRANCH  23  28
ATOM     28  C   UNL     1       4.156   6.171  17.427  0.00  0.00    +0.000 C 
ATOM     29  F   UNL     1       4.550   6.784  16.276  0.00  0.00    +0.000 F 
ATOM     30  F   UNL     1       5.300   5.891  18.111  0.00  0.00    +0.000 F 
ATOM     31  F   UNL     1       3.641   4.968  17.052  0.00  0.00    +0.000 F 
ENDBRANCH  23  28
ENDBRANCH  18  19
ENDBRANCH   6  18
TORSDOF 7
ENDMDL
MODEL 8
REMARK VINA RESULT:      -6.8      7.745      9.398
REMARK  Name = 
REMARK  9 active torsions:
REMARK  status: ('A' for Active; 'I' for Inactive)
REMARK    1  A    between atoms: C_1  and  C_2
REMARK    2  A    between atoms: C_2  and  O_3
REMARK    3  A    between atoms: C_2  and  C_4
REMARK    4  A    between atoms: C_8  and  C_9
REMARK    5  A    between atoms: C_9  and  O_11
REMARK    6  A    between atoms: C_12  and  S_13
REMARK    7  A    between atoms: S_13  and  C_14
REMARK    8  A    between atoms: C_18  and  C_19
REMARK    9  A    between atoms: C_27  and  C_28
REMARK                            x       y       z     vdW  Elec       q    Type
REMARK                         _______ _______ _______ _____ _____    ______ ____
ROOT
ATOM      1  C   UNL     1      10.652  12.894  19.414  0.00  0.00    +0.000 C 
ATOM      2  C   UNL     1      11.278  14.050  18.606  0.00  0.00    +0.000 C 
ATOM      3  O   UNL     1      12.333  14.632  18.526  0.00  0.00    +0.000 OA
ATOM      4  N   UNL     1      10.100  14.330  17.986  0.00  0.00    +0.000 N 
ATOM      5  C   UNL     1       9.558  15.599  17.967  0.00  0.00    +0.000 C 
ATOM      6  C   UNL     1       8.495  15.701  18.786  0.00  0.00    +0.000 C 
ATOM      7  C   UNL     1       8.324  14.428  19.596  0.00  0.00    +0.000 C 
ATOM      8  C   UNL     1       8.707  14.600  21.061  0.00  0.00    +0.000 C 
ATOM      9  C   UNL     1       9.284  13.455  18.879  0.00  0.00    +0.000 C 
ENDROOT
BRANCH   1  11
ATOM     10  C   UNL     1       9.817  10.703  18.512  0.00  0.00    +0.000 C 
ATOM     11  C   UNL     1      11.040  11.500  18.945  0.00  0.00    +0.000 C 
BRANCH  11  12
ATOM     12  O   UNL     1      11.946  11.638  17.851  0.00  0.00    +0.000 OA
ATOM     13  H   UNL     1      12.329  10.767  17.647  0.00  0.00    +0.000 HD
ENDBRANCH  11  12
ENDBRANCH   1  11
BRANCH   5  14
ATOM     14  C   UNL     1      10.090  16.629  17.028  0.00  0.00    +0.000 C 
ATOM     15  O   UNL     1      10.189  17.817  17.292  0.00  0.00    +0.000 OA
BRANCH  14  16
ATOM     16  O   UNL     1      10.467  16.133  15.828  0.00  0.00    +0.000 OA
ATOM     17  H   UNL     1      11.233  16.582  15.405  0.00  0.00    +0.000 HD
ENDBRANCH  14  16
ENDBRANCH   5  14
BRANCH   6  18
ATOM     18  S   UNL     1       7.281  16.926  18.791  0.00  0.00    +0.000 S 
BRANCH  18  19
ATOM     19  C   UNL     1       5.908  16.024  19.393  0.00  0.00    +0.000 A 
ATOM     20  N   UNL     1       5.231  15.224  18.600  0.00  0.00    +0.000 NA
ATOM     21  C   UNL     1       4.102  14.759  19.258  0.00  0.00    +0.000 A 
ATOM     22  C   UNL     1       3.113  13.912  18.711  0.00  0.00    +0.000 A 
ATOM     23  C   UNL     1       2.014  13.507  19.490  0.00  0.00    +0.000 A 
ATOM     24  C   UNL     1       1.916  13.944  20.816  0.00  0.00    +0.000 A 
ATOM     25  C   UNL     1       2.875  14.796  21.375  0.00  0.00    +0.000 A 
ATOM     26  C   UNL     1       3.957  15.194  20.575  0.00  0.00    +0.000 A 
ATOM     27  S   UNL     1       5.268  16.238  20.965  0.00  0.00    +0.000 S 
BRANCH  23  28
ATOM     28  C   UNL     1       0.945  12.606  18.917  0.00  0.00    +0.000 C 
ATOM     29  F   UNL     1       1.437  11.527  18.248  0.00  0.00    +0.000 F 
ATOM     30  F   UNL     1       0.120  12.105  19.879  0.00  0.00    +0.000 F 
ATOM     31  F   UNL     1       0.137  13.256  18.035  0.00  0.00    +0.000 F 
ENDBRANCH  23  28
ENDBRANCH  18  19
ENDBRANCH   6  18
TORSDOF 7
ENDMDL
MODEL 9
REMARK VINA RESULT:      -6.8      6.138      9.242
REMARK  Name = 
REMARK  9 active torsions:
REMARK  status: ('A' for Active; 'I' for Inactive)
REMARK    1  A    between atoms: C_1  and  C_2
REMARK    2  A    between atoms: C_2  and  O_3
REMARK    3  A    between atoms: C_2  and  C_4
REMARK    4  A    between atoms: C_8  and  C_9
REMARK    5  A    between atoms: C_9  and  O_11
REMARK    6  A    between atoms: C_12  and  S_13
REMARK    7  A    between atoms: S_13  and  C_14
REMARK    8  A    between atoms: C_18  and  C_19
REMARK    9  A    between atoms: C_27  and  C_28
REMARK                            x       y       z     vdW  Elec       q    Type
REMARK                         _______ _______ _______ _____ _____    ______ ____
ROOT
ATOM      1  C   UNL     1      -2.037  11.895  18.494  0.00  0.00    +0.000 C 
ATOM      2  C   UNL     1      -2.125  12.255  19.992  0.00  0.00    +0.000 C 
ATOM      3  O   UNL     1      -2.337  13.224  20.680  0.00  0.00    +0.000 OA
ATOM      4  N   UNL     1      -1.743  11.005  20.372  0.00  0.00    +0.000 N 
ATOM      5  C   UNL     1      -0.701  10.786  21.250  0.00  0.00    +0.000 C 
ATOM      6  C   UNL     1       0.389  10.307  20.620  0.00  0.00    +0.000 C 
ATOM      7  C   UNL     1       0.179  10.312  19.117  0.00  0.00    +0.000 C 
ATOM      8  C   UNL     1       0.987  11.392  18.407  0.00  0.00    +0.000 C 
ATOM      9  C   UNL     1      -1.336  10.582  19.000  0.00  0.00    +0.000 C 
ENDROOT
BRANCH   1  11
ATOM     10  C   UNL     1      -3.717  10.246  17.617  0.00  0.00    +0.000 C 
ATOM     11  C   UNL     1      -3.378  11.720  17.797  0.00  0.00    +0.000 C 
BRANCH  11  12
ATOM     12  O   UNL     1      -4.376  12.358  18.592  0.00  0.00    +0.000 OA
ATOM     13  H   UNL     1      -5.092  11.723  18.768  0.00  0.00    +0.000 HD
ENDBRANCH  11  12
ENDBRANCH   1  11
BRANCH   5  14
ATOM     14  C   UNL     1      -0.900  10.977  22.716  0.00  0.00    +0.000 C 
ATOM     15  O   UNL     1      -0.355  10.306  23.578  0.00  0.00    +0.000 OA
BRANCH  14  16
ATOM     16  O   UNL     1      -1.753  11.979  23.026  0.00  0.00    +0.000 OA
ATOM     17  H   UNL     1      -1.515  12.507  23.821  0.00  0.00    +0.000 HD
ENDBRANCH  14  16
ENDBRANCH   5  14
BRANCH   6  18
ATOM     18  S   UNL     1       1.753   9.521  21.325  0.00  0.00    +0.000 S 
BRANCH  18  19
ATOM     19  C   UNL     1       1.837   8.073  20.347  0.00  0.00    +0.000 A 
ATOM     20  N   UNL     1       1.445   6.914  20.828  0.00  0.00    +0.000 NA
ATOM     21  C   UNL     1       1.764   5.904  19.933  0.00  0.00    +0.000 A 
ATOM     22  C   UNL     1       1.536   4.524  20.125  0.00  0.00    +0.000 A 
ATOM     23  C   UNL     1       1.903   3.598  19.131  0.00  0.00    +0.000 A 
ATOM     24  C   UNL     1       2.487   4.061  17.946  0.00  0.00    +0.000 A 
ATOM     25  C   UNL     1       2.738   5.422  17.740  0.00  0.00    +0.000 A 
ATOM     26  C   UNL     1       2.371   6.324  18.750  0.00  0.00    +0.000 A 
ATOM     27  S   UNL     1       2.565   8.034  18.799  0.00  0.00    +0.000 S 
BRANCH  23  28
ATOM     28  C   UNL     1       1.671   2.117  19.324  0.00  0.00    +0.000 C 
ATOM     29  F   UNL     1       1.527   1.750  20.627  0.00  0.00    +0.000 F 
ATOM     30  F   UNL     1       0.550   1.681  18.686  0.00  0.00    +0.000 F 
ATOM     31  F   UNL     1       2.695   1.364  18.835  0.00  0.00    +0.000 F 
ENDBRANCH  23  28
ENDBRANCH  18  19
ENDBRANCH   6  18
TORSDOF 7
ENDMDL
