MODEL 1
REMARK VINA RESULT:      -7.7      0.000      0.000
REMARK  Name = 
REMARK  11 active torsions:
REMARK  status: ('A' for Active; 'I' for Inactive)
REMARK    1  A    between atoms: C_1  and  C_2
REMARK    2  A    between atoms: C_4  and  C_5
REMARK    3  A    between atoms: C_5  and  C_6
REMARK    4  A    between atoms: C_10  and  C_11
REMARK    5  A    between atoms: C_12  and  N_13
REMARK    6  A    between atoms: N_16  and  C_17
REMARK    7  A    between atoms: C_23  and  C_24
REMARK    8  A    between atoms: N_26  and  CA_27
REMARK    9  A    between atoms: CA_27  and  C_28
REMARK   10  A    between atoms: CA_27  and  C_31
REMARK   11  A    between atoms: C_28  and  OXT_30
REMARK                            x       y       z     vdW  Elec       q    Type
REMARK                         _______ _______ _______ _____ _____    ______ ____
ROOT
ATOM      1  C   UNL     1       4.644   5.976  17.381  0.00  0.00    +0.000 A 
ATOM      2  C   UNL     1       4.924   6.376  16.070  0.00  0.00    +0.000 A 
ATOM      3  C   UNL     1       5.528   5.500  15.166  0.00  0.00    +0.000 A 
ATOM      4  F   UNL     1       5.787   5.913  13.922  0.00  0.00    +0.000 F 
ATOM      5  C   UNL     1       5.854   4.198  15.516  0.00  0.00    +0.000 A 
ATOM      6  C   UNL     1       5.606   3.770  16.817  0.00  0.00    +0.000 A 
ATOM      7  C   UNL     1       5.044   4.667  17.754  0.00  0.00    +0.000 A 
ENDROOT
BRANCH   1  11
ATOM      8  N   UNL     1       2.440   8.227  19.311  0.00  0.00    +0.000 N 
ATOM      9  C   UNL     1       2.783   7.553  18.143  0.00  0.00    +0.000 C 
ATOM     10  O   UNL     1       2.153   7.571  17.097  0.00  0.00    +0.000 OA
ATOM     11  N   UNL     1       3.972   6.823  18.320  0.00  0.00    +0.000 N 
ATOM     12  H   UNL     1       2.912   7.847  20.112  0.00  0.00    +0.000 HD
ATOM     13  H   UNL     1       4.399   6.840  19.246  0.00  0.00    +0.000 HD
BRANCH   8  21
ATOM     14  C   UNL     1       0.679   7.629  21.531  0.00  0.00    +0.000 C 
ATOM     15  C   UNL     1       0.603   8.925  20.754  0.00  0.00    +0.000 A 
ATOM     16  C   UNL     1      -0.385   9.846  21.198  0.00  0.00    +0.000 A 
ATOM     17  C   UNL     1      -0.609  11.046  20.534  0.00  0.00    +0.000 A 
ATOM     18  C   UNL     1       0.144  11.278  19.384  0.00  0.00    +0.000 A 
ATOM     19  C   UNL     1       1.215  10.439  18.968  0.00  0.00    +0.000 A 
ATOM     20  C   UNL     1       2.037  11.050  17.868  0.00  0.00    +0.000 C 
ATOM     21  C   UNL     1       1.435   9.207  19.621  0.00  0.00    +0.000 A 
BRANCH  17  22
ATOM     22  C   UNL     1      -1.625  12.082  20.957  0.00  0.00    +0.000 C 
BRANCH  22  23
ATOM     23  C   UNL     1      -2.466  12.641  19.840  0.00  0.00    +0.000 C 
ATOM     24  C   UNL     1      -3.337  11.800  18.937  0.00  0.00    +0.000 C 
ATOM     25  C   UNL     1      -3.968  12.645  20.002  0.00  0.00    +0.000 C 
ENDBRANCH  22  23
ENDBRANCH  17  22
ENDBRANCH   8  21
ENDBRANCH   1  11
BRANCH   7  26
ATOM     26  C   UNL     1       4.877   4.154  19.133  0.00  0.00    +0.000 C 
ATOM     27  O   UNL     1       5.034   4.928  20.067  0.00  0.00    +0.000 OA
ATOM     28  N   UNL     1       4.537   2.816  19.246  0.00  0.00    +0.000 N 
ATOM     29  H   UNL     1       4.282   2.306  18.411  0.00  0.00    +0.000 HD
BRANCH  28  30
ATOM     30  CA  UNL     1       4.092   2.200  20.510  0.00  0.00    +0.000 C 
BRANCH  30  31
ATOM     31  C   UNL     1       2.540   2.106  20.606  0.00  0.00    +0.000 C 
ATOM     32  C   UNL     1       1.787   3.078  21.515  0.00  0.00    +0.000 C 
ATOM     33  C   UNL     1       1.711   4.473  20.925  0.00  0.00    +0.000 C 
ATOM     34  C   UNL     1       1.117   4.492  19.518  0.00  0.00    +0.000 C 
ATOM     35  C   UNL     1       1.542   3.352  18.590  0.00  0.00    +0.000 C 
ATOM     36  C   UNL     1       1.764   2.015  19.283  0.00  0.00    +0.000 C 
ENDBRANCH  30  31
BRANCH  30  37
ATOM     37  C   UNL     1       5.186   1.162  20.839  0.00  0.00    +0.000 C 
ATOM     38  O   UNL     1       5.740   1.085  21.938  0.00  0.00    +0.000 OA
BRANCH  37  39
ATOM     39  OXT UNL     1       5.493   0.252  19.916  0.00  0.00    +0.000 OA
ATOM     40  HXT UNL     1       5.370   0.733  19.068  0.00  0.00    +0.000 HD
ENDBRANCH  37  39
ENDBRANCH  30  37
ENDBRANCH  28  30
ENDBRANCH   7  26
TORSDOF 9
ENDMDL
MODEL 2
REMARK VINA RESULT:      -7.6      0.328      1.492
REMARK  Name = 
REMARK  11 active torsions:
REMARK  status: ('A' for Active; 'I' for Inactive)
REMARK    1  A    between atoms: C_1  and  C_2
REMARK    2  A    between atoms: C_4  and  C_5
REMARK    3  A    between atoms: C_5  and  C_6
REMARK    4  A    between atoms: C_10  and  C_11
REMARK    5  A    between atoms: C_12  and  N_13
REMARK    6  A    between atoms: N_16  and  C_17
REMARK    7  A    between atoms: C_23  and  C_24
REMARK    8  A    between atoms: N_26  and  CA_27
REMARK    9  A    between atoms: CA_27  and  C_28
REMARK   10  A    between atoms: CA_27  and  C_31
REMARK   11  A    between atoms: C_28  and  OXT_30
REMARK                            x       y       z     vdW  Elec       q    Type
REMARK                         _______ _______ _______ _____ _____    ______ ____
ROOT
ATOM      1  C   UNL     1       4.677   5.987  17.296  0.00  0.00    +0.000 A 
ATOM      2  C   UNL     1       4.986   6.352  15.982  0.00  0.00    +0.000 A 
ATOM      3  C   UNL     1       5.529   5.426  15.089  0.00  0.00    +0.000 A 
ATOM      4  F   UNL     1       5.819   5.806  13.841  0.00  0.00    +0.000 F 
ATOM      5  C   UNL     1       5.762   4.108  15.454  0.00  0.00    +0.000 A 
ATOM      6  C   UNL     1       5.482   3.713  16.758  0.00  0.00    +0.000 A 
ATOM      7  C   UNL     1       4.982   4.657  17.684  0.00  0.00    +0.000 A 
ENDROOT
BRANCH   1  11
ATOM      8  N   UNL     1       2.534   8.223  19.312  0.00  0.00    +0.000 N 
ATOM      9  C   UNL     1       2.754   7.401  18.211  0.00  0.00    +0.000 C 
ATOM     10  O   UNL     1       1.937   7.137  17.342  0.00  0.00    +0.000 OA
ATOM     11  N   UNL     1       4.064   6.890  18.225  0.00  0.00    +0.000 N 
ATOM     12  H   UNL     1       3.214   8.066  20.035  0.00  0.00    +0.000 HD
ATOM     13  H   UNL     1       4.656   7.136  19.018  0.00  0.00    +0.000 HD
BRANCH   8  21
ATOM     14  C   UNL     1       2.206  10.641  17.753  0.00  0.00    +0.000 C 
ATOM     15  C   UNL     1       1.269  10.261  18.879  0.00  0.00    +0.000 A 
ATOM     16  C   UNL     1       0.198  11.165  19.113  0.00  0.00    +0.000 A 
ATOM     17  C   UNL     1      -0.698  10.974  20.157  0.00  0.00    +0.000 A 
ATOM     18  C   UNL     1      -0.465   9.885  20.994  0.00  0.00    +0.000 A 
ATOM     19  C   UNL     1       0.524   8.896  20.733  0.00  0.00    +0.000 A 
ATOM     20  C   UNL     1       0.391   7.692  21.622  0.00  0.00    +0.000 C 
ATOM     21  C   UNL     1       1.454   9.093  19.689  0.00  0.00    +0.000 A 
BRANCH  17  22
ATOM     22  C   UNL     1      -1.871  11.881  20.457  0.00  0.00    +0.000 C 
BRANCH  22  23
ATOM     23  C   UNL     1      -2.647  12.337  19.250  0.00  0.00    +0.000 C 
ATOM     24  C   UNL     1      -3.231  11.401  18.219  0.00  0.00    +0.000 C 
ATOM     25  C   UNL     1      -4.134  12.072  19.208  0.00  0.00    +0.000 C 
ENDBRANCH  22  23
ENDBRANCH  17  22
ENDBRANCH   8  21
ENDBRANCH   1  11
BRANCH   7  26
ATOM     26  C   UNL     1       4.778   4.173  19.069  0.00  0.00    +0.000 C 
ATOM     27  O   UNL     1       4.827   4.982  19.984  0.00  0.00    +0.000 OA
ATOM     28  N   UNL     1       4.529   2.817  19.207  0.00  0.00    +0.000 N 
ATOM     29  H   UNL     1       4.359   2.266  18.376  0.00  0.00    +0.000 HD
BRANCH  28  30
ATOM     30  CA  UNL     1       4.062   2.206  20.464  0.00  0.00    +0.000 C 
BRANCH  30  31
ATOM     31  C   UNL     1       2.510   2.072  20.513  0.00  0.00    +0.000 C 
ATOM     32  C   UNL     1       1.718   2.918  21.511  0.00  0.00    +0.000 C 
ATOM     33  C   UNL     1       1.625   4.371  21.084  0.00  0.00    +0.000 C 
ATOM     34  C   UNL     1       1.059   4.541  19.675  0.00  0.00    +0.000 C 
ATOM     35  C   UNL     1       1.527   3.523  18.632  0.00  0.00    +0.000 C 
ATOM     36  C   UNL     1       1.763   2.120  19.172  0.00  0.00    +0.000 C 
ENDBRANCH  30  31
BRANCH  30  37
ATOM     37  C   UNL     1       5.171   1.200  20.841  0.00  0.00    +0.000 C 
ATOM     38  O   UNL     1       5.717   1.175  21.946  0.00  0.00    +0.000 OA
BRANCH  37  39
ATOM     39  OXT UNL     1       5.503   0.263  19.955  0.00  0.00    +0.000 OA
ATOM     40  HXT UNL     1       5.323   0.689  19.089  0.00  0.00    +0.000 HD
ENDBRANCH  37  39
ENDBRANCH  30  37
ENDBRANCH  28  30
ENDBRANCH   7  26
TORSDOF 9
ENDMDL
MODEL 3
REMARK VINA RESULT:      -7.6      1.203      1.429
REMARK  Name = 
REMARK  11 active torsions:
REMARK  status: ('A' for Active; 'I' for Inactive)
REMARK    1  A    between atoms: C_1  and  C_2
REMARK    2  A    between atoms: C_4  and  C_5
REMARK    3  A    between atoms: C_5  and  C_6
REMARK    4  A    between atoms: C_10  and  C_11
REMARK    5  A    between atoms: C_12  and  N_13
REMARK    6  A    between atoms: N_16  and  C_17
REMARK    7  A    between atoms: C_23  and  C_24
REMARK    8  A    between atoms: N_26  and  CA_27
REMARK    9  A    between atoms: CA_27  and  C_28
REMARK   10  A    between atoms: CA_27  and  C_31
REMARK   11  A    between atoms: C_28  and  OXT_30
REMARK                            x       y       z     vdW  Elec       q    Type
REMARK                         _______ _______ _______ _____ _____    ______ ____
ROOT
ATOM      1  C   UNL     1       3.955   6.403  17.666  0.00  0.00    +0.000 A 
ATOM      2  C   UNL     1       4.271   7.014  16.448  0.00  0.00    +0.000 A 
ATOM      3  C   UNL     1       5.180   6.426  15.565  0.00  0.00    +0.000 A 
ATOM      4  F   UNL     1       5.465   7.036  14.411  0.00  0.00    +0.000 F 
ATOM      5  C   UNL     1       5.787   5.210  15.842  0.00  0.00    +0.000 A 
ATOM      6  C   UNL     1       5.509   4.581  17.052  0.00  0.00    +0.000 A 
ATOM      7  C   UNL     1       4.631   5.194  17.975  0.00  0.00    +0.000 A 
ENDROOT
BRANCH   1  11
ATOM      8  N   UNL     1       1.391   8.292  19.538  0.00  0.00    +0.000 N 
ATOM      9  C   UNL     1       2.268   8.147  18.468  0.00  0.00    +0.000 C 
ATOM     10  O   UNL     1       2.411   8.939  17.549  0.00  0.00    +0.000 OA
ATOM     11  N   UNL     1       2.984   6.941  18.571  0.00  0.00    +0.000 N 
ATOM     12  H   UNL     1       1.219   7.417  20.001  0.00  0.00    +0.000 HD
ATOM     13  H   UNL     1       2.760   6.328  19.355  0.00  0.00    +0.000 HD
BRANCH   8  21
ATOM     14  C   UNL     1       1.667   9.076  22.312  0.00  0.00    +0.000 C 
ATOM     15  C   UNL     1       0.743   9.789  21.350  0.00  0.00    +0.000 A 
ATOM     16  C   UNL     1       0.026  10.889  21.894  0.00  0.00    +0.000 A 
ATOM     17  C   UNL     1      -0.907  11.591  21.142  0.00  0.00    +0.000 A 
ATOM     18  C   UNL     1      -1.143  11.133  19.847  0.00  0.00    +0.000 A 
ATOM     19  C   UNL     1      -0.372  10.111  19.227  0.00  0.00    +0.000 A 
ATOM     20  C   UNL     1      -0.639   9.996  17.752  0.00  0.00    +0.000 C 
ATOM     21  C   UNL     1       0.561   9.376  19.990  0.00  0.00    +0.000 A 
BRANCH  17  22
ATOM     22  C   UNL     1      -1.693  12.781  21.644  0.00  0.00    +0.000 C 
BRANCH  22  23
ATOM     23  C   UNL     1      -3.057  12.457  22.191  0.00  0.00    +0.000 C 
ATOM     24  C   UNL     1      -3.413  12.510  23.658  0.00  0.00    +0.000 C 
ATOM     25  C   UNL     1      -3.902  13.586  22.736  0.00  0.00    +0.000 C 
ENDBRANCH  22  23
ENDBRANCH  17  22
ENDBRANCH   8  21
ENDBRANCH   1  11
BRANCH   7  26
ATOM     26  C   UNL     1       4.444   4.494  19.267  0.00  0.00    +0.000 C 
ATOM     27  O   UNL     1       4.443   5.155  20.295  0.00  0.00    +0.000 OA
ATOM     28  N   UNL     1       4.269   3.122  19.193  0.00  0.00    +0.000 N 
ATOM     29  H   UNL     1       4.135   2.696  18.286  0.00  0.00    +0.000 HD
BRANCH  28  30
ATOM     30  CA  UNL     1       3.828   2.302  20.336  0.00  0.00    +0.000 C 
BRANCH  30  31
ATOM     31  C   UNL     1       2.286   2.080  20.341  0.00  0.00    +0.000 C 
ATOM     32  C   UNL     1       1.415   2.904  21.291  0.00  0.00    +0.000 C 
ATOM     33  C   UNL     1       1.252   4.337  20.822  0.00  0.00    +0.000 C 
ATOM     34  C   UNL     1       0.724   4.439  19.392  0.00  0.00    +0.000 C 
ATOM     35  C   UNL     1       1.282   3.424  18.392  0.00  0.00    +0.000 C 
ATOM     36  C   UNL     1       1.580   2.051  18.977  0.00  0.00    +0.000 C 
ENDBRANCH  30  31
BRANCH  30  37
ATOM     37  C   UNL     1       4.988   1.311  20.572  0.00  0.00    +0.000 C 
ATOM     38  O   UNL     1       5.688   1.315  21.587  0.00  0.00    +0.000 OA
BRANCH  37  39
ATOM     39  OXT UNL     1       5.196   0.354  19.669  0.00  0.00    +0.000 OA
ATOM     40  HXT UNL     1       6.173   0.339  19.568  0.00  0.00    +0.000 HD
ENDBRANCH  37  39
ENDBRANCH  30  37
ENDBRANCH  28  30
ENDBRANCH   7  26
TORSDOF 9
ENDMDL
MODEL 4
REMARK VINA RESULT:      -7.5      0.589      1.717
REMARK  Name = 
REMARK  11 active torsions:
REMARK  status: ('A' for Active; 'I' for Inactive)
REMARK    1  A    between atoms: C_1  and  C_2
REMARK    2  A    between atoms: C_4  and  C_5
REMARK    3  A    between atoms: C_5  and  C_6
REMARK    4  A    between atoms: C_10  and  C_11
REMARK    5  A    between atoms: C_12  and  N_13
REMARK    6  A    between atoms: N_16  and  C_17
REMARK    7  A    between atoms: C_23  and  C_24
REMARK    8  A    between atoms: N_26  and  CA_27
REMARK    9  A    between atoms: CA_27  and  C_28
REMARK   10  A    between atoms: CA_27  and  C_31
REMARK   11  A    between atoms: C_28  and  OXT_30
REMARK                            x       y       z     vdW  Elec       q    Type
REMARK                         _______ _______ _______ _____ _____    ______ ____
ROOT
ATOM      1  C   UNL     1       4.694   5.991  17.280  0.00  0.00    +0.000 A 
ATOM      2  C   UNL     1       4.961   6.354  15.955  0.00  0.00    +0.000 A 
ATOM      3  C   UNL     1       5.520   5.439  15.060  0.00  0.00    +0.000 A 
ATOM      4  F   UNL     1       5.768   5.817  13.802  0.00  0.00    +0.000 F 
ATOM      5  C   UNL     1       5.810   4.135  15.432  0.00  0.00    +0.000 A 
ATOM      6  C   UNL     1       5.573   3.743  16.746  0.00  0.00    +0.000 A 
ATOM      7  C   UNL     1       5.058   4.677  17.674  0.00  0.00    +0.000 A 
ENDROOT
BRANCH   1  11
ATOM      8  N   UNL     1       2.526   8.209  19.287  0.00  0.00    +0.000 N 
ATOM      9  C   UNL     1       2.767   7.412  18.172  0.00  0.00    +0.000 C 
ATOM     10  O   UNL     1       1.973   7.185  17.272  0.00  0.00    +0.000 OA
ATOM     11  N   UNL     1       4.067   6.879  18.213  0.00  0.00    +0.000 N 
ATOM     12  H   UNL     1       3.181   8.022  20.027  0.00  0.00    +0.000 HD
ATOM     13  H   UNL     1       4.638   7.095  19.030  0.00  0.00    +0.000 HD
BRANCH   8  21
ATOM     14  C   UNL     1       2.245  10.641  17.742  0.00  0.00    +0.000 C 
ATOM     15  C   UNL     1       1.288  10.263  18.850  0.00  0.00    +0.000 A 
ATOM     16  C   UNL     1       0.222  11.176  19.075  0.00  0.00    +0.000 A 
ATOM     17  C   UNL     1      -0.691  10.987  20.103  0.00  0.00    +0.000 A 
ATOM     18  C   UNL     1      -0.481   9.889  20.936  0.00  0.00    +0.000 A 
ATOM     19  C   UNL     1       0.501   8.892  20.683  0.00  0.00    +0.000 A 
ATOM     20  C   UNL     1       0.342   7.683  21.561  0.00  0.00    +0.000 C 
ATOM     21  C   UNL     1       1.449   9.087  19.654  0.00  0.00    +0.000 A 
BRANCH  17  22
ATOM     22  C   UNL     1      -1.860  11.902  20.392  0.00  0.00    +0.000 C 
BRANCH  22  23
ATOM     23  C   UNL     1      -1.719  12.742  21.633  0.00  0.00    +0.000 C 
ATOM     24  C   UNL     1      -2.793  13.667  22.153  0.00  0.00    +0.000 C 
ATOM     25  C   UNL     1      -2.531  12.368  22.852  0.00  0.00    +0.000 C 
ENDBRANCH  22  23
ENDBRANCH  17  22
ENDBRANCH   8  21
ENDBRANCH   1  11
BRANCH   7  26
ATOM     26  C   UNL     1       4.902   4.200  19.067  0.00  0.00    +0.000 C 
ATOM     27  O   UNL     1       5.084   4.992  19.980  0.00  0.00    +0.000 OA
ATOM     28  N   UNL     1       4.541   2.871  19.216  0.00  0.00    +0.000 N 
ATOM     29  H   UNL     1       4.267   2.346  18.396  0.00  0.00    +0.000 HD
BRANCH  28  30
ATOM     30  CA  UNL     1       4.103   2.292  20.499  0.00  0.00    +0.000 C 
BRANCH  30  31
ATOM     31  C   UNL     1       2.551   2.228  20.618  0.00  0.00    +0.000 C 
ATOM     32  C   UNL     1       1.822   3.282  21.454  0.00  0.00    +0.000 C 
ATOM     33  C   UNL     1       1.758   4.626  20.755  0.00  0.00    +0.000 C 
ATOM     34  C   UNL     1       1.148   4.541  19.356  0.00  0.00    +0.000 C 
ATOM     35  C   UNL     1       1.547   3.324  18.519  0.00  0.00    +0.000 C 
ATOM     36  C   UNL     1       1.758   2.043  19.315  0.00  0.00    +0.000 C 
ENDBRANCH  30  31
BRANCH  30  37
ATOM     37  C   UNL     1       5.182   1.241  20.837  0.00  0.00    +0.000 C 
ATOM     38  O   UNL     1       5.730   1.161  21.938  0.00  0.00    +0.000 OA
BRANCH  37  39
ATOM     39  OXT UNL     1       5.482   0.325  19.918  0.00  0.00    +0.000 OA
ATOM     40  HXT UNL     1       5.601  -0.498  20.441  0.00  0.00    +0.000 HD
ENDBRANCH  37  39
ENDBRANCH  30  37
ENDBRANCH  28  30
ENDBRANCH   7  26
TORSDOF 9
ENDMDL
MODEL 5
REMARK VINA RESULT:      -7.4      0.807      1.245
REMARK  Name = 
REMARK  11 active torsions:
REMARK  status: ('A' for Active; 'I' for Inactive)
REMARK    1  A    between atoms: C_1  and  C_2
REMARK    2  A    between atoms: C_4  and  C_5
REMARK    3  A    between atoms: C_5  and  C_6
REMARK    4  A    between atoms: C_10  and  C_11
REMARK    5  A    between atoms: C_12  and  N_13
REMARK    6  A    between atoms: N_16  and  C_17
REMARK    7  A    between atoms: C_23  and  C_24
REMARK    8  A    between atoms: N_26  and  CA_27
REMARK    9  A    between atoms: CA_27  and  C_28
REMARK   10  A    between atoms: CA_27  and  C_31
REMARK   11  A    between atoms: C_28  and  OXT_30
REMARK                            x       y       z     vdW  Elec       q    Type
REMARK                         _______ _______ _______ _____ _____    ______ ____
ROOT
ATOM      1  C   UNL     1       4.502   6.067  17.398  0.00  0.00    +0.000 A 
ATOM      2  C   UNL     1       4.756   6.521  16.099  0.00  0.00    +0.000 A 
ATOM      3  C   UNL     1       5.461   5.730  15.190  0.00  0.00    +0.000 A 
ATOM      4  F   UNL     1       5.693   6.193  13.957  0.00  0.00    +0.000 F 
ATOM      5  C   UNL     1       5.918   4.464  15.521  0.00  0.00    +0.000 A 
ATOM      6  C   UNL     1       5.698   3.986  16.810  0.00  0.00    +0.000 A 
ATOM      7  C   UNL     1       5.032   4.800  17.754  0.00  0.00    +0.000 A 
ENDROOT
BRANCH   1  11
ATOM      8  N   UNL     1       2.201   8.263  19.279  0.00  0.00    +0.000 N 
ATOM      9  C   UNL     1       2.741   7.787  18.089  0.00  0.00    +0.000 C 
ATOM     10  O   UNL     1       2.414   8.137  16.965  0.00  0.00    +0.000 OA
ATOM     11  N   UNL     1       3.730   6.820  18.342  0.00  0.00    +0.000 N 
ATOM     12  H   UNL     1       2.391   7.644  20.048  0.00  0.00    +0.000 HD
ATOM     13  H   UNL     1       3.900   6.566  19.315  0.00  0.00    +0.000 HD
BRANCH   8  21
ATOM     14  C   UNL     1       0.352   7.817  21.462  0.00  0.00    +0.000 C 
ATOM     15  C   UNL     1       0.419   9.124  20.703  0.00  0.00    +0.000 A 
ATOM     16  C   UNL     1      -0.478  10.134  21.145  0.00  0.00    +0.000 A 
ATOM     17  C   UNL     1      -0.569  11.358  20.496  0.00  0.00    +0.000 A 
ATOM     18  C   UNL     1       0.222  11.528  19.361  0.00  0.00    +0.000 A 
ATOM     19  C   UNL     1       1.211  10.592  18.950  0.00  0.00    +0.000 A 
ATOM     20  C   UNL     1       2.108  11.131  17.872  0.00  0.00    +0.000 C 
ATOM     21  C   UNL     1       1.295   9.336  19.588  0.00  0.00    +0.000 A 
BRANCH  17  22
ATOM     22  C   UNL     1      -1.484  12.486  20.917  0.00  0.00    +0.000 C 
BRANCH  22  23
ATOM     23  C   UNL     1      -0.855  13.509  21.825  0.00  0.00    +0.000 C 
ATOM     24  C   UNL     1       0.592  13.931  21.746  0.00  0.00    +0.000 C 
ATOM     25  C   UNL     1      -0.478  14.852  21.243  0.00  0.00    +0.000 C 
ENDBRANCH  22  23
ENDBRANCH  17  22
ENDBRANCH   8  21
ENDBRANCH   1  11
BRANCH   7  26
ATOM     26  C   UNL     1       4.901   4.246  19.121  0.00  0.00    +0.000 C 
ATOM     27  O   UNL     1       5.145   4.974  20.072  0.00  0.00    +0.000 OA
ATOM     28  N   UNL     1       4.491   2.925  19.203  0.00  0.00    +0.000 N 
ATOM     29  H   UNL     1       4.169   2.462  18.364  0.00  0.00    +0.000 HD
BRANCH  28  30
ATOM     30  CA  UNL     1       4.071   2.288  20.464  0.00  0.00    +0.000 C 
BRANCH  30  31
ATOM     31  C   UNL     1       2.522   2.247  20.618  0.00  0.00    +0.000 C 
ATOM     32  C   UNL     1       1.835   3.253  21.543  0.00  0.00    +0.000 C 
ATOM     33  C   UNL     1       1.785   4.644  20.942  0.00  0.00    +0.000 C 
ATOM     34  C   UNL     1       1.140   4.670  19.557  0.00  0.00    +0.000 C 
ATOM     35  C   UNL     1       1.492   3.508  18.627  0.00  0.00    +0.000 C 
ATOM     36  C   UNL     1       1.694   2.170  19.326  0.00  0.00    +0.000 C 
ENDBRANCH  30  31
BRANCH  30  37
ATOM     37  C   UNL     1       5.137   1.200  20.721  0.00  0.00    +0.000 C 
ATOM     38  O   UNL     1       5.776   1.109  21.771  0.00  0.00    +0.000 OA
BRANCH  37  39
ATOM     39  OXT UNL     1       5.322   0.265  19.790  0.00  0.00    +0.000 OA
ATOM     40  HXT UNL     1       6.265   0.373  19.538  0.00  0.00    +0.000 HD
ENDBRANCH  37  39
ENDBRANCH  30  37
ENDBRANCH  28  30
ENDBRANCH   7  26
TORSDOF 9
ENDMDL
MODEL 6
REMARK VINA RESULT:      -7.4      2.576      5.009
REMARK  Name = 
REMARK  11 active torsions:
REMARK  status: ('A' for Active; 'I' for Inactive)
REMARK    1  A    between atoms: C_1  and  C_2
REMARK    2  A    between atoms: C_4  and  C_5
REMARK    3  A    between atoms: C_5  and  C_6
REMARK    4  A    between atoms: C_10  and  C_11
REMARK    5  A    between atoms: C_12  and  N_13
REMARK    6  A    between atoms: N_16  and  C_17
REMARK    7  A    between atoms: C_23  and  C_24
REMARK    8  A    between atoms: N_26  and  CA_27
REMARK    9  A    between atoms: CA_27  and  C_28
REMARK   10  A    between atoms: CA_27  and  C_31
REMARK   11  A    between atoms: C_28  and  OXT_30
REMARK                            x       y       z     vdW  Elec       q    Type
REMARK                         _______ _______ _______ _____ _____    ______ ____
ROOT
ATOM      1  C   UNL     1       3.012   4.736  20.252  0.00  0.00    +0.000 A 
ATOM      2  C   UNL     1       2.284   3.972  21.170  0.00  0.00    +0.000 A 
ATOM      3  C   UNL     1       2.542   2.609  21.332  0.00  0.00    +0.000 A 
ATOM      4  F   UNL     1       1.827   1.904  22.214  0.00  0.00    +0.000 F 
ATOM      5  C   UNL     1       3.537   1.963  20.615  0.00  0.00    +0.000 A 
ATOM      6  C   UNL     1       4.271   2.688  19.681  0.00  0.00    +0.000 A 
ATOM      7  C   UNL     1       3.982   4.055  19.471  0.00  0.00    +0.000 A 
ENDROOT
BRANCH   1  11
ATOM      8  N   UNL     1       1.919   8.265  20.168  0.00  0.00    +0.000 N 
ATOM      9  C   UNL     1       1.698   6.920  20.447  0.00  0.00    +0.000 C 
ATOM     10  O   UNL     1       0.681   6.450  20.934  0.00  0.00    +0.000 OA
ATOM     11  N   UNL     1       2.820   6.148  20.098  0.00  0.00    +0.000 N 
ATOM     12  H   UNL     1       2.898   8.466  20.059  0.00  0.00    +0.000 HD
ATOM     13  H   UNL     1       3.636   6.642  19.738  0.00  0.00    +0.000 HD
BRANCH   8  21
ATOM     14  C   UNL     1       1.596   9.682  17.664  0.00  0.00    +0.000 C 
ATOM     15  C   UNL     1       0.877  10.089  18.931  0.00  0.00    +0.000 A 
ATOM     16  C   UNL     1       0.013  11.211  18.810  0.00  0.00    +0.000 A 
ATOM     17  C   UNL     1      -0.658  11.733  19.908  0.00  0.00    +0.000 A 
ATOM     18  C   UNL     1      -0.401  11.138  21.142  0.00  0.00    +0.000 A 
ATOM     19  C   UNL     1       0.367   9.950  21.292  0.00  0.00    +0.000 A 
ATOM     20  C   UNL     1       0.265   9.363  22.672  0.00  0.00    +0.000 C 
ATOM     21  C   UNL     1       1.071   9.425  20.187  0.00  0.00    +0.000 A 
BRANCH  17  22
ATOM     22  C   UNL     1      -1.607  12.908  19.854  0.00  0.00    +0.000 C 
BRANCH  22  23
ATOM     23  C   UNL     1      -2.661  12.925  20.929  0.00  0.00    +0.000 C 
ATOM     24  C   UNL     1      -3.554  14.108  21.217  0.00  0.00    +0.000 C 
ATOM     25  C   UNL     1      -4.114  12.910  20.512  0.00  0.00    +0.000 C 
ENDBRANCH  22  23
ENDBRANCH  17  22
ENDBRANCH   8  21
ENDBRANCH   1  11
BRANCH   7  26
ATOM     26  C   UNL     1       4.760   4.735  18.411  0.00  0.00    +0.000 C 
ATOM     27  O   UNL     1       4.772   5.957  18.388  0.00  0.00    +0.000 OA
ATOM     28  N   UNL     1       5.431   3.908  17.526  0.00  0.00    +0.000 N 
ATOM     29  H   UNL     1       5.479   2.918  17.725  0.00  0.00    +0.000 HD
BRANCH  28  30
ATOM     30  CA  UNL     1       6.442   4.398  16.571  0.00  0.00    +0.000 C 
BRANCH  30  31
ATOM     31  C   UNL     1       5.798   5.083  15.330  0.00  0.00    +0.000 C 
ATOM     32  C   UNL     1       6.656   5.991  14.448  0.00  0.00    +0.000 C 
ATOM     33  C   UNL     1       7.613   5.204  13.574  0.00  0.00    +0.000 C 
ATOM     34  C   UNL     1       6.910   4.148  12.723  0.00  0.00    +0.000 C 
ATOM     35  C   UNL     1       5.776   3.378  13.404  0.00  0.00    +0.000 C 
ATOM     36  C   UNL     1       4.961   4.193  14.398  0.00  0.00    +0.000 C 
ENDBRANCH  30  31
BRANCH  30  37
ATOM     37  C   UNL     1       7.631   4.832  17.456  0.00  0.00    +0.000 C 
ATOM     38  O   UNL     1       8.474   4.046  17.893  0.00  0.00    +0.000 OA
BRANCH  37  39
ATOM     39  OXT UNL     1       7.800   6.131  17.696  0.00  0.00    +0.000 OA
ATOM     40  HXT UNL     1       6.883   6.484  17.711  0.00  0.00    +0.000 HD
ENDBRANCH  37  39
ENDBRANCH  30  37
ENDBRANCH  28  30
ENDBRANCH   7  26
TORSDOF 9
ENDMDL
MODEL 7
REMARK VINA RESULT:      -7.4      5.413     10.977
REMARK  Name = 
REMARK  11 active torsions:
REMARK  status: ('A' for Active; 'I' for Inactive)
REMARK    1  A    between atoms: C_1  and  C_2
REMARK    2  A    between atoms: C_4  and  C_5
REMARK    3  A    between atoms: C_5  and  C_6
REMARK    4  A    between atoms: C_10  and  C_11
REMARK    5  A    between atoms: C_12  and  N_13
REMARK    6  A    between atoms: N_16  and  C_17
REMARK    7  A    between atoms: C_23  and  C_24
REMARK    8  A    between atoms: N_26  and  CA_27
REMARK    9  A    between atoms: CA_27  and  C_28
REMARK   10  A    between atoms: CA_27  and  C_31
REMARK   11  A    between atoms: C_28  and  OXT_30
REMARK                            x       y       z     vdW  Elec       q    Type
REMARK                         _______ _______ _______ _____ _____    ______ ____
ROOT
ATOM      1  C   UNL     1       0.163  14.725  20.535  0.00  0.00    +0.000 A 
ATOM      2  C   UNL     1       0.944  15.544  19.713  0.00  0.00    +0.000 A 
ATOM      3  C   UNL     1       1.127  16.895  20.014  0.00  0.00    +0.000 A 
ATOM      4  F   UNL     1       1.876  17.654  19.207  0.00  0.00    +0.000 F 
ATOM      5  C   UNL     1       0.568  17.476  21.142  0.00  0.00    +0.000 A 
ATOM      6  C   UNL     1      -0.230  16.696  21.974  0.00  0.00    +0.000 A 
ATOM      7  C   UNL     1      -0.464  15.340  21.649  0.00  0.00    +0.000 A 
ENDROOT
BRANCH   1  11
ATOM      8  N   UNL     1       0.333  11.045  20.256  0.00  0.00    +0.000 N 
ATOM      9  C   UNL     1       0.873  12.272  20.628  0.00  0.00    +0.000 C 
ATOM     10  O   UNL     1       1.952  12.440  21.175  0.00  0.00    +0.000 OA
ATOM     11  N   UNL     1      -0.001  13.322  20.296  0.00  0.00    +0.000 N 
ATOM     12  H   UNL     1      -0.658  11.105  20.104  0.00  0.00    +0.000 HD
ATOM     13  H   UNL     1      -0.898  13.072  19.880  0.00  0.00    +0.000 HD
BRANCH   8  21
ATOM     14  C   UNL     1      -0.112   9.418  22.609  0.00  0.00    +0.000 C 
ATOM     15  C   UNL     1       0.588   8.894  21.375  0.00  0.00    +0.000 A 
ATOM     16  C   UNL     1       1.002   7.536  21.438  0.00  0.00    +0.000 A 
ATOM     17  C   UNL     1       1.715   6.945  20.402  0.00  0.00    +0.000 A 
ATOM     18  C   UNL     1       2.050   7.763  19.324  0.00  0.00    +0.000 A 
ATOM     19  C   UNL     1       1.564   9.091  19.169  0.00  0.00    +0.000 A 
ATOM     20  C   UNL     1       1.840   9.654  17.804  0.00  0.00    +0.000 C 
ATOM     21  C   UNL     1       0.859   9.707  20.226  0.00  0.00    +0.000 A 
BRANCH  17  22
ATOM     22  C   UNL     1       2.172   5.504  20.389  0.00  0.00    +0.000 C 
BRANCH  22  23
ATOM     23  C   UNL     1       1.066   4.486  20.468  0.00  0.00    +0.000 C 
ATOM     24  C   UNL     1       1.022   3.222  19.642  0.00  0.00    +0.000 C 
ATOM     25  C   UNL     1       1.365   3.145  21.099  0.00  0.00    +0.000 C 
ENDBRANCH  22  23
ENDBRANCH  17  22
ENDBRANCH   8  21
ENDBRANCH   1  11
BRANCH   7  26
ATOM     26  C   UNL     1      -1.380  14.600  22.547  0.00  0.00    +0.000 C 
ATOM     27  O   UNL     1      -0.940  13.648  23.174  0.00  0.00    +0.000 OA
ATOM     28  N   UNL     1      -2.681  15.070  22.608  0.00  0.00    +0.000 N 
ATOM     29  H   UNL     1      -2.902  15.954  22.167  0.00  0.00    +0.000 HD
BRANCH  28  30
ATOM     30  CA  UNL     1      -3.655  14.622  23.619  0.00  0.00    +0.000 C 
BRANCH  30  31
ATOM     31  C   UNL     1      -4.020  13.115  23.461  0.00  0.00    +0.000 C 
ATOM     32  C   UNL     1      -5.026  12.484  24.424  0.00  0.00    +0.000 C 
ATOM     33  C   UNL     1      -6.451  12.907  24.123  0.00  0.00    +0.000 C 
ATOM     34  C   UNL     1      -6.859  12.638  22.676  0.00  0.00    +0.000 C 
ATOM     35  C   UNL     1      -5.796  12.918  21.611  0.00  0.00    +0.000 C 
ATOM     36  C   UNL     1      -4.367  12.627  22.046  0.00  0.00    +0.000 C 
ENDBRANCH  30  31
BRANCH  30  37
ATOM     37  C   UNL     1      -3.313  15.447  24.879  0.00  0.00    +0.000 C 
ATOM     38  O   UNL     1      -2.576  15.038  25.779  0.00  0.00    +0.000 OA
BRANCH  37  39
ATOM     39  OXT UNL     1      -3.773  16.694  24.962  0.00  0.00    +0.000 OA
ATOM     40  HXT UNL     1      -4.747  16.579  25.007  0.00  0.00    +0.000 HD
ENDBRANCH  37  39
ENDBRANCH  30  37
ENDBRANCH  28  30
ENDBRANCH   7  26
TORSDOF 9
ENDMDL
MODEL 8
REMARK VINA RESULT:      -7.3      2.566      4.686
REMARK  Name = 
REMARK  11 active torsions:
REMARK  status: ('A' for Active; 'I' for Inactive)
REMARK    1  A    between atoms: C_1  and  C_2
REMARK    2  A    between atoms: C_4  and  C_5
REMARK    3  A    between atoms: C_5  and  C_6
REMARK    4  A    between atoms: C_10  and  C_11
REMARK    5  A    between atoms: C_12  and  N_13
REMARK    6  A    between atoms: N_16  and  C_17
REMARK    7  A    between atoms: C_23  and  C_24
REMARK    8  A    between atoms: N_26  and  CA_27
REMARK    9  A    between atoms: CA_27  and  C_28
REMARK   10  A    between atoms: CA_27  and  C_31
REMARK   11  A    between atoms: C_28  and  OXT_30
REMARK                            x       y       z     vdW  Elec       q    Type
REMARK                         _______ _______ _______ _____ _____    ______ ____
ROOT
ATOM      1  C   UNL     1       2.989   4.757  20.463  0.00  0.00    +0.000 A 
ATOM      2  C   UNL     1       2.076   3.937  21.135  0.00  0.00    +0.000 A 
ATOM      3  C   UNL     1       2.321   2.571  21.293  0.00  0.00    +0.000 A 
ATOM      4  F   UNL     1       1.428   1.812  21.936  0.00  0.00    +0.000 F 
ATOM      5  C   UNL     1       3.478   1.975  20.816  0.00  0.00    +0.000 A 
ATOM      6  C   UNL     1       4.402   2.756  20.128  0.00  0.00    +0.000 A 
ATOM      7  C   UNL     1       4.139   4.129  19.917  0.00  0.00    +0.000 A 
ENDROOT
BRANCH   1  11
ATOM      8  N   UNL     1       1.897   8.286  20.390  0.00  0.00    +0.000 N 
ATOM      9  C   UNL     1       1.659   6.934  20.617  0.00  0.00    +0.000 C 
ATOM     10  O   UNL     1       0.610   6.450  21.016  0.00  0.00    +0.000 OA
ATOM     11  N   UNL     1       2.806   6.172  20.332  0.00  0.00    +0.000 N 
ATOM     12  H   UNL     1       2.880   8.490  20.359  0.00  0.00    +0.000 HD
ATOM     13  H   UNL     1       3.645   6.675  20.046  0.00  0.00    +0.000 HD
BRANCH   8  21
ATOM     14  C   UNL     1       1.546   9.613  17.841  0.00  0.00    +0.000 C 
ATOM     15  C   UNL     1       0.839  10.064  19.101  0.00  0.00    +0.000 A 
ATOM     16  C   UNL     1      -0.029  11.179  18.948  0.00  0.00    +0.000 A 
ATOM     17  C   UNL     1      -0.689  11.738  20.034  0.00  0.00    +0.000 A 
ATOM     18  C   UNL     1      -0.419  11.188  21.286  0.00  0.00    +0.000 A 
ATOM     19  C   UNL     1       0.353  10.007  21.470  0.00  0.00    +0.000 A 
ATOM     20  C   UNL     1       0.265   9.469  22.871  0.00  0.00    +0.000 C 
ATOM     21  C   UNL     1       1.047   9.445  20.377  0.00  0.00    +0.000 A 
BRANCH  17  22
ATOM     22  C   UNL     1      -1.641  12.910  19.948  0.00  0.00    +0.000 C 
BRANCH  22  23
ATOM     23  C   UNL     1      -3.061  12.606  20.343  0.00  0.00    +0.000 C 
ATOM     24  C   UNL     1      -3.601  12.771  21.744  0.00  0.00    +0.000 C 
ATOM     25  C   UNL     1      -3.977  13.759  20.683  0.00  0.00    +0.000 C 
ENDBRANCH  22  23
ENDBRANCH  17  22
ENDBRANCH   8  21
ENDBRANCH   1  11
BRANCH   7  26
ATOM     26  C   UNL     1       5.137   4.873  19.115  0.00  0.00    +0.000 C 
ATOM     27  O   UNL     1       4.956   6.065  18.917  0.00  0.00    +0.000 OA
ATOM     28  N   UNL     1       6.220   4.138  18.662  0.00  0.00    +0.000 N 
ATOM     29  H   UNL     1       6.350   3.197  19.009  0.00  0.00    +0.000 HD
BRANCH  28  30
ATOM     30  CA  UNL     1       7.422   4.752  18.069  0.00  0.00    +0.000 C 
BRANCH  30  31
ATOM     31  C   UNL     1       7.335   4.840  16.516  0.00  0.00    +0.000 C 
ATOM     32  C   UNL     1       6.601   3.741  15.745  0.00  0.00    +0.000 C 
ATOM     33  C   UNL     1       5.094   3.853  15.881  0.00  0.00    +0.000 C 
ATOM     34  C   UNL     1       4.562   5.228  15.483  0.00  0.00    +0.000 C 
ATOM     35  C   UNL     1       5.404   6.430  15.917  0.00  0.00    +0.000 C 
ATOM     36  C   UNL     1       6.907   6.188  15.916  0.00  0.00    +0.000 C 
ENDBRANCH  30  31
BRANCH  30  37
ATOM     37  C   UNL     1       7.876   5.796  19.112  0.00  0.00    +0.000 C 
ATOM     38  O   UNL     1       8.195   6.951  18.822  0.00  0.00    +0.000 OA
BRANCH  37  39
ATOM     39  OXT UNL     1       7.850   5.456  20.399  0.00  0.00    +0.000 OA
ATOM     40  HXT UNL     1       7.927   4.477  20.382  0.00  0.00    +0.000 HD
ENDBRANCH  37  39
ENDBRANCH  30  37
ENDBRANCH  28  30
ENDBRANCH   7  26
TORSDOF 9
ENDMDL
MODEL 9
REMARK VINA RESULT:      -7.2      4.932     10.842
REMARK  Name = 
REMARK  11 active torsions:
REMARK  status: ('A' for Active; 'I' for Inactive)
REMARK    1  A    between atoms: C_1  and  C_2
REMARK    2  A    between atoms: C_4  and  C_5
REMARK    3  A    between atoms: C_5  and  C_6
REMARK    4  A    between atoms: C_10  and  C_11
REMARK    5  A    between atoms: C_12  and  N_13
REMARK    6  A    between atoms: N_16  and  C_17
REMARK    7  A    between atoms: C_23  and  C_24
REMARK    8  A    between atoms: N_26  and  CA_27
REMARK    9  A    between atoms: CA_27  and  C_28
REMARK   10  A    between atoms: CA_27  and  C_31
REMARK   11  A    between atoms: C_28  and  OXT_30
REMARK                            x       y       z     vdW  Elec       q    Type
REMARK                         _______ _______ _______ _____ _____    ______ ____
ROOT
ATOM      1  C   UNL     1      -0.006  14.267  19.507  0.00  0.00    +0.000 A 
ATOM      2  C   UNL     1       1.013  15.068  18.980  0.00  0.00    +0.000 A 
ATOM      3  C   UNL     1       1.042  16.443  19.222  0.00  0.00    +0.000 A 
ATOM      4  F   UNL     1       2.026  17.182  18.702  0.00  0.00    +0.000 F 
ATOM      5  C   UNL     1       0.085  17.068  20.008  0.00  0.00    +0.000 A 
ATOM      6  C   UNL     1      -0.953  16.305  20.535  0.00  0.00    +0.000 A 
ATOM      7  C   UNL     1      -1.021  14.922  20.251  0.00  0.00    +0.000 A 
ENDROOT
BRANCH   1  11
ATOM      8  N   UNL     1       0.309  10.587  19.612  0.00  0.00    +0.000 N 
ATOM      9  C   UNL     1       0.633  11.859  20.075  0.00  0.00    +0.000 C 
ATOM     10  O   UNL     1       1.388  12.110  21.002  0.00  0.00    +0.000 OA
ATOM     11  N   UNL     1      -0.039  12.845  19.333  0.00  0.00    +0.000 N 
ATOM     12  H   UNL     1      -0.532  10.595  19.062  0.00  0.00    +0.000 HD
ATOM     13  H   UNL     1      -0.682  12.530  18.606  0.00  0.00    +0.000 HD
BRANCH   8  21
ATOM     14  C   UNL     1       1.982   9.358  17.593  0.00  0.00    +0.000 C 
ATOM     15  C   UNL     1       1.685   8.697  18.921  0.00  0.00    +0.000 A 
ATOM     16  C   UNL     1       2.299   7.431  19.125  0.00  0.00    +0.000 A 
ATOM     17  C   UNL     1       2.060   6.684  20.270  0.00  0.00    +0.000 A 
ATOM     18  C   UNL     1       1.149   7.210  21.185  0.00  0.00    +0.000 A 
ATOM     19  C   UNL     1       0.598   8.517  21.076  0.00  0.00    +0.000 A 
ATOM     20  C   UNL     1      -0.130   8.946  22.319  0.00  0.00    +0.000 C 
ATOM     21  C   UNL     1       0.817   9.275  19.905  0.00  0.00    +0.000 A 
BRANCH  17  22
ATOM     22  C   UNL     1       2.690   5.342  20.565  0.00  0.00    +0.000 C 
BRANCH  22  23
ATOM     23  C   UNL     1       1.718   4.244  20.907  0.00  0.00    +0.000 C 
ATOM     24  C   UNL     1       0.789   3.598  19.908  0.00  0.00    +0.000 C 
ATOM     25  C   UNL     1       1.994   2.851  20.391  0.00  0.00    +0.000 C 
ENDBRANCH  22  23
ENDBRANCH  17  22
ENDBRANCH   8  21
ENDBRANCH   1  11
BRANCH   7  26
ATOM     26  C   UNL     1      -2.194  14.199  20.791  0.00  0.00    +0.000 C 
ATOM     27  O   UNL     1      -2.019  13.392  21.693  0.00  0.00    +0.000 OA
ATOM     28  N   UNL     1      -3.417  14.516  20.224  0.00  0.00    +0.000 N 
ATOM     29  H   UNL     1      -3.472  15.305  19.593  0.00  0.00    +0.000 HD
BRANCH  28  30
ATOM     30  CA  UNL     1      -4.708  14.087  20.793  0.00  0.00    +0.000 C 
BRANCH  30  31
ATOM     31  C   UNL     1      -5.006  12.585  20.513  0.00  0.00    +0.000 C 
ATOM     32  C   UNL     1      -6.383  12.018  20.862  0.00  0.00    +0.000 C 
ATOM     33  C   UNL     1      -7.452  12.460  19.881  0.00  0.00    +0.000 C 
ATOM     34  C   UNL     1      -7.097  12.138  18.431  0.00  0.00    +0.000 C 
ATOM     35  C   UNL     1      -5.635  12.349  18.030  0.00  0.00    +0.000 C 
ATOM     36  C   UNL     1      -4.624  12.044  19.126  0.00  0.00    +0.000 C 
ENDBRANCH  30  31
BRANCH  30  37
ATOM     37  C   UNL     1      -4.855  14.919  22.086  0.00  0.00    +0.000 C 
ATOM     38  O   UNL     1      -4.752  16.147  22.120  0.00  0.00    +0.000 OA
BRANCH  37  39
ATOM     39  OXT UNL     1      -5.185  14.285  23.211  0.00  0.00    +0.000 OA
ATOM     40  HXT UNL     1      -5.820  14.897  23.643  0.00  0.00    +0.000 HD
ENDBRANCH  37  39
ENDBRANCH  30  37
ENDBRANCH  28  30
ENDBRANCH   7  26
TORSDOF 9
ENDMDL
