MODEL 1
REMARK VINA RESULT:      -6.1      0.000      0.000
REMARK  Name = 
REMARK  7 active torsions:
REMARK  status: ('A' for Active; 'I' for Inactive)
REMARK    1  A    between atoms: C_1  and  C_2
REMARK    2  A    between atoms: C_2  and  O_3
REMARK    3  A    between atoms: O_3  and  C_4
REMARK    4  A    between atoms: C_4  and  C_6
REMARK    5  A    between atoms: C_8  and  S_9
REMARK    6  A    between atoms: S_9  and  C_10
REMARK    7  A    between atoms: C_16  and  O_17
REMARK                            x       y       z     vdW  Elec       q    Type
REMARK                         _______ _______ _______ _____ _____    ______ ____
ROOT
ATOM      1  C   UNL     1       4.482   4.989  17.050  0.00  0.00    +0.000 A 
ATOM      2  S   UNL     1       4.230   6.654  17.333  0.00  0.00    +0.000 S 
ATOM      3  C   UNL     1       2.897   6.386  18.374  0.00  0.00    +0.000 A 
ATOM      4  C   UNL     1       2.622   5.033  18.509  0.00  0.00    +0.000 A 
ATOM      5  C   UNL     1       3.500   4.231  17.671  0.00  0.00    +0.000 A 
ATOM      6  C   UNL     1       3.386   2.731  17.591  0.00  0.00    +0.000 C 
ATOM      7  C   UNL     1       2.034   2.231  18.104  0.00  0.00    +0.000 C 
ATOM      8  C   UNL     1       1.719   2.853  19.459  0.00  0.00    +0.000 C 
ATOM      9  C   UNL     1       1.570   4.382  19.378  0.00  0.00    +0.000 C 
ENDROOT
BRANCH   1  10
ATOM     10  C   UNL     1       5.635   4.503  16.301  0.00  0.00    +0.000 C 
ATOM     11  O   UNL     1       6.754   4.333  16.769  0.00  0.00    +0.000 OA
BRANCH  10  12
ATOM     12  O   UNL     1       5.342   4.380  14.973  0.00  0.00    +0.000 OA
BRANCH  12  14
ATOM     13  C   UNL     1       6.081   3.571  12.849  0.00  0.00    +0.000 C 
ATOM     14  C   UNL     1       6.470   4.357  14.088  0.00  0.00    +0.000 C 
ENDBRANCH  12  14
ENDBRANCH  10  12
ENDBRANCH   1  10
BRANCH   3  15
ATOM     15  S   UNL     1       2.177   7.794  19.152  0.00  0.00    +0.000 S 
ATOM     16  C   UNL     1       2.023   9.010  17.833  0.00  0.00    +0.000 C 
ENDBRANCH   3  15
BRANCH   9  17
ATOM     17  O   UNL     1       1.598   4.873  20.715  0.00  0.00    +0.000 OA
ATOM     18  H   UNL     1       1.504   4.102  21.302  0.00  0.00    +0.000 HD
ENDBRANCH   9  17
TORSDOF 5
ENDMDL
MODEL 2
REMARK VINA RESULT:      -6.1      1.129      2.026
REMARK  Name = 
REMARK  7 active torsions:
REMARK  status: ('A' for Active; 'I' for Inactive)
REMARK    1  A    between atoms: C_1  and  C_2
REMARK    2  A    between atoms: C_2  and  O_3
REMARK    3  A    between atoms: O_3  and  C_4
REMARK    4  A    between atoms: C_4  and  C_6
REMARK    5  A    between atoms: C_8  and  S_9
REMARK    6  A    between atoms: S_9  and  C_10
REMARK    7  A    between atoms: C_16  and  O_17
REMARK                            x       y       z     vdW  Elec       q    Type
REMARK                         _______ _______ _______ _____ _____    ______ ____
ROOT
ATOM      1  C   UNL     1       4.632   5.050  17.025  0.00  0.00    +0.000 A 
ATOM      2  S   UNL     1       4.313   6.704  17.306  0.00  0.00    +0.000 S 
ATOM      3  C   UNL     1       2.965   6.383  18.314  0.00  0.00    +0.000 A 
ATOM      4  C   UNL     1       2.737   5.020  18.438  0.00  0.00    +0.000 A 
ATOM      5  C   UNL     1       3.663   4.255  17.619  0.00  0.00    +0.000 A 
ATOM      6  C   UNL     1       3.607   2.751  17.531  0.00  0.00    +0.000 C 
ATOM      7  C   UNL     1       2.262   2.201  18.009  0.00  0.00    +0.000 C 
ATOM      8  C   UNL     1       1.891   2.805  19.359  0.00  0.00    +0.000 C 
ATOM      9  C   UNL     1       1.688   4.328  19.279  0.00  0.00    +0.000 C 
ENDROOT
BRANCH   1  10
ATOM     10  C   UNL     1       5.820   4.610  16.303  0.00  0.00    +0.000 C 
ATOM     11  O   UNL     1       5.852   3.685  15.500  0.00  0.00    +0.000 OA
BRANCH  10  12
ATOM     12  O   UNL     1       6.931   5.281  16.730  0.00  0.00    +0.000 OA
BRANCH  12  14
ATOM     13  C   UNL     1       7.769   5.803  18.906  0.00  0.00    +0.000 C 
ATOM     14  C   UNL     1       7.602   4.713  17.863  0.00  0.00    +0.000 C 
ENDBRANCH  12  14
ENDBRANCH  10  12
ENDBRANCH   1  10
BRANCH   3  15
ATOM     15  S   UNL     1       2.175   7.761  19.078  0.00  0.00    +0.000 S 
ATOM     16  C   UNL     1       2.056   8.995  17.772  0.00  0.00    +0.000 C 
ENDBRANCH   3  15
BRANCH   9  17
ATOM     17  O   UNL     1       1.666   4.814  20.617  0.00  0.00    +0.000 OA
ATOM     18  H   UNL     1       1.634   5.785  20.566  0.00  0.00    +0.000 HD
ENDBRANCH   9  17
TORSDOF 5
ENDMDL
MODEL 3
REMARK VINA RESULT:      -5.9      2.399      5.103
REMARK  Name = 
REMARK  7 active torsions:
REMARK  status: ('A' for Active; 'I' for Inactive)
REMARK    1  A    between atoms: C_1  and  C_2
REMARK    2  A    between atoms: C_2  and  O_3
REMARK    3  A    between atoms: O_3  and  C_4
REMARK    4  A    between atoms: C_4  and  C_6
REMARK    5  A    between atoms: C_8  and  S_9
REMARK    6  A    between atoms: S_9  and  C_10
REMARK    7  A    between atoms: C_16  and  O_17
REMARK                            x       y       z     vdW  Elec       q    Type
REMARK                         _______ _______ _______ _____ _____    ______ ____
ROOT
ATOM      1  C   UNL     1       2.740   6.407  18.901  0.00  0.00    +0.000 A 
ATOM      2  S   UNL     1       4.002   6.306  17.755  0.00  0.00    +0.000 S 
ATOM      3  C   UNL     1       3.988   4.594  17.732  0.00  0.00    +0.000 A 
ATOM      4  C   UNL     1       3.036   4.081  18.601  0.00  0.00    +0.000 A 
ATOM      5  C   UNL     1       2.369   5.143  19.337  0.00  0.00    +0.000 A 
ATOM      6  C   UNL     1       1.321   4.863  20.382  0.00  0.00    +0.000 C 
ATOM      7  C   UNL     1       1.372   3.413  20.869  0.00  0.00    +0.000 C 
ATOM      8  C   UNL     1       1.405   2.457  19.682  0.00  0.00    +0.000 C 
ATOM      9  C   UNL     1       2.673   2.631  18.828  0.00  0.00    +0.000 C 
ENDROOT
BRANCH   1  10
ATOM     10  C   UNL     1       2.140   7.684  19.272  0.00  0.00    +0.000 C 
ATOM     11  O   UNL     1       1.916   8.047  20.420  0.00  0.00    +0.000 OA
BRANCH  10  12
ATOM     12  O   UNL     1       1.740   8.378  18.166  0.00  0.00    +0.000 OA
BRANCH  12  14
ATOM     13  C   UNL     1      -0.017   9.997  18.219  0.00  0.00    +0.000 C 
ATOM     14  C   UNL     1       1.477   9.773  18.370  0.00  0.00    +0.000 C 
ENDBRANCH  12  14
ENDBRANCH  10  12
ENDBRANCH   1  10
BRANCH   3  15
ATOM     15  S   UNL     1       5.066   3.788  16.593  0.00  0.00    +0.000 S 
ATOM     16  C   UNL     1       6.635   4.655  16.764  0.00  0.00    +0.000 C 
ENDBRANCH   3  15
BRANCH   9  17
ATOM     17  O   UNL     1       2.447   1.935  17.606  0.00  0.00    +0.000 OA
ATOM     18  H   UNL     1       2.836   2.476  16.896  0.00  0.00    +0.000 HD
ENDBRANCH   9  17
TORSDOF 5
ENDMDL
MODEL 4
REMARK VINA RESULT:      -5.9      2.426      5.548
REMARK  Name = 
REMARK  7 active torsions:
REMARK  status: ('A' for Active; 'I' for Inactive)
REMARK    1  A    between atoms: C_1  and  C_2
REMARK    2  A    between atoms: C_2  and  O_3
REMARK    3  A    between atoms: O_3  and  C_4
REMARK    4  A    between atoms: C_4  and  C_6
REMARK    5  A    between atoms: C_8  and  S_9
REMARK    6  A    between atoms: S_9  and  C_10
REMARK    7  A    between atoms: C_16  and  O_17
REMARK                            x       y       z     vdW  Elec       q    Type
REMARK                         _______ _______ _______ _____ _____    ______ ____
ROOT
ATOM      1  C   UNL     1       2.594   6.418  19.035  0.00  0.00    +0.000 A 
ATOM      2  S   UNL     1       3.835   6.391  17.862  0.00  0.00    +0.000 S 
ATOM      3  C   UNL     1       3.808   4.685  17.717  0.00  0.00    +0.000 A 
ATOM      4  C   UNL     1       2.867   4.118  18.563  0.00  0.00    +0.000 A 
ATOM      5  C   UNL     1       2.221   5.129  19.385  0.00  0.00    +0.000 A 
ATOM      6  C   UNL     1       1.189   4.781  20.426  0.00  0.00    +0.000 C 
ATOM      7  C   UNL     1       1.237   3.300  20.807  0.00  0.00    +0.000 C 
ATOM      8  C   UNL     1       1.242   2.431  19.554  0.00  0.00    +0.000 C 
ATOM      9  C   UNL     1       2.496   2.658  18.692  0.00  0.00    +0.000 C 
ENDROOT
BRANCH   1  10
ATOM     10  C   UNL     1       2.011   7.669  19.507  0.00  0.00    +0.000 C 
ATOM     11  O   UNL     1       1.859   8.674  18.824  0.00  0.00    +0.000 OA
BRANCH  10  12
ATOM     12  O   UNL     1       1.771   7.623  20.850  0.00  0.00    +0.000 OA
BRANCH  12  14
ATOM     13  C   UNL     1      -0.258   8.556  21.703  0.00  0.00    +0.000 C 
ATOM     14  C   UNL     1       1.212   8.813  21.423  0.00  0.00    +0.000 C 
ENDBRANCH  12  14
ENDBRANCH  10  12
ENDBRANCH   1  10
BRANCH   3  15
ATOM     15  S   UNL     1       4.859   3.956  16.504  0.00  0.00    +0.000 S 
ATOM     16  C   UNL     1       6.508   4.550  16.919  0.00  0.00    +0.000 C 
ENDBRANCH   3  15
BRANCH   9  17
ATOM     17  O   UNL     1       2.244   2.053  17.427  0.00  0.00    +0.000 OA
ATOM     18  H   UNL     1       2.063   1.112  17.594  0.00  0.00    +0.000 HD
ENDBRANCH   9  17
TORSDOF 5
ENDMDL
MODEL 5
REMARK VINA RESULT:      -5.8      2.636      6.221
REMARK  Name = 
REMARK  7 active torsions:
REMARK  status: ('A' for Active; 'I' for Inactive)
REMARK    1  A    between atoms: C_1  and  C_2
REMARK    2  A    between atoms: C_2  and  O_3
REMARK    3  A    between atoms: O_3  and  C_4
REMARK    4  A    between atoms: C_4  and  C_6
REMARK    5  A    between atoms: C_8  and  S_9
REMARK    6  A    between atoms: S_9  and  C_10
REMARK    7  A    between atoms: C_16  and  O_17
REMARK                            x       y       z     vdW  Elec       q    Type
REMARK                         _______ _______ _______ _____ _____    ______ ____
ROOT
ATOM      1  C   UNL     1       2.722   6.379  19.293  0.00  0.00    +0.000 A 
ATOM      2  S   UNL     1       2.473   4.940  20.180  0.00  0.00    +0.000 S 
ATOM      3  C   UNL     1       3.720   4.095  19.365  0.00  0.00    +0.000 A 
ATOM      4  C   UNL     1       4.330   4.891  18.406  0.00  0.00    +0.000 A 
ATOM      5  C   UNL     1       3.688   6.192  18.316  0.00  0.00    +0.000 A 
ATOM      6  C   UNL     1       4.123   7.237  17.321  0.00  0.00    +0.000 C 
ATOM      7  C   UNL     1       4.955   6.635  16.187  0.00  0.00    +0.000 C 
ATOM      8  C   UNL     1       6.061   5.751  16.753  0.00  0.00    +0.000 C 
ATOM      9  C   UNL     1       5.502   4.539  17.518  0.00  0.00    +0.000 C 
ENDROOT
BRANCH   1  10
ATOM     10  C   UNL     1       2.021   7.615  19.623  0.00  0.00    +0.000 C 
ATOM     11  O   UNL     1       1.871   8.562  18.861  0.00  0.00    +0.000 OA
BRANCH  10  12
ATOM     12  O   UNL     1       1.657   7.636  20.939  0.00  0.00    +0.000 OA
BRANCH  12  14
ATOM     13  C   UNL     1      -0.356   8.673  21.706  0.00  0.00    +0.000 C 
ATOM     14  C   UNL     1       1.120   8.878  21.415  0.00  0.00    +0.000 C 
ENDBRANCH  12  14
ENDBRANCH  10  12
ENDBRANCH   1  10
BRANCH   3  15
ATOM     15  S   UNL     1       4.083   2.459  19.910  0.00  0.00    +0.000 S 
ATOM     16  C   UNL     1       3.613   1.407  18.527  0.00  0.00    +0.000 C 
ENDBRANCH   3  15
BRANCH   9  17
ATOM     17  O   UNL     1       6.586   3.980  18.256  0.00  0.00    +0.000 OA
ATOM     18  H   UNL     1       6.565   3.019  18.105  0.00  0.00    +0.000 HD
ENDBRANCH   9  17
TORSDOF 5
ENDMDL
MODEL 6
REMARK VINA RESULT:      -5.8      2.157      3.548
REMARK  Name = 
REMARK  7 active torsions:
REMARK  status: ('A' for Active; 'I' for Inactive)
REMARK    1  A    between atoms: C_1  and  C_2
REMARK    2  A    between atoms: C_2  and  O_3
REMARK    3  A    between atoms: O_3  and  C_4
REMARK    4  A    between atoms: C_4  and  C_6
REMARK    5  A    between atoms: C_8  and  S_9
REMARK    6  A    between atoms: S_9  and  C_10
REMARK    7  A    between atoms: C_16  and  O_17
REMARK                            x       y       z     vdW  Elec       q    Type
REMARK                         _______ _______ _______ _____ _____    ______ ____
ROOT
ATOM      1  C   UNL     1       5.839   5.663  17.368  0.00  0.00    +0.000 A 
ATOM      2  S   UNL     1       6.149   4.173  18.144  0.00  0.00    +0.000 S 
ATOM      3  C   UNL     1       4.593   4.098  18.856  0.00  0.00    +0.000 A 
ATOM      4  C   UNL     1       3.827   5.206  18.522  0.00  0.00    +0.000 A 
ATOM      5  C   UNL     1       4.589   6.150  17.721  0.00  0.00    +0.000 A 
ATOM      6  C   UNL     1       4.012   7.464  17.260  0.00  0.00    +0.000 C 
ATOM      7  C   UNL     1       2.775   7.859  18.067  0.00  0.00    +0.000 C 
ATOM      8  C   UNL     1       1.798   6.692  18.147  0.00  0.00    +0.000 C 
ATOM      9  C   UNL     1       2.390   5.487  18.899  0.00  0.00    +0.000 C 
ENDROOT
BRANCH   1  10
ATOM     10  C   UNL     1       6.784   6.247  16.423  0.00  0.00    +0.000 C 
ATOM     11  O   UNL     1       7.716   6.981  16.726  0.00  0.00    +0.000 OA
BRANCH  10  12
ATOM     12  O   UNL     1       6.422   5.975  15.135  0.00  0.00    +0.000 OA
BRANCH  12  14
ATOM     13  C   UNL     1       5.972   3.962  13.928  0.00  0.00    +0.000 C 
ATOM     14  C   UNL     1       7.054   4.833  14.541  0.00  0.00    +0.000 C 
ENDBRANCH  12  14
ENDBRANCH  10  12
ENDBRANCH   1  10
BRANCH   3  15
ATOM     15  S   UNL     1       4.191   2.650  19.777  0.00  0.00    +0.000 S 
ATOM     16  C   UNL     1       3.521   1.509  18.556  0.00  0.00    +0.000 C 
ENDBRANCH   3  15
BRANCH   9  17
ATOM     17  O   UNL     1       1.538   4.376  18.636  0.00  0.00    +0.000 OA
ATOM     18  H   UNL     1       2.114   3.624  18.414  0.00  0.00    +0.000 HD
ENDBRANCH   9  17
TORSDOF 5
ENDMDL
MODEL 7
REMARK VINA RESULT:      -5.7      2.745      4.334
REMARK  Name = 
REMARK  7 active torsions:
REMARK  status: ('A' for Active; 'I' for Inactive)
REMARK    1  A    between atoms: C_1  and  C_2
REMARK    2  A    between atoms: C_2  and  O_3
REMARK    3  A    between atoms: O_3  and  C_4
REMARK    4  A    between atoms: C_4  and  C_6
REMARK    5  A    between atoms: C_8  and  S_9
REMARK    6  A    between atoms: S_9  and  C_10
REMARK    7  A    between atoms: C_16  and  O_17
REMARK                            x       y       z     vdW  Elec       q    Type
REMARK                         _______ _______ _______ _____ _____    ______ ____
ROOT
ATOM      1  C   UNL     1       5.907   5.758  17.402  0.00  0.00    +0.000 A 
ATOM      2  S   UNL     1       6.205   4.268  18.182  0.00  0.00    +0.000 S 
ATOM      3  C   UNL     1       4.625   4.170  18.833  0.00  0.00    +0.000 A 
ATOM      4  C   UNL     1       3.858   5.270  18.476  0.00  0.00    +0.000 A 
ATOM      5  C   UNL     1       4.638   6.228  17.710  0.00  0.00    +0.000 A 
ATOM      6  C   UNL     1       4.063   7.537  17.233  0.00  0.00    +0.000 C 
ATOM      7  C   UNL     1       2.791   7.913  17.995  0.00  0.00    +0.000 C 
ATOM      8  C   UNL     1       1.826   6.733  18.031  0.00  0.00    +0.000 C 
ATOM      9  C   UNL     1       2.405   5.532  18.799  0.00  0.00    +0.000 C 
ENDROOT
BRANCH   1  10
ATOM     10  C   UNL     1       6.880   6.359  16.497  0.00  0.00    +0.000 C 
ATOM     11  O   UNL     1       7.441   5.773  15.580  0.00  0.00    +0.000 OA
BRANCH  10  12
ATOM     12  O   UNL     1       7.184   7.634  16.879  0.00  0.00    +0.000 OA
BRANCH  12  14
ATOM     13  C   UNL     1       8.392   9.213  18.206  0.00  0.00    +0.000 C 
ATOM     14  C   UNL     1       8.014   7.752  18.043  0.00  0.00    +0.000 C 
ENDBRANCH  12  14
ENDBRANCH  10  12
ENDBRANCH   1  10
BRANCH   3  15
ATOM     15  S   UNL     1       4.206   2.712  19.731  0.00  0.00    +0.000 S 
ATOM     16  C   UNL     1       3.558   1.585  18.486  0.00  0.00    +0.000 C 
ENDBRANCH   3  15
BRANCH   9  17
ATOM     17  O   UNL     1       1.577   4.411  18.499  0.00  0.00    +0.000 OA
ATOM     18  H   UNL     1       0.667   4.659  18.738  0.00  0.00    +0.000 HD
ENDBRANCH   9  17
TORSDOF 5
ENDMDL
MODEL 8
REMARK VINA RESULT:      -5.7      2.776      6.192
REMARK  Name = 
REMARK  7 active torsions:
REMARK  status: ('A' for Active; 'I' for Inactive)
REMARK    1  A    between atoms: C_1  and  C_2
REMARK    2  A    between atoms: C_2  and  O_3
REMARK    3  A    between atoms: O_3  and  C_4
REMARK    4  A    between atoms: C_4  and  C_6
REMARK    5  A    between atoms: C_8  and  S_9
REMARK    6  A    between atoms: S_9  and  C_10
REMARK    7  A    between atoms: C_16  and  O_17
REMARK                            x       y       z     vdW  Elec       q    Type
REMARK                         _______ _______ _______ _____ _____    ______ ____
ROOT
ATOM      1  C   UNL     1       2.386   6.690  19.450  0.00  0.00    +0.000 A 
ATOM      2  S   UNL     1       1.871   5.398  20.440  0.00  0.00    +0.000 S 
ATOM      3  C   UNL     1       3.020   4.305  19.796  0.00  0.00    +0.000 A 
ATOM      4  C   UNL     1       3.799   4.904  18.817  0.00  0.00    +0.000 A 
ATOM      5  C   UNL     1       3.368   6.270  18.565  0.00  0.00    +0.000 A 
ATOM      6  C   UNL     1       4.014   7.137  17.515  0.00  0.00    +0.000 C 
ATOM      7  C   UNL     1       4.810   6.312  16.503  0.00  0.00    +0.000 C 
ATOM      8  C   UNL     1       5.734   5.336  17.224  0.00  0.00    +0.000 C 
ATOM      9  C   UNL     1       4.954   4.300  18.051  0.00  0.00    +0.000 C 
ENDROOT
BRANCH   1  10
ATOM     10  C   UNL     1       1.863   8.042  19.617  0.00  0.00    +0.000 C 
ATOM     11  O   UNL     1       1.692   8.845  18.709  0.00  0.00    +0.000 OA
BRANCH  10  12
ATOM     12  O   UNL     1       1.703   8.346  20.939  0.00  0.00    +0.000 OA
BRANCH  12  14
ATOM     13  C   UNL     1      -0.348   8.905  22.032  0.00  0.00    +0.000 C 
ATOM     14  C   UNL     1       0.820   9.439  21.222  0.00  0.00    +0.000 C 
ENDBRANCH  12  14
ENDBRANCH  10  12
ENDBRANCH   1  10
BRANCH   3  15
ATOM     15  S   UNL     1       3.099   2.694  20.509  0.00  0.00    +0.000 S 
ATOM     16  C   UNL     1       1.670   2.614  21.601  0.00  0.00    +0.000 C 
ENDBRANCH   3  15
BRANCH   9  17
ATOM     17  O   UNL     1       5.895   3.665  18.911  0.00  0.00    +0.000 OA
ATOM     18  H   UNL     1       6.391   3.027  18.368  0.00  0.00    +0.000 HD
ENDBRANCH   9  17
TORSDOF 5
ENDMDL
MODEL 9
REMARK VINA RESULT:      -5.7      0.964      1.041
REMARK  Name = 
REMARK  7 active torsions:
REMARK  status: ('A' for Active; 'I' for Inactive)
REMARK    1  A    between atoms: C_1  and  C_2
REMARK    2  A    between atoms: C_2  and  O_3
REMARK    3  A    between atoms: O_3  and  C_4
REMARK    4  A    between atoms: C_4  and  C_6
REMARK    5  A    between atoms: C_8  and  S_9
REMARK    6  A    between atoms: S_9  and  C_10
REMARK    7  A    between atoms: C_16  and  O_17
REMARK                            x       y       z     vdW  Elec       q    Type
REMARK                         _______ _______ _______ _____ _____    ______ ____
ROOT
ATOM      1  C   UNL     1       5.049   4.803  17.881  0.00  0.00    +0.000 A 
ATOM      2  S   UNL     1       4.731   6.460  18.143  0.00  0.00    +0.000 S 
ATOM      3  C   UNL     1       3.122   6.180  18.657  0.00  0.00    +0.000 A 
ATOM      4  C   UNL     1       2.806   4.830  18.625  0.00  0.00    +0.000 A 
ATOM      5  C   UNL     1       3.908   4.044  18.095  0.00  0.00    +0.000 A 
ATOM      6  C   UNL     1       3.815   2.551  17.907  0.00  0.00    +0.000 C 
ATOM      7  C   UNL     1       2.366   2.064  17.907  0.00  0.00    +0.000 C 
ATOM      8  C   UNL     1       1.615   2.635  19.105  0.00  0.00    +0.000 C 
ATOM      9  C   UNL     1       1.515   4.169  19.053  0.00  0.00    +0.000 C 
ENDROOT
BRANCH   1  10
ATOM     10  C   UNL     1       6.384   4.321  17.543  0.00  0.00    +0.000 C 
ATOM     11  O   UNL     1       7.378   4.459  18.246  0.00  0.00    +0.000 OA
BRANCH  10  12
ATOM     12  O   UNL     1       6.415   3.805  16.280  0.00  0.00    +0.000 OA
BRANCH  12  14
ATOM     13  C   UNL     1       5.796   5.088  14.361  0.00  0.00    +0.000 C 
ATOM     14  C   UNL     1       6.941   4.673  15.267  0.00  0.00    +0.000 C 
ENDBRANCH  12  14
ENDBRANCH  10  12
ENDBRANCH   1  10
BRANCH   3  15
ATOM     15  S   UNL     1       2.193   7.572  19.213  0.00  0.00    +0.000 S 
ATOM     16  C   UNL     1       2.109   8.660  17.782  0.00  0.00    +0.000 C 
ENDBRANCH   3  15
BRANCH   9  17
ATOM     17  O   UNL     1       1.093   4.601  20.343  0.00  0.00    +0.000 OA
ATOM     18  H   UNL     1       1.521   5.459  20.510  0.00  0.00    +0.000 HD
ENDBRANCH   9  17
TORSDOF 5
ENDMDL
