MODEL 1
REMARK VINA RESULT:      -7.9      0.000      0.000
REMARK  Name = 
REMARK  5 active torsions:
REMARK  status: ('A' for Active; 'I' for Inactive)
REMARK    1  A    between atoms: C_1  and  C_2
REMARK    2  A    between atoms: C_2  and  C_3
REMARK    3  A    between atoms: C_2  and  N_14
REMARK    4  A    between atoms: N_5  and  C_6
REMARK    5  A    between atoms: C_6  and  C_7
REMARK                            x       y       z     vdW  Elec       q    Type
REMARK                         _______ _______ _______ _____ _____    ______ ____
ROOT
ATOM      1  C   UNL     1       1.508   3.920  18.165  0.00  0.00    +0.000 C 
ATOM      2  C   UNL     1       1.980   5.247  18.752  0.00  0.00    +0.000 C 
ENDROOT
BRANCH   2   3
ATOM      3  N   UNL     1       3.394   5.505  18.481  0.00  0.00    +0.000 N 
ATOM      4  C   UNL     1       3.872   6.575  17.769  0.00  0.00    +0.000 C 
ATOM      5  O   UNL     1       3.273   7.472  17.209  0.00  0.00    +0.000 OA
ATOM      6  C   UNL     1       5.328   6.493  17.812  0.00  0.00    +0.000 A 
ATOM      7  C   UNL     1       6.291   7.333  17.285  0.00  0.00    +0.000 A 
ATOM      8  C   UNL     1       7.628   7.014  17.536  0.00  0.00    +0.000 A 
ATOM      9  C   UNL     1       7.969   5.871  18.290  0.00  0.00    +0.000 A 
ATOM     10  C   UNL     1       6.977   5.033  18.810  0.00  0.00    +0.000 A 
ATOM     11  C   UNL     1       5.664   5.380  18.557  0.00  0.00    +0.000 A 
ATOM     12  C   UNL     1       4.420   4.763  19.004  0.00  0.00    +0.000 C 
ATOM     13  O   UNL     1       4.376   3.787  19.729  0.00  0.00    +0.000 OA
ENDBRANCH   2   3
BRANCH   2  14
ATOM     14  C   UNL     1       1.702   5.348  20.264  0.00  0.00    +0.000 C 
ATOM     15  O   UNL     1       1.483   4.362  20.969  0.00  0.00    +0.000 OA
ATOM     16  N   UNL     1       1.731   6.573  20.871  0.00  0.00    +0.000 N 
ATOM     17  H   UNL     1       1.557   6.534  21.867  0.00  0.00    +0.000 HD
BRANCH  16  18
ATOM     18  C   UNL     1       1.840   7.889  20.274  0.00  0.00    +0.000 C 
BRANCH  18  19
ATOM     19  C   UNL     1       0.954   8.906  20.942  0.00  0.00    +0.000 A 
ATOM     20  C   UNL     1       0.840   8.899  22.345  0.00  0.00    +0.000 A 
ATOM     21  C   UNL     1      -0.028   9.775  22.999  0.00  0.00    +0.000 A 
ATOM     22  C   UNL     1      -0.789  10.677  22.262  0.00  0.00    +0.000 A 
ATOM     23  C   UNL     1      -0.672  10.713  20.873  0.00  0.00    +0.000 A 
ATOM     24  C   UNL     1       0.196   9.837  20.216  0.00  0.00    +0.000 A 
ATOM     25 CL   UNL     1       0.282   9.928  18.493  0.00  0.00    +0.000 Cl
ENDBRANCH  18  19
ENDBRANCH  16  18
ENDBRANCH   2  14
TORSDOF 4
ENDMDL
MODEL 2
REMARK VINA RESULT:      -7.8      4.524      7.960
REMARK  Name = 
REMARK  5 active torsions:
REMARK  status: ('A' for Active; 'I' for Inactive)
REMARK    1  A    between atoms: C_1  and  C_2
REMARK    2  A    between atoms: C_2  and  C_3
REMARK    3  A    between atoms: C_2  and  N_14
REMARK    4  A    between atoms: N_5  and  C_6
REMARK    5  A    between atoms: C_6  and  C_7
REMARK                            x       y       z     vdW  Elec       q    Type
REMARK                         _______ _______ _______ _____ _____    ______ ____
ROOT
ATOM      1  C   UNL     1       7.353   6.032  19.603  0.00  0.00    +0.000 C 
ATOM      2  C   UNL     1       6.755   5.643  18.255  0.00  0.00    +0.000 C 
ENDROOT
BRANCH   2   3
ATOM      3  N   UNL     1       5.404   5.095  18.381  0.00  0.00    +0.000 N 
ATOM      4  C   UNL     1       4.297   5.586  17.739  0.00  0.00    +0.000 C 
ATOM      5  O   UNL     1       4.183   6.543  16.999  0.00  0.00    +0.000 OA
ATOM      6  C   UNL     1       3.187   4.700  18.076  0.00  0.00    +0.000 A 
ATOM      7  C   UNL     1       1.865   4.724  17.672  0.00  0.00    +0.000 A 
ATOM      8  C   UNL     1       1.037   3.696  18.131  0.00  0.00    +0.000 A 
ATOM      9  C   UNL     1       1.539   2.687  18.979  0.00  0.00    +0.000 A 
ATOM     10  C   UNL     1       2.879   2.687  19.378  0.00  0.00    +0.000 A 
ATOM     11  C   UNL     1       3.678   3.707  18.900  0.00  0.00    +0.000 A 
ATOM     12  C   UNL     1       5.106   3.951  19.073  0.00  0.00    +0.000 C 
ATOM     13  O   UNL     1       5.841   3.217  19.706  0.00  0.00    +0.000 OA
ENDBRANCH   2   3
BRANCH   2  14
ATOM     14  C   UNL     1       7.655   4.663  17.478  0.00  0.00    +0.000 C 
ATOM     15  O   UNL     1       8.481   3.936  18.030  0.00  0.00    +0.000 OA
ATOM     16  N   UNL     1       7.519   4.559  16.121  0.00  0.00    +0.000 N 
ATOM     17  H   UNL     1       8.139   3.876  15.705  0.00  0.00    +0.000 HD
BRANCH  16  18
ATOM     18  C   UNL     1       6.728   5.367  15.215  0.00  0.00    +0.000 C 
BRANCH  18  19
ATOM     19  C   UNL     1       6.495   4.696  13.888  0.00  0.00    +0.000 A 
ATOM     20  C   UNL     1       5.371   3.863  13.730  0.00  0.00    +0.000 A 
ATOM     21  C   UNL     1       5.159   3.162  12.542  0.00  0.00    +0.000 A 
ATOM     22  C   UNL     1       6.061   3.289  11.490  0.00  0.00    +0.000 A 
ATOM     23  C   UNL     1       7.167   4.128  11.621  0.00  0.00    +0.000 A 
ATOM     24  C   UNL     1       7.383   4.830  12.810  0.00  0.00    +0.000 A 
ATOM     25 CL   UNL     1       8.780   5.841  12.907  0.00  0.00    +0.000 Cl
ENDBRANCH  18  19
ENDBRANCH  16  18
ENDBRANCH   2  14
TORSDOF 4
ENDMDL
MODEL 3
REMARK VINA RESULT:      -7.7      2.422      3.510
REMARK  Name = 
REMARK  5 active torsions:
REMARK  status: ('A' for Active; 'I' for Inactive)
REMARK    1  A    between atoms: C_1  and  C_2
REMARK    2  A    between atoms: C_2  and  C_3
REMARK    3  A    between atoms: C_2  and  N_14
REMARK    4  A    between atoms: N_5  and  C_6
REMARK    5  A    between atoms: C_6  and  C_7
REMARK                            x       y       z     vdW  Elec       q    Type
REMARK                         _______ _______ _______ _____ _____    ______ ____
ROOT
ATOM      1  C   UNL     1       3.182   2.496  21.074  0.00  0.00    +0.000 C 
ATOM      2  C   UNL     1       2.621   2.588  19.659  0.00  0.00    +0.000 C 
ENDROOT
BRANCH   2   3
ATOM      3  N   UNL     1       3.549   3.234  18.731  0.00  0.00    +0.000 N 
ATOM      4  C   UNL     1       4.820   3.638  19.050  0.00  0.00    +0.000 C 
ATOM      5  O   UNL     1       5.412   3.590  20.110  0.00  0.00    +0.000 OA
ATOM      6  C   UNL     1       5.420   4.150  17.822  0.00  0.00    +0.000 A 
ATOM      7  C   UNL     1       6.686   4.649  17.582  0.00  0.00    +0.000 A 
ATOM      8  C   UNL     1       6.990   5.022  16.270  0.00  0.00    +0.000 A 
ATOM      9  C   UNL     1       6.031   4.898  15.243  0.00  0.00    +0.000 A 
ATOM     10  C   UNL     1       4.754   4.394  15.511  0.00  0.00    +0.000 A 
ATOM     11  C   UNL     1       4.485   4.022  16.814  0.00  0.00    +0.000 A 
ATOM     12  C   UNL     1       3.296   3.412  17.397  0.00  0.00    +0.000 C 
ATOM     13  O   UNL     1       2.307   3.116  16.752  0.00  0.00    +0.000 OA
ENDBRANCH   2   3
BRANCH   2  14
ATOM     14  C   UNL     1       1.252   3.294  19.618  0.00  0.00    +0.000 C 
ATOM     15  O   UNL     1       0.219   2.725  19.262  0.00  0.00    +0.000 OA
ATOM     16  N   UNL     1       1.156   4.597  20.024  0.00  0.00    +0.000 N 
ATOM     17  H   UNL     1       0.215   4.965  19.979  0.00  0.00    +0.000 HD
BRANCH  16  18
ATOM     18  C   UNL     1       2.211   5.528  20.367  0.00  0.00    +0.000 C 
BRANCH  18  19
ATOM     19  C   UNL     1       2.169   6.786  19.540  0.00  0.00    +0.000 A 
ATOM     20  C   UNL     1       2.851   6.820  18.310  0.00  0.00    +0.000 A 
ATOM     21  C   UNL     1       2.901   7.989  17.549  0.00  0.00    +0.000 A 
ATOM     22  C   UNL     1       2.263   9.140  18.001  0.00  0.00    +0.000 A 
ATOM     23  C   UNL     1       1.563   9.117  19.207  0.00  0.00    +0.000 A 
ATOM     24  C   UNL     1       1.513   7.949  19.972  0.00  0.00    +0.000 A 
ATOM     25 CL   UNL     1       0.638   7.997  21.461  0.00  0.00    +0.000 Cl
ENDBRANCH  18  19
ENDBRANCH  16  18
ENDBRANCH   2  14
TORSDOF 4
ENDMDL
MODEL 4
REMARK VINA RESULT:      -7.6      4.218      5.575
REMARK  Name = 
REMARK  5 active torsions:
REMARK  status: ('A' for Active; 'I' for Inactive)
REMARK    1  A    between atoms: C_1  and  C_2
REMARK    2  A    between atoms: C_2  and  C_3
REMARK    3  A    between atoms: C_2  and  N_14
REMARK    4  A    between atoms: N_5  and  C_6
REMARK    5  A    between atoms: C_6  and  C_7
REMARK                            x       y       z     vdW  Elec       q    Type
REMARK                         _______ _______ _______ _____ _____    ______ ____
ROOT
ATOM      1  C   UNL     1       4.152   6.078  18.004  0.00  0.00    +0.000 C 
ATOM      2  C   UNL     1       5.625   5.786  17.731  0.00  0.00    +0.000 C 
ENDROOT
BRANCH   2   3
ATOM      3  N   UNL     1       5.865   5.376  16.348  0.00  0.00    +0.000 N 
ATOM      4  C   UNL     1       6.971   5.715  15.612  0.00  0.00    +0.000 C 
ATOM      5  O   UNL     1       7.921   6.414  15.905  0.00  0.00    +0.000 OA
ATOM      6  C   UNL     1       6.849   5.032  14.328  0.00  0.00    +0.000 A 
ATOM      7  C   UNL     1       7.699   5.008  13.239  0.00  0.00    +0.000 A 
ATOM      8  C   UNL     1       7.328   4.210  12.154  0.00  0.00    +0.000 A 
ATOM      9  C   UNL     1       6.126   3.472  12.176  0.00  0.00    +0.000 A 
ATOM     10  C   UNL     1       5.279   3.516  13.287  0.00  0.00    +0.000 A 
ATOM     11  C   UNL     1       5.676   4.303  14.351  0.00  0.00    +0.000 A 
ATOM     12  C   UNL     1       5.061   4.507  15.658  0.00  0.00    +0.000 C 
ATOM     13  O   UNL     1       4.038   3.954  16.013  0.00  0.00    +0.000 OA
ENDBRANCH   2   3
BRANCH   2  14
ATOM     14  C   UNL     1       6.202   4.739  18.704  0.00  0.00    +0.000 C 
ATOM     15  O   UNL     1       7.315   4.850  19.218  0.00  0.00    +0.000 OA
ATOM     16  N   UNL     1       5.445   3.653  19.046  0.00  0.00    +0.000 N 
ATOM     17  H   UNL     1       5.903   3.034  19.704  0.00  0.00    +0.000 HD
BRANCH  16  18
ATOM     18  C   UNL     1       4.175   3.214  18.506  0.00  0.00    +0.000 C 
BRANCH  18  19
ATOM     19  C   UNL     1       3.091   3.146  19.548  0.00  0.00    +0.000 A 
ATOM     20  C   UNL     1       3.411   2.690  20.840  0.00  0.00    +0.000 A 
ATOM     21  C   UNL     1       2.422   2.539  21.814  0.00  0.00    +0.000 A 
ATOM     22  C   UNL     1       1.100   2.851  21.514  0.00  0.00    +0.000 A 
ATOM     23  C   UNL     1       0.768   3.327  20.246  0.00  0.00    +0.000 A 
ATOM     24  C   UNL     1       1.756   3.477  19.269  0.00  0.00    +0.000 A 
ATOM     25 CL   UNL     1       1.272   4.059  17.716  0.00  0.00    +0.000 Cl
ENDBRANCH  18  19
ENDBRANCH  16  18
ENDBRANCH   2  14
TORSDOF 4
ENDMDL
MODEL 5
REMARK VINA RESULT:      -7.6      1.838      2.097
REMARK  Name = 
REMARK  5 active torsions:
REMARK  status: ('A' for Active; 'I' for Inactive)
REMARK    1  A    between atoms: C_1  and  C_2
REMARK    2  A    between atoms: C_2  and  C_3
REMARK    3  A    between atoms: C_2  and  N_14
REMARK    4  A    between atoms: N_5  and  C_6
REMARK    5  A    between atoms: C_6  and  C_7
REMARK                            x       y       z     vdW  Elec       q    Type
REMARK                         _______ _______ _______ _____ _____    ______ ____
ROOT
ATOM      1  C   UNL     1       1.741   2.151  19.795  0.00  0.00    +0.000 C 
ATOM      2  C   UNL     1       2.092   3.618  19.566  0.00  0.00    +0.000 C 
ENDROOT
BRANCH   2   3
ATOM      3  N   UNL     1       3.259   3.784  18.700  0.00  0.00    +0.000 N 
ATOM      4  C   UNL     1       3.228   3.750  17.330  0.00  0.00    +0.000 C 
ATOM      5  O   UNL     1       2.298   3.553  16.574  0.00  0.00    +0.000 OA
ATOM      6  C   UNL     1       4.582   4.042  16.871  0.00  0.00    +0.000 A 
ATOM      7  C   UNL     1       5.090   4.161  15.591  0.00  0.00    +0.000 A 
ATOM      8  C   UNL     1       6.440   4.501  15.466  0.00  0.00    +0.000 A 
ATOM      9  C   UNL     1       7.243   4.702  16.608  0.00  0.00    +0.000 A 
ATOM     10  C   UNL     1       6.708   4.572  17.893  0.00  0.00    +0.000 A 
ATOM     11  C   UNL     1       5.368   4.247  17.987  0.00  0.00    +0.000 A 
ATOM     12  C   UNL     1       4.510   4.104  19.158  0.00  0.00    +0.000 C 
ATOM     13  O   UNL     1       4.894   4.280  20.299  0.00  0.00    +0.000 OA
ENDBRANCH   2   3
BRANCH   2  14
ATOM     14  C   UNL     1       2.299   4.382  20.889  0.00  0.00    +0.000 C 
ATOM     15  O   UNL     1       2.408   3.814  21.976  0.00  0.00    +0.000 OA
ATOM     16  N   UNL     1       2.401   5.745  20.867  0.00  0.00    +0.000 N 
ATOM     17  H   UNL     1       2.555   6.153  21.780  0.00  0.00    +0.000 HD
BRANCH  16  18
ATOM     18  C   UNL     1       2.189   6.662  19.765  0.00  0.00    +0.000 C 
BRANCH  18  19
ATOM     19  C   UNL     1       1.612   7.980  20.207  0.00  0.00    +0.000 A 
ATOM     20  C   UNL     1       1.216   8.139  21.549  0.00  0.00    +0.000 A 
ATOM     21  C   UNL     1       0.607   9.317  21.982  0.00  0.00    +0.000 A 
ATOM     22  C   UNL     1       0.392  10.359  21.085  0.00  0.00    +0.000 A 
ATOM     23  C   UNL     1       0.799  10.227  19.758  0.00  0.00    +0.000 A 
ATOM     24  C   UNL     1       1.408   9.048  19.320  0.00  0.00    +0.000 A 
ATOM     25 CL   UNL     1       1.875   8.949  17.660  0.00  0.00    +0.000 Cl
ENDBRANCH  18  19
ENDBRANCH  16  18
ENDBRANCH   2  14
TORSDOF 4
ENDMDL
MODEL 6
REMARK VINA RESULT:      -7.5      4.022      5.805
REMARK  Name = 
REMARK  5 active torsions:
REMARK  status: ('A' for Active; 'I' for Inactive)
REMARK    1  A    between atoms: C_1  and  C_2
REMARK    2  A    between atoms: C_2  and  C_3
REMARK    3  A    between atoms: C_2  and  N_14
REMARK    4  A    between atoms: N_5  and  C_6
REMARK    5  A    between atoms: C_6  and  C_7
REMARK                            x       y       z     vdW  Elec       q    Type
REMARK                         _______ _______ _______ _____ _____    ______ ____
ROOT
ATOM      1  C   UNL     1       6.957   5.595  18.720  0.00  0.00    +0.000 C 
ATOM      2  C   UNL     1       5.675   5.271  17.958  0.00  0.00    +0.000 C 
ENDROOT
BRANCH   2   3
ATOM      3  N   UNL     1       5.919   5.022  16.537  0.00  0.00    +0.000 N 
ATOM      4  C   UNL     1       6.957   5.553  15.816  0.00  0.00    +0.000 C 
ATOM      5  O   UNL     1       7.829   6.327  16.155  0.00  0.00    +0.000 OA
ATOM      6  C   UNL     1       6.874   4.982  14.475  0.00  0.00    +0.000 A 
ATOM      7  C   UNL     1       7.689   5.157  13.372  0.00  0.00    +0.000 A 
ATOM      8  C   UNL     1       7.378   4.426  12.224  0.00  0.00    +0.000 A 
ATOM      9  C   UNL     1       6.269   3.554  12.199  0.00  0.00    +0.000 A 
ATOM     10  C   UNL     1       5.456   3.397  13.325  0.00  0.00    +0.000 A 
ATOM     11  C   UNL     1       5.794   4.123  14.452  0.00  0.00    +0.000 A 
ATOM     12  C   UNL     1       5.199   4.133  15.783  0.00  0.00    +0.000 C 
ATOM     13  O   UNL     1       4.256   3.435  16.104  0.00  0.00    +0.000 OA
ENDBRANCH   2   3
BRANCH   2  14
ATOM     14  C   UNL     1       4.603   6.365  18.128  0.00  0.00    +0.000 C 
ATOM     15  O   UNL     1       4.586   7.393  17.450  0.00  0.00    +0.000 OA
ATOM     16  N   UNL     1       3.602   6.186  19.042  0.00  0.00    +0.000 N 
ATOM     17  H   UNL     1       2.937   6.948  19.066  0.00  0.00    +0.000 HD
BRANCH  16  18
ATOM     18  C   UNL     1       3.449   5.148  20.042  0.00  0.00    +0.000 C 
BRANCH  18  19
ATOM     19  C   UNL     1       2.645   3.976  19.547  0.00  0.00    +0.000 A 
ATOM     20  C   UNL     1       1.317   4.184  19.128  0.00  0.00    +0.000 A 
ATOM     21  C   UNL     1       0.513   3.114  18.734  0.00  0.00    +0.000 A 
ATOM     22  C   UNL     1       1.025   1.820  18.743  0.00  0.00    +0.000 A 
ATOM     23  C   UNL     1       2.345   1.599  19.133  0.00  0.00    +0.000 A 
ATOM     24  C   UNL     1       3.152   2.668  19.529  0.00  0.00    +0.000 A 
ATOM     25 CL   UNL     1       4.774   2.319  20.011  0.00  0.00    +0.000 Cl
ENDBRANCH  18  19
ENDBRANCH  16  18
ENDBRANCH   2  14
TORSDOF 4
ENDMDL
MODEL 7
REMARK VINA RESULT:      -7.5      3.816      5.695
REMARK  Name = 
REMARK  5 active torsions:
REMARK  status: ('A' for Active; 'I' for Inactive)
REMARK    1  A    between atoms: C_1  and  C_2
REMARK    2  A    between atoms: C_2  and  C_3
REMARK    3  A    between atoms: C_2  and  N_14
REMARK    4  A    between atoms: N_5  and  C_6
REMARK    5  A    between atoms: C_6  and  C_7
REMARK                            x       y       z     vdW  Elec       q    Type
REMARK                         _______ _______ _______ _____ _____    ______ ____
ROOT
ATOM      1  C   UNL     1       6.910   5.748  18.739  0.00  0.00    +0.000 C 
ATOM      2  C   UNL     1       5.680   5.359  17.924  0.00  0.00    +0.000 C 
ENDROOT
BRANCH   2   3
ATOM      3  N   UNL     1       6.016   4.993  16.548  0.00  0.00    +0.000 N 
ATOM      4  C   UNL     1       5.326   4.084  15.789  0.00  0.00    +0.000 C 
ATOM      5  O   UNL     1       4.367   3.395  16.075  0.00  0.00    +0.000 OA
ATOM      6  C   UNL     1       5.941   4.085  14.466  0.00  0.00    +0.000 A 
ATOM      7  C   UNL     1       5.615   3.380  13.322  0.00  0.00    +0.000 A 
ATOM      8  C   UNL     1       6.370   3.635  12.175  0.00  0.00    +0.000 A 
ATOM      9  C   UNL     1       7.427   4.568  12.198  0.00  0.00    +0.000 A 
ATOM     10  C   UNL     1       7.742   5.266  13.368  0.00  0.00    +0.000 A 
ATOM     11  C   UNL     1       6.971   5.005  14.484  0.00  0.00    +0.000 A 
ATOM     12  C   UNL     1       7.000   5.602  15.814  0.00  0.00    +0.000 C 
ATOM     13  O   UNL     1       7.765   6.491  16.135  0.00  0.00    +0.000 OA
ENDBRANCH   2   3
BRANCH   2  14
ATOM     14  C   UNL     1       4.601   6.459  17.932  0.00  0.00    +0.000 C 
ATOM     15  O   UNL     1       4.622   7.418  17.160  0.00  0.00    +0.000 OA
ATOM     16  N   UNL     1       3.552   6.363  18.804  0.00  0.00    +0.000 N 
ATOM     17  H   UNL     1       2.888   7.121  18.720  0.00  0.00    +0.000 HD
BRANCH  16  18
ATOM     18  C   UNL     1       3.345   5.424  19.888  0.00  0.00    +0.000 C 
BRANCH  18  19
ATOM     19  C   UNL     1       2.409   4.305  19.518  0.00  0.00    +0.000 A 
ATOM     20  C   UNL     1       2.014   4.158  18.175  0.00  0.00    +0.000 A 
ATOM     21  C   UNL     1       1.088   3.182  17.802  0.00  0.00    +0.000 A 
ATOM     22  C   UNL     1       0.551   2.331  18.763  0.00  0.00    +0.000 A 
ATOM     23  C   UNL     1       0.949   2.448  20.094  0.00  0.00    +0.000 A 
ATOM     24  C   UNL     1       1.874   3.425  20.471  0.00  0.00    +0.000 A 
ATOM     25 CL   UNL     1       2.312   3.520  22.140  0.00  0.00    +0.000 Cl
ENDBRANCH  18  19
ENDBRANCH  16  18
ENDBRANCH   2  14
TORSDOF 4
ENDMDL
MODEL 8
REMARK VINA RESULT:      -7.5      1.754      2.198
REMARK  Name = 
REMARK  5 active torsions:
REMARK  status: ('A' for Active; 'I' for Inactive)
REMARK    1  A    between atoms: C_1  and  C_2
REMARK    2  A    between atoms: C_2  and  C_3
REMARK    3  A    between atoms: C_2  and  N_14
REMARK    4  A    between atoms: N_5  and  C_6
REMARK    5  A    between atoms: C_6  and  C_7
REMARK                            x       y       z     vdW  Elec       q    Type
REMARK                         _______ _______ _______ _____ _____    ______ ____
ROOT
ATOM      1  C   UNL     1       1.503   2.668  19.565  0.00  0.00    +0.000 C 
ATOM      2  C   UNL     1       1.944   4.120  19.411  0.00  0.00    +0.000 C 
ENDROOT
BRANCH   2   3
ATOM      3  N   UNL     1       3.133   4.256  18.569  0.00  0.00    +0.000 N 
ATOM      4  C   UNL     1       4.381   4.592  19.025  0.00  0.00    +0.000 C 
ATOM      5  O   UNL     1       4.754   4.872  20.148  0.00  0.00    +0.000 OA
ATOM      6  C   UNL     1       5.280   4.532  17.878  0.00  0.00    +0.000 A 
ATOM      7  C   UNL     1       6.642   4.748  17.791  0.00  0.00    +0.000 A 
ATOM      8  C   UNL     1       7.242   4.564  16.543  0.00  0.00    +0.000 A 
ATOM      9  C   UNL     1       6.477   4.183  15.422  0.00  0.00    +0.000 A 
ATOM     10  C   UNL     1       5.099   3.975  15.532  0.00  0.00    +0.000 A 
ATOM     11  C   UNL     1       4.533   4.151  16.780  0.00  0.00    +0.000 A 
ATOM     12  C   UNL     1       3.161   3.951  17.234  0.00  0.00    +0.000 C 
ATOM     13  O   UNL     1       2.265   3.559  16.512  0.00  0.00    +0.000 OA
ENDBRANCH   2   3
BRANCH   2  14
ATOM     14  C   UNL     1       2.176   4.806  20.771  0.00  0.00    +0.000 C 
ATOM     15  O   UNL     1       2.333   4.176  21.818  0.00  0.00    +0.000 OA
ATOM     16  N   UNL     1       2.246   6.171  20.831  0.00  0.00    +0.000 N 
ATOM     17  H   UNL     1       2.420   6.525  21.763  0.00  0.00    +0.000 HD
BRANCH  16  18
ATOM     18  C   UNL     1       1.977   7.148  19.795  0.00  0.00    +0.000 C 
BRANCH  18  19
ATOM     19  C   UNL     1       1.386   8.422  20.336  0.00  0.00    +0.000 A 
ATOM     20  C   UNL     1       1.065   8.502  21.704  0.00  0.00    +0.000 A 
ATOM     21  C   UNL     1       0.446   9.636  22.231  0.00  0.00    +0.000 A 
ATOM     22  C   UNL     1       0.145  10.712  21.401  0.00  0.00    +0.000 A 
ATOM     23  C   UNL     1       0.477  10.659  20.048  0.00  0.00    +0.000 A 
ATOM     24  C   UNL     1       1.096   9.524  19.517  0.00  0.00    +0.000 A 
ATOM     25 CL   UNL     1       1.466   9.522  17.830  0.00  0.00    +0.000 Cl
ENDBRANCH  18  19
ENDBRANCH  16  18
ENDBRANCH   2  14
TORSDOF 4
ENDMDL
MODEL 9
REMARK VINA RESULT:      -7.5      2.373      3.271
REMARK  Name = 
REMARK  5 active torsions:
REMARK  status: ('A' for Active; 'I' for Inactive)
REMARK    1  A    between atoms: C_1  and  C_2
REMARK    2  A    between atoms: C_2  and  C_3
REMARK    3  A    between atoms: C_2  and  N_14
REMARK    4  A    between atoms: N_5  and  C_6
REMARK    5  A    between atoms: C_6  and  C_7
REMARK                            x       y       z     vdW  Elec       q    Type
REMARK                         _______ _______ _______ _____ _____    ______ ____
ROOT
ATOM      1  C   UNL     1       3.316   2.672  21.106  0.00  0.00    +0.000 C 
ATOM      2  C   UNL     1       2.782   2.618  19.677  0.00  0.00    +0.000 C 
ENDROOT
BRANCH   2   3
ATOM      3  N   UNL     1       3.707   3.214  18.713  0.00  0.00    +0.000 N 
ATOM      4  C   UNL     1       3.456   3.359  17.373  0.00  0.00    +0.000 C 
ATOM      5  O   UNL     1       2.491   3.018  16.718  0.00  0.00    +0.000 OA
ATOM      6  C   UNL     1       4.596   4.071  16.805  0.00  0.00    +0.000 A 
ATOM      7  C   UNL     1       4.835   4.497  15.512  0.00  0.00    +0.000 A 
ATOM      8  C   UNL     1       6.014   5.208  15.279  0.00  0.00    +0.000 A 
ATOM      9  C   UNL     1       6.921   5.467  16.328  0.00  0.00    +0.000 A 
ATOM     10  C   UNL     1       6.660   5.022  17.628  0.00  0.00    +0.000 A 
ATOM     11  C   UNL     1       5.481   4.332  17.832  0.00  0.00    +0.000 A 
ATOM     12  C   UNL     1       4.896   3.802  19.058  0.00  0.00    +0.000 C 
ATOM     13  O   UNL     1       5.409   3.920  20.154  0.00  0.00    +0.000 OA
ENDBRANCH   2   3
BRANCH   2  14
ATOM     14  C   UNL     1       1.391   3.267  19.549  0.00  0.00    +0.000 C 
ATOM     15  O   UNL     1       0.407   2.656  19.130  0.00  0.00    +0.000 OA
ATOM     16  N   UNL     1       1.216   4.564  19.945  0.00  0.00    +0.000 N 
ATOM     17  H   UNL     1       0.265   4.893  19.840  0.00  0.00    +0.000 HD
BRANCH  16  18
ATOM     18  C   UNL     1       2.207   5.539  20.352  0.00  0.00    +0.000 C 
BRANCH  18  19
ATOM     19  C   UNL     1       2.163   6.796  19.524  0.00  0.00    +0.000 A 
ATOM     20  C   UNL     1       2.823   6.821  18.281  0.00  0.00    +0.000 A 
ATOM     21  C   UNL     1       2.870   7.988  17.518  0.00  0.00    +0.000 A 
ATOM     22  C   UNL     1       2.252   9.146  17.979  0.00  0.00    +0.000 A 
ATOM     23  C   UNL     1       1.574   9.132  19.198  0.00  0.00    +0.000 A 
ATOM     24  C   UNL     1       1.526   7.965  19.965  0.00  0.00    +0.000 A 
ATOM     25 CL   UNL     1       0.679   8.024  21.470  0.00  0.00    +0.000 Cl
ENDBRANCH  18  19
ENDBRANCH  16  18
ENDBRANCH   2  14
TORSDOF 4
ENDMDL
