MODEL 1
REMARK VINA RESULT:      -8.7      0.000      0.000
REMARK  Name = 
REMARK  6 active torsions:
REMARK  status: ('A' for Active; 'I' for Inactive)
REMARK    1  A    between atoms: C_1  and  C_2
REMARK    2  A    between atoms: C_4  and  C_5
REMARK    3  A    between atoms: C_6  and  C_7
REMARK    4  A    between atoms: C_7  and  N_8
REMARK    5  A    between atoms: C_9  and  C_11
REMARK    6  A    between atoms: N_20  and  C_21
REMARK                            x       y       z     vdW  Elec       q    Type
REMARK                         _______ _______ _______ _____ _____    ______ ____
ROOT
ATOM      1  N   UNL     1       1.523   7.712  21.062  0.00  0.00    +0.000 N 
ATOM      2  C   UNL     1       2.035   7.174  19.873  0.00  0.00    +0.000 C 
ATOM      3  O   UNL     1       2.658   7.831  19.064  0.00  0.00    +0.000 OA
ATOM      4  H   UNL     1       1.172   7.107  21.787  0.00  0.00    +0.000 HD
ENDROOT
BRANCH   2   5
ATOM      5  C   UNL     1       1.790   5.719  19.613  0.00  0.00    +0.000 A 
ATOM      6  C   UNL     1       1.432   4.918  20.668  0.00  0.00    +0.000 A 
ATOM      7  C   UNL     1       2.169   3.751  20.824  0.00  0.00    +0.000 A 
ATOM      8 BR   UNL     1       1.383   2.422  21.924  0.00  0.00    +0.000 Br
ATOM      9  N   UNL     1       3.325   3.468  20.137  0.00  0.00    +0.000 NA
ATOM     10  C   UNL     1       3.499   4.270  19.035  0.00  0.00    +0.000 A 
ATOM     11  C   UNL     1       2.417   5.027  18.550  0.00  0.00    +0.000 A 
ATOM     12  C   UNL     1       2.005   3.880  17.706  0.00  0.00    +0.000 A 
ATOM     13  N   UNL     1       3.067   3.262  17.140  0.00  0.00    +0.000 NA
ATOM     14  N   UNL     1       4.087   3.924  17.788  0.00  0.00    +0.000 N 
BRANCH  14  15
ATOM     15  C   UNL     1       4.849   4.856  16.937  0.00  0.00    +0.000 C 
ATOM     16  C   UNL     1       5.884   5.716  17.667  0.00  0.00    +0.000 C 
ATOM     17  C   UNL     1       6.840   6.200  16.584  0.00  0.00    +0.000 C 
ATOM     18  C   UNL     1       6.770   5.166  15.466  0.00  0.00    +0.000 C 
ATOM     19  C   UNL     1       5.665   4.176  15.832  0.00  0.00    +0.000 C 
ENDBRANCH  14  15
ENDBRANCH   2   5
BRANCH   1  20
ATOM     20  C   UNL     1       1.788   9.101  21.455  0.00  0.00    +0.000 C 
BRANCH  20  26
ATOM     21  C   UNL     1      -2.928  12.534  22.090  0.00  0.00    +0.000 C 
ATOM     22  C   UNL     1      -1.719  11.668  21.829  0.00  0.00    +0.000 A 
ATOM     23  C   UNL     1      -1.129  11.549  20.637  0.00  0.00    +0.000 A 
ATOM     24  C   UNL     1       0.041  10.689  20.470  0.00  0.00    +0.000 A 
ATOM     25  C   UNL     1       0.613  10.690  19.074  0.00  0.00    +0.000 C 
ATOM     26  C   UNL     1       0.547   9.978  21.507  0.00  0.00    +0.000 A 
ATOM     27  C   UNL     1      -0.099  10.164  22.857  0.00  0.00    +0.000 A 
ATOM     28  O   UNL     1       0.322   9.637  23.857  0.00  0.00    +0.000 OA
ATOM     29  N   UNL     1      -1.210  10.986  22.895  0.00  0.00    +0.000 N 
ATOM     30  H   UNL     1      -1.641  11.086  23.810  0.00  0.00    +0.000 HD
ENDBRANCH  20  26
ENDBRANCH   1  20
TORSDOF 4
ENDMDL
MODEL 2
REMARK VINA RESULT:      -8.2      1.102      1.215
REMARK  Name = 
REMARK  6 active torsions:
REMARK  status: ('A' for Active; 'I' for Inactive)
REMARK    1  A    between atoms: C_1  and  C_2
REMARK    2  A    between atoms: C_4  and  C_5
REMARK    3  A    between atoms: C_6  and  C_7
REMARK    4  A    between atoms: C_7  and  N_8
REMARK    5  A    between atoms: C_9  and  C_11
REMARK    6  A    between atoms: N_20  and  C_21
REMARK                            x       y       z     vdW  Elec       q    Type
REMARK                         _______ _______ _______ _____ _____    ______ ____
ROOT
ATOM      1  N   UNL     1       1.523   8.038  19.457  0.00  0.00    +0.000 N 
ATOM      2  C   UNL     1       2.390   7.274  18.664  0.00  0.00    +0.000 C 
ATOM      3  O   UNL     1       3.224   7.767  17.931  0.00  0.00    +0.000 OA
ATOM      4  H   UNL     1       0.972   7.601  20.179  0.00  0.00    +0.000 HD
ENDROOT
BRANCH   2   5
ATOM      5  C   UNL     1       2.262   5.783  18.740  0.00  0.00    +0.000 A 
ATOM      6  C   UNL     1       1.930   5.218  19.945  0.00  0.00    +0.000 A 
ATOM      7  C   UNL     1       2.745   4.179  20.377  0.00  0.00    +0.000 A 
ATOM      8 BR   UNL     1       2.023   3.078  21.740  0.00  0.00    +0.000 Br
ATOM      9  N   UNL     1       3.942   3.841  19.793  0.00  0.00    +0.000 NA
ATOM     10  C   UNL     1       4.093   4.382  18.539  0.00  0.00    +0.000 A 
ATOM     11  C   UNL     1       2.975   4.920  17.876  0.00  0.00    +0.000 A 
ATOM     12  C   UNL     1       2.678   3.582  17.311  0.00  0.00    +0.000 A 
ATOM     13  N   UNL     1       3.802   2.937  16.919  0.00  0.00    +0.000 NA
ATOM     14  N   UNL     1       4.747   3.810  17.414  0.00  0.00    +0.000 N 
BRANCH  14  15
ATOM     15  C   UNL     1       5.466   4.581  16.383  0.00  0.00    +0.000 C 
ATOM     16  C   UNL     1       6.978   4.706  16.594  0.00  0.00    +0.000 C 
ATOM     17  C   UNL     1       7.542   5.082  15.230  0.00  0.00    +0.000 C 
ATOM     18  C   UNL     1       6.553   4.547  14.200  0.00  0.00    +0.000 C 
ATOM     19  C   UNL     1       5.348   4.005  14.968  0.00  0.00    +0.000 C 
ENDBRANCH  14  15
ENDBRANCH   2   5
BRANCH   1  20
ATOM     20  C   UNL     1       1.630   9.500  19.525  0.00  0.00    +0.000 C 
BRANCH  20  26
ATOM     21  C   UNL     1      -2.159  11.948  23.278  0.00  0.00    +0.000 C 
ATOM     22  C   UNL     1      -1.230  11.366  22.239  0.00  0.00    +0.000 A 
ATOM     23  C   UNL     1      -1.239  11.717  20.950  0.00  0.00    +0.000 A 
ATOM     24  C   UNL     1      -0.303  11.105  20.009  0.00  0.00    +0.000 A 
ATOM     25  C   UNL     1      -0.413  11.633  18.600  0.00  0.00    +0.000 C 
ATOM     26  C   UNL     1       0.580  10.157  20.408  0.00  0.00    +0.000 A 
ATOM     27  C   UNL     1       0.611   9.811  21.875  0.00  0.00    +0.000 A 
ATOM     28  O   UNL     1       1.410   9.038  22.343  0.00  0.00    +0.000 OA
ATOM     29  N   UNL     1      -0.331  10.437  22.671  0.00  0.00    +0.000 N 
ATOM     30  H   UNL     1      -0.304  10.179  23.653  0.00  0.00    +0.000 HD
ENDBRANCH  20  26
ENDBRANCH   1  20
TORSDOF 4
ENDMDL
MODEL 3
REMARK VINA RESULT:      -8.1      1.343      1.738
REMARK  Name = 
REMARK  6 active torsions:
REMARK  status: ('A' for Active; 'I' for Inactive)
REMARK    1  A    between atoms: C_1  and  C_2
REMARK    2  A    between atoms: C_4  and  C_5
REMARK    3  A    between atoms: C_6  and  C_7
REMARK    4  A    between atoms: C_7  and  N_8
REMARK    5  A    between atoms: C_9  and  C_11
REMARK    6  A    between atoms: N_20  and  C_21
REMARK                            x       y       z     vdW  Elec       q    Type
REMARK                         _______ _______ _______ _____ _____    ______ ____
ROOT
ATOM      1  N   UNL     1       1.614   7.738  20.831  0.00  0.00    +0.000 N 
ATOM      2  C   UNL     1       2.179   7.143  19.695  0.00  0.00    +0.000 C 
ATOM      3  O   UNL     1       2.861   7.755  18.898  0.00  0.00    +0.000 OA
ATOM      4  H   UNL     1       1.209   7.168  21.558  0.00  0.00    +0.000 HD
ENDROOT
BRANCH   2   5
ATOM      5  C   UNL     1       1.917   5.684  19.476  0.00  0.00    +0.000 A 
ATOM      6  C   UNL     1       1.525   4.924  20.548  0.00  0.00    +0.000 A 
ATOM      7  C   UNL     1       2.240   3.751  20.757  0.00  0.00    +0.000 A 
ATOM      8 BR   UNL     1       1.411   2.471  21.882  0.00  0.00    +0.000 Br
ATOM      9  N   UNL     1       3.406   3.429  20.104  0.00  0.00    +0.000 NA
ATOM     10  C   UNL     1       3.615   4.192  18.981  0.00  0.00    +0.000 A 
ATOM     11  C   UNL     1       2.555   4.949  18.450  0.00  0.00    +0.000 A 
ATOM     12  C   UNL     1       2.143   3.782  17.634  0.00  0.00    +0.000 A 
ATOM     13  N   UNL     1       3.207   3.130  17.110  0.00  0.00    +0.000 NA
ATOM     14  N   UNL     1       4.222   3.798  17.758  0.00  0.00    +0.000 N 
BRANCH  14  15
ATOM     15  C   UNL     1       5.017   4.690  16.894  0.00  0.00    +0.000 C 
ATOM     16  C   UNL     1       6.466   4.911  17.334  0.00  0.00    +0.000 C 
ATOM     17  C   UNL     1       7.189   5.422  16.094  0.00  0.00    +0.000 C 
ATOM     18  C   UNL     1       6.407   4.889  14.899  0.00  0.00    +0.000 C 
ATOM     19  C   UNL     1       5.153   4.208  15.446  0.00  0.00    +0.000 C 
ENDBRANCH  14  15
ENDBRANCH   2   5
BRANCH   1  20
ATOM     20  C   UNL     1       1.887   9.136  21.186  0.00  0.00    +0.000 C 
BRANCH  20  26
ATOM     21  C   UNL     1      -2.680  12.643  20.060  0.00  0.00    +0.000 C 
ATOM     22  C   UNL     1      -1.534  11.737  20.445  0.00  0.00    +0.000 A 
ATOM     23  C   UNL     1      -1.393  11.183  21.652  0.00  0.00    +0.000 A 
ATOM     24  C   UNL     1      -0.253  10.315  21.941  0.00  0.00    +0.000 A 
ATOM     25  C   UNL     1      -0.255   9.740  23.335  0.00  0.00    +0.000 C 
ATOM     26  C   UNL     1       0.697  10.064  21.007  0.00  0.00    +0.000 A 
ATOM     27  C   UNL     1       0.493  10.655  19.634  0.00  0.00    +0.000 A 
ATOM     28  O   UNL     1       1.239  10.429  18.714  0.00  0.00    +0.000 OA
ATOM     29  N   UNL     1      -0.609  11.475  19.478  0.00  0.00    +0.000 N 
ATOM     30  H   UNL     1      -0.719  11.876  18.552  0.00  0.00    +0.000 HD
ENDBRANCH  20  26
ENDBRANCH   1  20
TORSDOF 4
ENDMDL
MODEL 4
REMARK VINA RESULT:      -8.1      2.591      4.337
REMARK  Name = 
REMARK  6 active torsions:
REMARK  status: ('A' for Active; 'I' for Inactive)
REMARK    1  A    between atoms: C_1  and  C_2
REMARK    2  A    between atoms: C_4  and  C_5
REMARK    3  A    between atoms: C_6  and  C_7
REMARK    4  A    between atoms: C_7  and  N_8
REMARK    5  A    between atoms: C_9  and  C_11
REMARK    6  A    between atoms: N_20  and  C_21
REMARK                            x       y       z     vdW  Elec       q    Type
REMARK                         _______ _______ _______ _____ _____    ______ ____
ROOT
ATOM      1  N   UNL     1       2.740   8.166  18.257  0.00  0.00    +0.000 N 
ATOM      2  C   UNL     1       2.720   6.825  17.850  0.00  0.00    +0.000 C 
ATOM      3  O   UNL     1       1.714   6.266  17.465  0.00  0.00    +0.000 OA
ATOM      4  H   UNL     1       3.617   8.645  18.397  0.00  0.00    +0.000 HD
ENDROOT
BRANCH   2   5
ATOM      5  C   UNL     1       4.013   6.069  17.901  0.00  0.00    +0.000 A 
ATOM      6  C   UNL     1       4.869   6.169  16.835  0.00  0.00    +0.000 A 
ATOM      7  C   UNL     1       5.331   4.969  16.309  0.00  0.00    +0.000 A 
ATOM      8 BR   UNL     1       6.869   5.090  15.206  0.00  0.00    +0.000 Br
ATOM      9  N   UNL     1       4.832   3.734  16.647  0.00  0.00    +0.000 NA
ATOM     10  C   UNL     1       4.088   3.759  17.801  0.00  0.00    +0.000 A 
ATOM     11  C   UNL     1       4.160   4.878  18.650  0.00  0.00    +0.000 A 
ATOM     12  C   UNL     1       5.310   4.260  19.352  0.00  0.00    +0.000 A 
ATOM     13  N   UNL     1       5.134   2.931  19.538  0.00  0.00    +0.000 NA
ATOM     14  N   UNL     1       3.987   2.749  18.797  0.00  0.00    +0.000 N 
BRANCH  14  15
ATOM     15  C   UNL     1       2.778   2.482  19.597  0.00  0.00    +0.000 C 
ATOM     16  C   UNL     1       2.914   2.743  21.099  0.00  0.00    +0.000 C 
ATOM     17  C   UNL     1       1.486   2.879  21.614  0.00  0.00    +0.000 C 
ATOM     18  C   UNL     1       0.650   3.342  20.426  0.00  0.00    +0.000 C 
ATOM     19  C   UNL     1       1.559   3.321  19.197  0.00  0.00    +0.000 C 
ENDBRANCH  14  15
ENDBRANCH   2   5
BRANCH   1  20
ATOM     20  C   UNL     1       1.550   9.019  18.157  0.00  0.00    +0.000 C 
BRANCH  20  26
ATOM     21  C   UNL     1      -0.964  10.884  23.119  0.00  0.00    +0.000 C 
ATOM     22  C   UNL     1      -0.282  10.326  21.893  0.00  0.00    +0.000 A 
ATOM     23  C   UNL     1       0.326   9.138  21.852  0.00  0.00    +0.000 A 
ATOM     24  C   UNL     1       0.962   8.672  20.621  0.00  0.00    +0.000 A 
ATOM     25  C   UNL     1       1.573   7.297  20.727  0.00  0.00    +0.000 C 
ATOM     26  C   UNL     1       0.969   9.432  19.500  0.00  0.00    +0.000 A 
ATOM     27  C   UNL     1       0.232  10.748  19.548  0.00  0.00    +0.000 A 
ATOM     28  O   UNL     1       0.115  11.461  18.583  0.00  0.00    +0.000 OA
ATOM     29  N   UNL     1      -0.315  11.097  20.768  0.00  0.00    +0.000 N 
ATOM     30  H   UNL     1      -0.793  11.994  20.785  0.00  0.00    +0.000 HD
ENDBRANCH  20  26
ENDBRANCH   1  20
TORSDOF 4
ENDMDL
MODEL 5
REMARK VINA RESULT:      -8.0      2.587      4.464
REMARK  Name = 
REMARK  6 active torsions:
REMARK  status: ('A' for Active; 'I' for Inactive)
REMARK    1  A    between atoms: C_1  and  C_2
REMARK    2  A    between atoms: C_4  and  C_5
REMARK    3  A    between atoms: C_6  and  C_7
REMARK    4  A    between atoms: C_7  and  N_8
REMARK    5  A    between atoms: C_9  and  C_11
REMARK    6  A    between atoms: N_20  and  C_21
REMARK                            x       y       z     vdW  Elec       q    Type
REMARK                         _______ _______ _______ _____ _____    ______ ____
ROOT
ATOM      1  N   UNL     1       2.897   7.753  18.294  0.00  0.00    +0.000 N 
ATOM      2  C   UNL     1       3.672   7.461  17.163  0.00  0.00    +0.000 C 
ATOM      3  O   UNL     1       3.492   7.986  16.083  0.00  0.00    +0.000 OA
ATOM      4  H   UNL     1       3.185   7.438  19.207  0.00  0.00    +0.000 HD
ENDROOT
BRANCH   2   5
ATOM      5  C   UNL     1       4.767   6.450  17.320  0.00  0.00    +0.000 A 
ATOM      6  C   UNL     1       5.515   6.122  16.218  0.00  0.00    +0.000 A 
ATOM      7  C   UNL     1       5.649   4.765  15.955  0.00  0.00    +0.000 A 
ATOM      8 BR   UNL     1       7.058   4.290  14.779  0.00  0.00    +0.000 Br
ATOM      9  N   UNL     1       4.930   3.779  16.588  0.00  0.00    +0.000 NA
ATOM     10  C   UNL     1       4.328   4.218  17.742  0.00  0.00    +0.000 A 
ATOM     11  C   UNL     1       4.727   5.442  18.311  0.00  0.00    +0.000 A 
ATOM     12  C   UNL     1       5.778   4.732  19.077  0.00  0.00    +0.000 A 
ATOM     13  N   UNL     1       5.337   3.550  19.567  0.00  0.00    +0.000 NA
ATOM     14  N   UNL     1       4.110   3.491  18.944  0.00  0.00    +0.000 N 
BRANCH  14  15
ATOM     15  C   UNL     1       2.958   3.688  19.842  0.00  0.00    +0.000 C 
ATOM     16  C   UNL     1       1.582   3.509  19.195  0.00  0.00    +0.000 C 
ATOM     17  C   UNL     1       0.621   3.273  20.353  0.00  0.00    +0.000 C 
ATOM     18  C   UNL     1       1.458   2.686  21.484  0.00  0.00    +0.000 C 
ATOM     19  C   UNL     1       2.919   2.729  21.037  0.00  0.00    +0.000 C 
ENDBRANCH  14  15
ENDBRANCH   2   5
BRANCH   1  20
ATOM     20  C   UNL     1       1.862   8.794  18.269  0.00  0.00    +0.000 C 
BRANCH  20  26
ATOM     21  C   UNL     1      -0.194   9.669  23.695  0.00  0.00    +0.000 C 
ATOM     22  C   UNL     1       0.301   9.534  22.274  0.00  0.00    +0.000 A 
ATOM     23  C   UNL     1       0.256  10.517  21.372  0.00  0.00    +0.000 A 
ATOM     24  C   UNL     1       0.759  10.302  20.016  0.00  0.00    +0.000 A 
ATOM     25  C   UNL     1       0.672  11.518  19.128  0.00  0.00    +0.000 C 
ATOM     26  C   UNL     1       1.264   9.105  19.632  0.00  0.00    +0.000 A 
ATOM     27  C   UNL     1       1.355   8.023  20.679  0.00  0.00    +0.000 A 
ATOM     28  O   UNL     1       1.858   6.948  20.460  0.00  0.00    +0.000 OA
ATOM     29  N   UNL     1       0.832   8.328  21.922  0.00  0.00    +0.000 N 
ATOM     30  H   UNL     1       0.888   7.581  22.608  0.00  0.00    +0.000 HD
ENDBRANCH  20  26
ENDBRANCH   1  20
TORSDOF 4
ENDMDL
MODEL 6
REMARK VINA RESULT:      -8.0      2.614      4.519
REMARK  Name = 
REMARK  6 active torsions:
REMARK  status: ('A' for Active; 'I' for Inactive)
REMARK    1  A    between atoms: C_1  and  C_2
REMARK    2  A    between atoms: C_4  and  C_5
REMARK    3  A    between atoms: C_6  and  C_7
REMARK    4  A    between atoms: C_7  and  N_8
REMARK    5  A    between atoms: C_9  and  C_11
REMARK    6  A    between atoms: N_20  and  C_21
REMARK                            x       y       z     vdW  Elec       q    Type
REMARK                         _______ _______ _______ _____ _____    ______ ____
ROOT
ATOM      1  N   UNL     1       2.838   7.874  18.381  0.00  0.00    +0.000 N 
ATOM      2  C   UNL     1       3.587   7.532  17.247  0.00  0.00    +0.000 C 
ATOM      3  O   UNL     1       3.367   7.994  16.145  0.00  0.00    +0.000 OA
ATOM      4  H   UNL     1       3.157   7.614  19.301  0.00  0.00    +0.000 HD
ENDROOT
BRANCH   2   5
ATOM      5  C   UNL     1       4.705   6.551  17.427  0.00  0.00    +0.000 A 
ATOM      6  C   UNL     1       5.493   6.254  16.344  0.00  0.00    +0.000 A 
ATOM      7  C   UNL     1       5.673   4.903  16.074  0.00  0.00    +0.000 A 
ATOM      8 BR   UNL     1       7.129   4.478  14.936  0.00  0.00    +0.000 Br
ATOM      9  N   UNL     1       4.963   3.892  16.675  0.00  0.00    +0.000 NA
ATOM     10  C   UNL     1       4.315   4.303  17.815  0.00  0.00    +0.000 A 
ATOM     11  C   UNL     1       4.663   5.532  18.406  0.00  0.00    +0.000 A 
ATOM     12  C   UNL     1       5.711   4.843  19.198  0.00  0.00    +0.000 A 
ATOM     13  N   UNL     1       5.288   3.645  19.663  0.00  0.00    +0.000 NA
ATOM     14  N   UNL     1       4.082   3.559  19.004  0.00  0.00    +0.000 N 
BRANCH  14  15
ATOM     15  C   UNL     1       2.899   3.716  19.869  0.00  0.00    +0.000 C 
ATOM     16  C   UNL     1       1.551   3.443  19.195  0.00  0.00    +0.000 C 
ATOM     17  C   UNL     1       0.576   3.186  20.337  0.00  0.00    +0.000 C 
ATOM     18  C   UNL     1       1.416   2.676  21.503  0.00  0.00    +0.000 C 
ATOM     19  C   UNL     1       2.883   2.788  21.089  0.00  0.00    +0.000 C 
ENDBRANCH  14  15
ENDBRANCH   2   5
BRANCH   1  20
ATOM     20  C   UNL     1       1.784   8.894  18.329  0.00  0.00    +0.000 C 
BRANCH  20  26
ATOM     21  C   UNL     1      -0.873  10.410  23.337  0.00  0.00    +0.000 C 
ATOM     22  C   UNL     1      -0.161   9.935  22.092  0.00  0.00    +0.000 A 
ATOM     23  C   UNL     1       0.380   8.722  21.958  0.00  0.00    +0.000 A 
ATOM     24  C   UNL     1       1.051   8.341  20.716  0.00  0.00    +0.000 A 
ATOM     25  C   UNL     1       1.577   6.928  20.709  0.00  0.00    +0.000 C 
ATOM     26  C   UNL     1       1.159   9.207  19.680  0.00  0.00    +0.000 A 
ATOM     27  C   UNL     1       0.496  10.554  19.828  0.00  0.00    +0.000 A 
ATOM     28  O   UNL     1       0.470  11.366  18.937  0.00  0.00    +0.000 OA
ATOM     29  N   UNL     1      -0.092  10.814  21.052  0.00  0.00    +0.000 N 
ATOM     30  H   UNL     1      -0.519  11.732  21.137  0.00  0.00    +0.000 HD
ENDBRANCH  20  26
ENDBRANCH   1  20
TORSDOF 4
ENDMDL
MODEL 7
REMARK VINA RESULT:      -7.9      2.486      4.221
REMARK  Name = 
REMARK  6 active torsions:
REMARK  status: ('A' for Active; 'I' for Inactive)
REMARK    1  A    between atoms: C_1  and  C_2
REMARK    2  A    between atoms: C_4  and  C_5
REMARK    3  A    between atoms: C_6  and  C_7
REMARK    4  A    between atoms: C_7  and  N_8
REMARK    5  A    between atoms: C_9  and  C_11
REMARK    6  A    between atoms: N_20  and  C_21
REMARK                            x       y       z     vdW  Elec       q    Type
REMARK                         _______ _______ _______ _____ _____    ______ ____
ROOT
ATOM      1  N   UNL     1       2.722   8.156  18.155  0.00  0.00    +0.000 N 
ATOM      2  C   UNL     1       2.702   6.802  17.794  0.00  0.00    +0.000 C 
ATOM      3  O   UNL     1       1.694   6.229  17.432  0.00  0.00    +0.000 OA
ATOM      4  H   UNL     1       3.599   8.639  18.276  0.00  0.00    +0.000 HD
ENDROOT
BRANCH   2   5
ATOM      5  C   UNL     1       3.995   6.048  17.867  0.00  0.00    +0.000 A 
ATOM      6  C   UNL     1       4.870   6.152  16.816  0.00  0.00    +0.000 A 
ATOM      7  C   UNL     1       5.344   4.954  16.297  0.00  0.00    +0.000 A 
ATOM      8 BR   UNL     1       6.901   5.081  15.222  0.00  0.00    +0.000 Br
ATOM      9  N   UNL     1       4.842   3.717  16.623  0.00  0.00    +0.000 NA
ATOM     10  C   UNL     1       4.077   3.738  17.763  0.00  0.00    +0.000 A 
ATOM     11  C   UNL     1       4.131   4.856  18.616  0.00  0.00    +0.000 A 
ATOM     12  C   UNL     1       5.269   4.238  19.338  0.00  0.00    +0.000 A 
ATOM     13  N   UNL     1       5.093   2.908  19.517  0.00  0.00    +0.000 NA
ATOM     14  N   UNL     1       3.960   2.726  18.755  0.00  0.00    +0.000 N 
BRANCH  14  15
ATOM     15  C   UNL     1       2.737   2.455  19.533  0.00  0.00    +0.000 C 
ATOM     16  C   UNL     1       2.837   2.737  21.034  0.00  0.00    +0.000 C 
ATOM     17  C   UNL     1       1.398   2.862  21.516  0.00  0.00    +0.000 C 
ATOM     18  C   UNL     1       0.582   3.299  20.304  0.00  0.00    +0.000 C 
ATOM     19  C   UNL     1       1.518   3.274  19.096  0.00  0.00    +0.000 C 
ENDBRANCH  14  15
ENDBRANCH   2   5
BRANCH   1  20
ATOM     20  C   UNL     1       1.531   9.004  18.029  0.00  0.00    +0.000 C 
BRANCH  20  26
ATOM     21  C   UNL     1      -0.606  10.219  23.357  0.00  0.00    +0.000 C 
ATOM     22  C   UNL     1      -0.107   9.984  21.951  0.00  0.00    +0.000 A 
ATOM     23  C   UNL     1      -0.344  10.808  20.927  0.00  0.00    +0.000 A 
ATOM     24  C   UNL     1       0.179  10.507  19.596  0.00  0.00    +0.000 A 
ATOM     25  C   UNL     1      -0.143  11.552  18.557  0.00  0.00    +0.000 C 
ATOM     26  C   UNL     1       0.897   9.382  19.358  0.00  0.00    +0.000 A 
ATOM     27  C   UNL     1       1.200   8.490  20.536  0.00  0.00    +0.000 A 
ATOM     28  O   UNL     1       1.893   7.508  20.445  0.00  0.00    +0.000 OA
ATOM     29  N   UNL     1       0.639   8.861  21.744  0.00  0.00    +0.000 N 
ATOM     30  H   UNL     1       0.841   8.239  22.521  0.00  0.00    +0.000 HD
ENDBRANCH  20  26
ENDBRANCH   1  20
TORSDOF 4
ENDMDL
MODEL 8
REMARK VINA RESULT:      -7.9      1.532      2.009
REMARK  Name = 
REMARK  6 active torsions:
REMARK  status: ('A' for Active; 'I' for Inactive)
REMARK    1  A    between atoms: C_1  and  C_2
REMARK    2  A    between atoms: C_4  and  C_5
REMARK    3  A    between atoms: C_6  and  C_7
REMARK    4  A    between atoms: C_7  and  N_8
REMARK    5  A    between atoms: C_9  and  C_11
REMARK    6  A    between atoms: N_20  and  C_21
REMARK                            x       y       z     vdW  Elec       q    Type
REMARK                         _______ _______ _______ _____ _____    ______ ____
ROOT
ATOM      1  N   UNL     1       1.674   8.377  18.990  0.00  0.00    +0.000 N 
ATOM      2  C   UNL     1       2.499   7.748  18.047  0.00  0.00    +0.000 C 
ATOM      3  O   UNL     1       3.144   8.359  17.220  0.00  0.00    +0.000 OA
ATOM      4  H   UNL     1       1.299   7.857  19.767  0.00  0.00    +0.000 HD
ENDROOT
BRANCH   2   5
ATOM      5  C   UNL     1       2.572   6.252  18.082  0.00  0.00    +0.000 A 
ATOM      6  C   UNL     1       1.725   5.577  18.925  0.00  0.00    +0.000 A 
ATOM      7  C   UNL     1       2.317   4.638  19.760  0.00  0.00    +0.000 A 
ATOM      8 BR   UNL     1       1.141   3.370  20.537  0.00  0.00    +0.000 Br
ATOM      9  N   UNL     1       3.673   4.504  19.934  0.00  0.00    +0.000 NA
ATOM     10  C   UNL     1       4.400   5.132  18.953  0.00  0.00    +0.000 A 
ATOM     11  C   UNL     1       3.758   5.547  17.772  0.00  0.00    +0.000 A 
ATOM     12  C   UNL     1       4.018   4.216  17.173  0.00  0.00    +0.000 A 
ATOM     13  N   UNL     1       5.254   3.757  17.477  0.00  0.00    +0.000 NA
ATOM     14  N   UNL     1       5.637   4.722  18.384  0.00  0.00    +0.000 N 
BRANCH  14  15
ATOM     15  C   UNL     1       6.678   5.644  17.894  0.00  0.00    +0.000 C 
ATOM     16  C   UNL     1       6.168   6.980  17.347  0.00  0.00    +0.000 C 
ATOM     17  C   UNL     1       7.374   7.910  17.371  0.00  0.00    +0.000 C 
ATOM     18  C   UNL     1       8.298   7.377  18.461  0.00  0.00    +0.000 C 
ATOM     19  C   UNL     1       7.702   6.059  18.955  0.00  0.00    +0.000 C 
ENDBRANCH  14  15
ENDBRANCH   2   5
BRANCH   1  20
ATOM     20  C   UNL     1       1.606   9.839  19.099  0.00  0.00    +0.000 C 
BRANCH  20  26
ATOM     21  C   UNL     1      -2.060  11.651  23.307  0.00  0.00    +0.000 C 
ATOM     22  C   UNL     1      -1.170  11.238  22.159  0.00  0.00    +0.000 A 
ATOM     23  C   UNL     1      -1.272  11.728  20.922  0.00  0.00    +0.000 A 
ATOM     24  C   UNL     1      -0.367  11.275  19.867  0.00  0.00    +0.000 A 
ATOM     25  C   UNL     1      -0.586  11.948  18.535  0.00  0.00    +0.000 C 
ATOM     26  C   UNL     1       0.582  10.337  20.107  0.00  0.00    +0.000 A 
ATOM     27  C   UNL     1       0.717   9.833  21.522  0.00  0.00    +0.000 A 
ATOM     28  O   UNL     1       1.578   9.057  21.855  0.00  0.00    +0.000 OA
ATOM     29  N   UNL     1      -0.203  10.316  22.434  0.00  0.00    +0.000 N 
ATOM     30  H   UNL     1      -0.106   9.953  23.377  0.00  0.00    +0.000 HD
ENDBRANCH  20  26
ENDBRANCH   1  20
TORSDOF 4
ENDMDL
MODEL 9
REMARK VINA RESULT:      -7.8      1.561      1.967
REMARK  Name = 
REMARK  6 active torsions:
REMARK  status: ('A' for Active; 'I' for Inactive)
REMARK    1  A    between atoms: C_1  and  C_2
REMARK    2  A    between atoms: C_4  and  C_5
REMARK    3  A    between atoms: C_6  and  C_7
REMARK    4  A    between atoms: C_7  and  N_8
REMARK    5  A    between atoms: C_9  and  C_11
REMARK    6  A    between atoms: N_20  and  C_21
REMARK                            x       y       z     vdW  Elec       q    Type
REMARK                         _______ _______ _______ _____ _____    ______ ____
ROOT
ATOM      1  N   UNL     1       1.335   8.124  18.981  0.00  0.00    +0.000 N 
ATOM      2  C   UNL     1       2.410   7.341  18.542  0.00  0.00    +0.000 C 
ATOM      3  O   UNL     1       3.433   7.814  18.089  0.00  0.00    +0.000 OA
ATOM      4  H   UNL     1       0.584   7.711  19.511  0.00  0.00    +0.000 HD
ENDROOT
BRANCH   2   5
ATOM      5  C   UNL     1       2.269   5.853  18.647  0.00  0.00    +0.000 A 
ATOM      6  C   UNL     1       1.933   5.314  19.863  0.00  0.00    +0.000 A 
ATOM      7  C   UNL     1       2.739   4.275  20.313  0.00  0.00    +0.000 A 
ATOM      8 BR   UNL     1       2.009   3.207  21.698  0.00  0.00    +0.000 Br
ATOM      9  N   UNL     1       3.931   3.914  19.733  0.00  0.00    +0.000 NA
ATOM     10  C   UNL     1       4.085   4.430  18.468  0.00  0.00    +0.000 A 
ATOM     11  C   UNL     1       2.970   4.966  17.798  0.00  0.00    +0.000 A 
ATOM     12  C   UNL     1       2.659   3.621  17.259  0.00  0.00    +0.000 A 
ATOM     13  N   UNL     1       3.776   2.958  16.877  0.00  0.00    +0.000 NA
ATOM     14  N   UNL     1       4.730   3.830  17.353  0.00  0.00    +0.000 N 
BRANCH  14  15
ATOM     15  C   UNL     1       5.455   4.575  16.307  0.00  0.00    +0.000 C 
ATOM     16  C   UNL     1       6.969   4.682  16.507  0.00  0.00    +0.000 C 
ATOM     17  C   UNL     1       7.532   5.029  15.135  0.00  0.00    +0.000 C 
ATOM     18  C   UNL     1       6.530   4.491  14.119  0.00  0.00    +0.000 C 
ATOM     19  C   UNL     1       5.322   3.978  14.902  0.00  0.00    +0.000 C 
ENDBRANCH  14  15
ENDBRANCH   2   5
BRANCH   1  20
ATOM     20  C   UNL     1       1.410   9.590  19.008  0.00  0.00    +0.000 C 
BRANCH  20  26
ATOM     21  C   UNL     1      -2.153  12.188  22.878  0.00  0.00    +0.000 C 
ATOM     22  C   UNL     1      -1.193  11.472  21.958  0.00  0.00    +0.000 A 
ATOM     23  C   UNL     1      -0.343  10.524  22.358  0.00  0.00    +0.000 A 
ATOM     24  C   UNL     1       0.554   9.879  21.400  0.00  0.00    +0.000 A 
ATOM     25  C   UNL     1       1.426   8.805  22.000  0.00  0.00    +0.000 C 
ATOM     26  C   UNL     1       0.562  10.234  20.092  0.00  0.00    +0.000 A 
ATOM     27  C   UNL     1      -0.442  11.269  19.648  0.00  0.00    +0.000 A 
ATOM     28  O   UNL     1      -0.567  11.598  18.495  0.00  0.00    +0.000 OA
ATOM     29  N   UNL     1      -1.226  11.826  20.641  0.00  0.00    +0.000 N 
ATOM     30  H   UNL     1      -1.884  12.532  20.324  0.00  0.00    +0.000 HD
ENDBRANCH  20  26
ENDBRANCH   1  20
TORSDOF 4
ENDMDL
