MODEL 1
REMARK VINA RESULT:      -6.9      0.000      0.000
REMARK  Name = 
REMARK  10 active torsions:
REMARK  status: ('A' for Active; 'I' for Inactive)
REMARK    1  A    between atoms: C_1  and  O_2
REMARK    2  A    between atoms: O_2  and  C_3
REMARK    3  A    between atoms: C_6  and  C_7
REMARK    4  A    between atoms: C_14  and  C_15
REMARK    5  A    between atoms: N_19  and  C_20
REMARK    6  A    between atoms: C_20  and  C_21
REMARK    7  A    between atoms: C_21  and  O_23
REMARK    8  A    between atoms: C_26  and  O_27
REMARK    9  A    between atoms: O_27  and  C_28
REMARK   10  A    between atoms: C_28  and  C_29
REMARK                            x       y       z     vdW  Elec       q    Type
REMARK                         _______ _______ _______ _____ _____    ______ ____
ROOT
ATOM      1  C   UNL     1       3.226   6.208  17.667  0.00  0.00    +0.000 C 
ATOM      2  C   UNL     1       2.528   4.928  18.334  0.00  0.00    +0.000 C 
ATOM      3  C   UNL     1       3.175   3.833  19.201  0.00  0.00    +0.000 A 
ATOM      4  C   UNL     1       4.429   3.286  18.831  0.00  0.00    +0.000 A 
ATOM      5  C   UNL     1       5.031   2.212  19.499  0.00  0.00    +0.000 A 
ATOM      6  C   UNL     1       4.394   1.634  20.579  0.00  0.00    +0.000 A 
ATOM      7  C   UNL     1       3.140   2.105  20.947  0.00  0.00    +0.000 A 
ATOM      8  C   UNL     1       2.493   3.171  20.259  0.00  0.00    +0.000 A 
ATOM      9  N   UNL     1       5.203   3.971  17.894  0.00  0.00    +0.000 N 
ATOM     10  C   UNL     1       5.469   5.272  18.254  0.00  0.00    +0.000 C 
ATOM     11  O   UNL     1       6.031   5.569  19.310  0.00  0.00    +0.000 OA
ATOM     12  C   UNL     1       4.769   6.287  17.393  0.00  0.00    +0.000 C 
ENDROOT
BRANCH   1  16
ATOM     13  C   UNL     1       1.478   9.882  19.165  0.00  0.00    +0.000 A 
ATOM     14  C   UNL     1       2.013   9.850  17.881  0.00  0.00    +0.000 A 
ATOM     15  C   UNL     1       2.592   8.683  17.380  0.00  0.00    +0.000 A 
ATOM     16  C   UNL     1       2.689   7.547  18.186  0.00  0.00    +0.000 A 
ATOM     17  C   UNL     1       2.206   7.613  19.509  0.00  0.00    +0.000 A 
ATOM     18  C   UNL     1       1.599   8.771  19.996  0.00  0.00    +0.000 A 
BRANCH  13  20
ATOM     19  C   UNL     1       0.161  11.002  20.763  0.00  0.00    +0.000 C 
ATOM     20  O   UNL     1       0.860  11.052  19.524  0.00  0.00    +0.000 OA
ENDBRANCH  13  20
ENDBRANCH   1  16
BRANCH   8  21
ATOM     21  C   UNL     1       1.084   3.448  20.758  0.00  0.00    +0.000 C 
ATOM     22  F   UNL     1       0.729   4.747  20.909  0.00  0.00    +0.000 F 
ATOM     23  F   UNL     1       0.147   2.918  19.916  0.00  0.00    +0.000 F 
ATOM     24  F   UNL     1       0.851   2.859  21.967  0.00  0.00    +0.000 F 
ENDBRANCH   8  21
BRANCH   9  25
ATOM     25  C   UNL     1       5.557   3.357  16.616  0.00  0.00    +0.000 C 
BRANCH  25  26
ATOM     26  C   UNL     1       6.746   3.969  15.871  0.00  0.00    +0.000 C 
ATOM     27  O   UNL     1       6.746   4.347  14.710  0.00  0.00    +0.000 OA
BRANCH  26  28
ATOM     28  O   UNL     1       7.852   4.092  16.647  0.00  0.00    +0.000 OA
ATOM     29  H   UNL     1       8.332   4.938  16.561  0.00  0.00    +0.000 HD
ENDBRANCH  26  28
ENDBRANCH  25  26
ENDBRANCH   9  25
BRANCH  12  30
ATOM     30  O   UNL     1       5.324   7.586  17.707  0.00  0.00    +0.000 OA
BRANCH  30  31
ATOM     31  C   UNL     1       6.589   7.813  17.262  0.00  0.00    +0.000 C 
ATOM     32  C   UNL     1       7.136   9.084  17.844  0.00  0.00    +0.000 C 
ATOM     33  O   UNL     1       7.216   7.058  16.530  0.00  0.00    +0.000 OA
ENDBRANCH  30  31
ENDBRANCH  12  30
TORSDOF 8
ENDMDL
MODEL 2
REMARK VINA RESULT:      -6.8      6.783      9.926
REMARK  Name = 
REMARK  10 active torsions:
REMARK  status: ('A' for Active; 'I' for Inactive)
REMARK    1  A    between atoms: C_1  and  O_2
REMARK    2  A    between atoms: O_2  and  C_3
REMARK    3  A    between atoms: C_6  and  C_7
REMARK    4  A    between atoms: C_14  and  C_15
REMARK    5  A    between atoms: N_19  and  C_20
REMARK    6  A    between atoms: C_20  and  C_21
REMARK    7  A    between atoms: C_21  and  O_23
REMARK    8  A    between atoms: C_26  and  O_27
REMARK    9  A    between atoms: O_27  and  C_28
REMARK   10  A    between atoms: C_28  and  C_29
REMARK                            x       y       z     vdW  Elec       q    Type
REMARK                         _______ _______ _______ _____ _____    ______ ____
ROOT
ATOM      1  C   UNL     1      -1.770  13.812  20.676  0.00  0.00    +0.000 C 
ATOM      2  C   UNL     1      -1.679  12.988  19.304  0.00  0.00    +0.000 C 
ATOM      3  C   UNL     1      -0.844  11.731  19.000  0.00  0.00    +0.000 A 
ATOM      4  C   UNL     1       0.499  11.649  19.446  0.00  0.00    +0.000 A 
ATOM      5  C   UNL     1       1.360  10.594  19.117  0.00  0.00    +0.000 A 
ATOM      6  C   UNL     1       0.905   9.565  18.317  0.00  0.00    +0.000 A 
ATOM      7  C   UNL     1      -0.389   9.627  17.815  0.00  0.00    +0.000 A 
ATOM      8  C   UNL     1      -1.269  10.709  18.108  0.00  0.00    +0.000 A 
ATOM      9  N   UNL     1       0.931  12.544  20.425  0.00  0.00    +0.000 N 
ATOM     10  C   UNL     1       0.168  12.509  21.570  0.00  0.00    +0.000 C 
ATOM     11  O   UNL     1      -0.000  11.480  22.226  0.00  0.00    +0.000 OA
ATOM     12  C   UNL     1      -0.656  13.750  21.779  0.00  0.00    +0.000 C 
ENDROOT
BRANCH   1  16
ATOM     13  C   UNL     1      -5.628  13.962  22.647  0.00  0.00    +0.000 A 
ATOM     14  C   UNL     1      -5.026  12.730  22.411  0.00  0.00    +0.000 A 
ATOM     15  C   UNL     1      -3.789  12.654  21.767  0.00  0.00    +0.000 A 
ATOM     16  C   UNL     1      -3.168  13.816  21.304  0.00  0.00    +0.000 A 
ATOM     17  C   UNL     1      -3.822  15.052  21.489  0.00  0.00    +0.000 A 
ATOM     18  C   UNL     1      -5.042  15.127  22.160  0.00  0.00    +0.000 A 
BRANCH  13  20
ATOM     19  C   UNL     1      -7.175  12.631  23.823  0.00  0.00    +0.000 C 
ATOM     20  O   UNL     1      -6.798  13.924  23.360  0.00  0.00    +0.000 OA
ENDBRANCH  13  20
ENDBRANCH   1  16
BRANCH   8  21
ATOM     21  C   UNL     1      -2.594  10.630  17.367  0.00  0.00    +0.000 C 
ATOM     22  F   UNL     1      -2.785  11.505  16.351  0.00  0.00    +0.000 F 
ATOM     23  F   UNL     1      -2.776   9.394  16.810  0.00  0.00    +0.000 F 
ATOM     24  F   UNL     1      -3.655  10.802  18.207  0.00  0.00    +0.000 F 
ENDBRANCH   8  21
BRANCH   9  25
ATOM     25  C   UNL     1       2.011  13.491  20.156  0.00  0.00    +0.000 C 
BRANCH  25  26
ATOM     26  C   UNL     1       1.932  14.259  18.834  0.00  0.00    +0.000 C 
ATOM     27  O   UNL     1       1.182  15.192  18.592  0.00  0.00    +0.000 OA
BRANCH  26  28
ATOM     28  O   UNL     1       2.825  13.820  17.912  0.00  0.00    +0.000 OA
ATOM     29  H   UNL     1       2.439  13.368  17.138  0.00  0.00    +0.000 HD
ENDBRANCH  26  28
ENDBRANCH  25  26
ENDBRANCH   9  25
BRANCH  12  30
ATOM     30  O   UNL     1      -1.201  13.693  23.118  0.00  0.00    +0.000 OA
BRANCH  30  31
ATOM     31  C   UNL     1      -1.031  14.811  23.874  0.00  0.00    +0.000 C 
ATOM     32  C   UNL     1      -2.186  14.996  24.814  0.00  0.00    +0.000 C 
ATOM     33  O   UNL     1      -0.044  15.535  23.834  0.00  0.00    +0.000 OA
ENDBRANCH  30  31
ENDBRANCH  12  30
TORSDOF 8
ENDMDL
MODEL 3
REMARK VINA RESULT:      -6.6      6.991     10.249
REMARK  Name = 
REMARK  10 active torsions:
REMARK  status: ('A' for Active; 'I' for Inactive)
REMARK    1  A    between atoms: C_1  and  O_2
REMARK    2  A    between atoms: O_2  and  C_3
REMARK    3  A    between atoms: C_6  and  C_7
REMARK    4  A    between atoms: C_14  and  C_15
REMARK    5  A    between atoms: N_19  and  C_20
REMARK    6  A    between atoms: C_20  and  C_21
REMARK    7  A    between atoms: C_21  and  O_23
REMARK    8  A    between atoms: C_26  and  O_27
REMARK    9  A    between atoms: O_27  and  C_28
REMARK   10  A    between atoms: C_28  and  C_29
REMARK                            x       y       z     vdW  Elec       q    Type
REMARK                         _______ _______ _______ _____ _____    ______ ____
ROOT
ATOM      1  C   UNL     1      -2.135  13.829  20.839  0.00  0.00    +0.000 C 
ATOM      2  C   UNL     1      -1.879  13.073  19.449  0.00  0.00    +0.000 C 
ATOM      3  C   UNL     1      -1.033  11.813  19.190  0.00  0.00    +0.000 A 
ATOM      4  C   UNL     1       0.238  11.676  19.801  0.00  0.00    +0.000 A 
ATOM      5  C   UNL     1       1.116  10.619  19.532  0.00  0.00    +0.000 A 
ATOM      6  C   UNL     1       0.752   9.642  18.626  0.00  0.00    +0.000 A 
ATOM      7  C   UNL     1      -0.464   9.761  17.965  0.00  0.00    +0.000 A 
ATOM      8  C   UNL     1      -1.356  10.847  18.197  0.00  0.00    +0.000 A 
ATOM      9  N   UNL     1       0.553  12.510  20.874  0.00  0.00    +0.000 N 
ATOM     10  C   UNL     1      -0.353  12.437  21.906  0.00  0.00    +0.000 C 
ATOM     11  O   UNL     1      -0.623  11.380  22.480  0.00  0.00    +0.000 OA
ATOM     12  C   UNL     1      -1.175  13.684  22.072  0.00  0.00    +0.000 C 
ENDROOT
BRANCH   1  16
ATOM     13  C   UNL     1      -6.213  13.957  22.306  0.00  0.00    +0.000 A 
ATOM     14  C   UNL     1      -5.628  12.729  22.010  0.00  0.00    +0.000 A 
ATOM     15  C   UNL     1      -4.321  12.662  21.525  0.00  0.00    +0.000 A 
ATOM     16  C   UNL     1      -3.603  13.835  21.280  0.00  0.00    +0.000 A 
ATOM     17  C   UNL     1      -4.231  15.075  21.519  0.00  0.00    +0.000 A 
ATOM     18  C   UNL     1      -5.526  15.137  22.034  0.00  0.00    +0.000 A 
BRANCH  13  20
ATOM     19  C   UNL     1      -7.506  13.484  24.217  0.00  0.00    +0.000 C 
ATOM     20  O   UNL     1      -7.467  13.901  22.855  0.00  0.00    +0.000 OA
ENDBRANCH  13  20
ENDBRANCH   1  16
BRANCH   8  21
ATOM     21  C   UNL     1      -2.573  10.837  17.288  0.00  0.00    +0.000 C 
ATOM     22  F   UNL     1      -3.714  11.378  17.779  0.00  0.00    +0.000 F 
ATOM     23  F   UNL     1      -2.329  11.515  16.126  0.00  0.00    +0.000 F 
ATOM     24  F   UNL     1      -2.903   9.571  16.898  0.00  0.00    +0.000 F 
ENDBRANCH   8  21
BRANCH   9  25
ATOM     25  C   UNL     1       1.675  13.444  20.798  0.00  0.00    +0.000 C 
BRANCH  25  26
ATOM     26  C   UNL     1       1.762  14.306  19.536  0.00  0.00    +0.000 C 
ATOM     27  O   UNL     1       2.515  14.122  18.593  0.00  0.00    +0.000 OA
BRANCH  26  28
ATOM     28  O   UNL     1       0.869  15.329  19.530  0.00  0.00    +0.000 OA
ATOM     29  H   UNL     1       1.132  16.116  20.044  0.00  0.00    +0.000 HD
ENDBRANCH  26  28
ENDBRANCH  25  26
ENDBRANCH   9  25
BRANCH  12  30
ATOM     30  O   UNL     1      -1.892  13.574  23.324  0.00  0.00    +0.000 OA
BRANCH  30  31
ATOM     31  C   UNL     1      -1.657  14.560  24.231  0.00  0.00    +0.000 C 
ATOM     32  C   UNL     1      -2.899  14.868  25.014  0.00  0.00    +0.000 C 
ATOM     33  O   UNL     1      -0.568  15.086  24.420  0.00  0.00    +0.000 OA
ENDBRANCH  30  31
ENDBRANCH  12  30
TORSDOF 8
ENDMDL
MODEL 4
REMARK VINA RESULT:      -6.6      6.801      9.805
REMARK  Name = 
REMARK  10 active torsions:
REMARK  status: ('A' for Active; 'I' for Inactive)
REMARK    1  A    between atoms: C_1  and  O_2
REMARK    2  A    between atoms: O_2  and  C_3
REMARK    3  A    between atoms: C_6  and  C_7
REMARK    4  A    between atoms: C_14  and  C_15
REMARK    5  A    between atoms: N_19  and  C_20
REMARK    6  A    between atoms: C_20  and  C_21
REMARK    7  A    between atoms: C_21  and  O_23
REMARK    8  A    between atoms: C_26  and  O_27
REMARK    9  A    between atoms: O_27  and  C_28
REMARK   10  A    between atoms: C_28  and  C_29
REMARK                            x       y       z     vdW  Elec       q    Type
REMARK                         _______ _______ _______ _____ _____    ______ ____
ROOT
ATOM      1  C   UNL     1       1.679  13.617  20.611  0.00  0.00    +0.000 C 
ATOM      2  C   UNL     1       1.257  12.114  20.244  0.00  0.00    +0.000 C 
ATOM      3  C   UNL     1       0.052  11.637  19.414  0.00  0.00    +0.000 A 
ATOM      4  C   UNL     1      -1.222  12.227  19.613  0.00  0.00    +0.000 A 
ATOM      5  C   UNL     1      -2.388  11.777  18.982  0.00  0.00    +0.000 A 
ATOM      6  C   UNL     1      -2.327  10.704  18.116  0.00  0.00    +0.000 A 
ATOM      7  C   UNL     1      -1.109  10.063  17.928  0.00  0.00    +0.000 A 
ATOM      8  C   UNL     1       0.083  10.481  18.588  0.00  0.00    +0.000 A 
ATOM      9  N   UNL     1      -1.294  13.438  20.301  0.00  0.00    +0.000 N 
ATOM     10  C   UNL     1      -0.521  14.430  19.743  0.00  0.00    +0.000 C 
ATOM     11  O   UNL     1      -0.652  14.797  18.574  0.00  0.00    +0.000 OA
ATOM     12  C   UNL     1       0.663  14.813  20.586  0.00  0.00    +0.000 C 
ENDROOT
BRANCH   1  16
ATOM     13  C   UNL     1       5.477  15.040  19.078  0.00  0.00    +0.000 A 
ATOM     14  C   UNL     1       4.539  14.506  18.200  0.00  0.00    +0.000 A 
ATOM     15  C   UNL     1       3.314  14.030  18.670  0.00  0.00    +0.000 A 
ATOM     16  C   UNL     1       3.038  14.036  20.039  0.00  0.00    +0.000 A 
ATOM     17  C   UNL     1       4.024  14.517  20.925  0.00  0.00    +0.000 A 
ATOM     18  C   UNL     1       5.234  15.021  20.450  0.00  0.00    +0.000 A 
BRANCH  13  20
ATOM     19  C   UNL     1       7.414  14.601  17.813  0.00  0.00    +0.000 C 
ATOM     20  O   UNL     1       6.608  15.554  18.500  0.00  0.00    +0.000 OA
ENDBRANCH  13  20
ENDBRANCH   1  16
BRANCH   8  21
ATOM     21  C   UNL     1       1.272   9.572  18.324  0.00  0.00    +0.000 C 
ATOM     22  F   UNL     1       1.087   8.555  17.447  0.00  0.00    +0.000 F 
ATOM     23  F   UNL     1       2.335  10.277  17.832  0.00  0.00    +0.000 F 
ATOM     24  F   UNL     1       1.729   8.992  19.471  0.00  0.00    +0.000 F 
ENDBRANCH   8  21
BRANCH   9  25
ATOM     25  C   UNL     1      -2.031  13.547  21.559  0.00  0.00    +0.000 C 
BRANCH  25  26
ATOM     26  C   UNL     1      -1.688  12.520  22.642  0.00  0.00    +0.000 C 
ATOM     27  O   UNL     1      -0.572  12.282  23.075  0.00  0.00    +0.000 OA
BRANCH  26  28
ATOM     28  O   UNL     1      -2.781  11.881  23.131  0.00  0.00    +0.000 OA
ATOM     29  H   UNL     1      -2.609  11.008  23.533  0.00  0.00    +0.000 HD
ENDBRANCH  26  28
ENDBRANCH  25  26
ENDBRANCH   9  25
BRANCH  12  30
ATOM     30  O   UNL     1       1.234  16.016  20.020  0.00  0.00    +0.000 OA
BRANCH  30  31
ATOM     31  C   UNL     1       1.195  17.120  20.812  0.00  0.00    +0.000 C 
ATOM     32  C   UNL     1       2.480  17.890  20.713  0.00  0.00    +0.000 C 
ATOM     33  O   UNL     1       0.226  17.469  21.474  0.00  0.00    +0.000 OA
ENDBRANCH  30  31
ENDBRANCH  12  30
TORSDOF 8
ENDMDL
MODEL 5
REMARK VINA RESULT:      -6.6      7.052     10.267
REMARK  Name = 
REMARK  10 active torsions:
REMARK  status: ('A' for Active; 'I' for Inactive)
REMARK    1  A    between atoms: C_1  and  O_2
REMARK    2  A    between atoms: O_2  and  C_3
REMARK    3  A    between atoms: C_6  and  C_7
REMARK    4  A    between atoms: C_14  and  C_15
REMARK    5  A    between atoms: N_19  and  C_20
REMARK    6  A    between atoms: C_20  and  C_21
REMARK    7  A    between atoms: C_21  and  O_23
REMARK    8  A    between atoms: C_26  and  O_27
REMARK    9  A    between atoms: O_27  and  C_28
REMARK   10  A    between atoms: C_28  and  C_29
REMARK                            x       y       z     vdW  Elec       q    Type
REMARK                         _______ _______ _______ _____ _____    ______ ____
ROOT
ATOM      1  C   UNL     1      -2.019  14.054  20.740  0.00  0.00    +0.000 C 
ATOM      2  C   UNL     1      -1.819  13.233  19.377  0.00  0.00    +0.000 C 
ATOM      3  C   UNL     1      -0.923  12.007  19.125  0.00  0.00    +0.000 A 
ATOM      4  C   UNL     1       0.394  11.974  19.648  0.00  0.00    +0.000 A 
ATOM      5  C   UNL     1       1.309  10.951  19.372  0.00  0.00    +0.000 A 
ATOM      6  C   UNL     1       0.939   9.906  18.548  0.00  0.00    +0.000 A 
ATOM      7  C   UNL     1      -0.325   9.922  17.973  0.00  0.00    +0.000 A 
ATOM      8  C   UNL     1      -1.259  10.971  18.211  0.00  0.00    +0.000 A 
ATOM      9  N   UNL     1       0.735  12.884  20.649  0.00  0.00    +0.000 N 
ATOM     10  C   UNL     1      -0.091  12.822  21.747  0.00  0.00    +0.000 C 
ATOM     11  O   UNL     1      -0.259  11.787  22.395  0.00  0.00    +0.000 OA
ATOM     12  C   UNL     1      -0.969  14.032  21.905  0.00  0.00    +0.000 C 
ENDROOT
BRANCH   1  16
ATOM     13  C   UNL     1      -5.979  14.019  22.506  0.00  0.00    +0.000 A 
ATOM     14  C   UNL     1      -5.405  12.823  22.084  0.00  0.00    +0.000 A 
ATOM     15  C   UNL     1      -4.137  12.809  21.501  0.00  0.00    +0.000 A 
ATOM     16  C   UNL     1      -3.450  14.007  21.286  0.00  0.00    +0.000 A 
ATOM     17  C   UNL     1      -4.072  15.218  21.656  0.00  0.00    +0.000 A 
ATOM     18  C   UNL     1      -5.326  15.226  22.267  0.00  0.00    +0.000 A 
BRANCH  13  20
ATOM     19  C   UNL     1      -7.321  12.762  23.977  0.00  0.00    +0.000 C 
ATOM     20  O   UNL     1      -7.189  13.907  23.140  0.00  0.00    +0.000 OA
ENDBRANCH  13  20
ENDBRANCH   1  16
BRANCH   8  21
ATOM     21  C   UNL     1      -2.534  10.843  17.395  0.00  0.00    +0.000 C 
ATOM     22  F   UNL     1      -3.616  11.532  17.832  0.00  0.00    +0.000 F 
ATOM     23  F   UNL     1      -2.343  11.262  16.108  0.00  0.00    +0.000 F 
ATOM     24  F   UNL     1      -2.941   9.544  17.291  0.00  0.00    +0.000 F 
ENDBRANCH   8  21
BRANCH   9  25
ATOM     25  C   UNL     1       1.794  13.870  20.441  0.00  0.00    +0.000 C 
BRANCH  25  26
ATOM     26  C   UNL     1       2.756  14.096  21.610  0.00  0.00    +0.000 C 
ATOM     27  O   UNL     1       3.845  13.563  21.754  0.00  0.00    +0.000 OA
BRANCH  26  28
ATOM     28  O   UNL     1       2.296  15.002  22.508  0.00  0.00    +0.000 OA
ATOM     29  H   UNL     1       2.914  15.726  22.727  0.00  0.00    +0.000 HD
ENDBRANCH  26  28
ENDBRANCH  25  26
ENDBRANCH   9  25
BRANCH  12  30
ATOM     30  O   UNL     1      -1.589  13.956  23.211  0.00  0.00    +0.000 OA
BRANCH  30  31
ATOM     31  C   UNL     1      -1.217  14.915  24.100  0.00  0.00    +0.000 C 
ATOM     32  C   UNL     1      -2.292  15.134  25.124  0.00  0.00    +0.000 C 
ATOM     33  O   UNL     1      -0.132  15.483  24.099  0.00  0.00    +0.000 OA
ENDBRANCH  30  31
ENDBRANCH  12  30
TORSDOF 8
ENDMDL
MODEL 6
REMARK VINA RESULT:      -6.5      6.796      9.933
REMARK  Name = 
REMARK  10 active torsions:
REMARK  status: ('A' for Active; 'I' for Inactive)
REMARK    1  A    between atoms: C_1  and  O_2
REMARK    2  A    between atoms: O_2  and  C_3
REMARK    3  A    between atoms: C_6  and  C_7
REMARK    4  A    between atoms: C_14  and  C_15
REMARK    5  A    between atoms: N_19  and  C_20
REMARK    6  A    between atoms: C_20  and  C_21
REMARK    7  A    between atoms: C_21  and  O_23
REMARK    8  A    between atoms: C_26  and  O_27
REMARK    9  A    between atoms: O_27  and  C_28
REMARK   10  A    between atoms: C_28  and  C_29
REMARK                            x       y       z     vdW  Elec       q    Type
REMARK                         _______ _______ _______ _____ _____    ______ ____
ROOT
ATOM      1  C   UNL     1      -1.726  13.848  20.588  0.00  0.00    +0.000 C 
ATOM      2  C   UNL     1      -1.586  13.011  19.227  0.00  0.00    +0.000 C 
ATOM      3  C   UNL     1      -0.759  11.738  18.971  0.00  0.00    +0.000 A 
ATOM      4  C   UNL     1       0.560  11.637  19.480  0.00  0.00    +0.000 A 
ATOM      5  C   UNL     1       1.416  10.565  19.199  0.00  0.00    +0.000 A 
ATOM      6  C   UNL     1       0.981   9.537  18.386  0.00  0.00    +0.000 A 
ATOM      7  C   UNL     1      -0.287   9.617  17.825  0.00  0.00    +0.000 A 
ATOM      8  C   UNL     1      -1.160  10.716  18.068  0.00  0.00    +0.000 A 
ATOM      9  N   UNL     1       0.961  12.532  20.472  0.00  0.00    +0.000 N 
ATOM     10  C   UNL     1       0.146  12.520  21.580  0.00  0.00    +0.000 C 
ATOM     11  O   UNL     1      -0.070  11.498  22.235  0.00  0.00    +0.000 OA
ATOM     12  C   UNL     1      -0.665  13.775  21.741  0.00  0.00    +0.000 C 
ENDROOT
BRANCH   1  16
ATOM     13  C   UNL     1      -5.838  13.830  21.963  0.00  0.00    +0.000 A 
ATOM     14  C   UNL     1      -5.166  15.041  21.822  0.00  0.00    +0.000 A 
ATOM     15  C   UNL     1      -3.839  15.072  21.392  0.00  0.00    +0.000 A 
ATOM     16  C   UNL     1      -3.151  13.881  21.150  0.00  0.00    +0.000 A 
ATOM     17  C   UNL     1      -3.822  12.658  21.363  0.00  0.00    +0.000 A 
ATOM     18  C   UNL     1      -5.158  12.630  21.762  0.00  0.00    +0.000 A 
BRANCH  13  20
ATOM     19  C   UNL     1      -7.899  12.710  22.164  0.00  0.00    +0.000 C 
ATOM     20  O   UNL     1      -7.161  13.919  22.308  0.00  0.00    +0.000 OA
ENDBRANCH  13  20
ENDBRANCH   1  16
BRANCH   8  21
ATOM     21  C   UNL     1      -2.451  10.653  17.267  0.00  0.00    +0.000 C 
ATOM     22  F   UNL     1      -2.802   9.447  16.760  0.00  0.00    +0.000 F 
ATOM     23  F   UNL     1      -3.521  11.048  18.021  0.00  0.00    +0.000 F 
ATOM     24  F   UNL     1      -2.428  11.508  16.204  0.00  0.00    +0.000 F 
ENDBRANCH   8  21
BRANCH   9  25
ATOM     25  C   UNL     1       2.069  13.459  20.246  0.00  0.00    +0.000 C 
BRANCH  25  26
ATOM     26  C   UNL     1       2.048  14.240  18.929  0.00  0.00    +0.000 C 
ATOM     27  O   UNL     1       2.719  13.992  17.940  0.00  0.00    +0.000 OA
BRANCH  26  28
ATOM     28  O   UNL     1       1.160  15.266  18.935  0.00  0.00    +0.000 OA
ATOM     29  H   UNL     1       1.289  15.935  18.236  0.00  0.00    +0.000 HD
ENDBRANCH  26  28
ENDBRANCH  25  26
ENDBRANCH   9  25
BRANCH  12  30
ATOM     30  O   UNL     1      -1.272  13.739  23.054  0.00  0.00    +0.000 OA
BRANCH  30  31
ATOM     31  C   UNL     1      -1.062  14.833  23.835  0.00  0.00    +0.000 C 
ATOM     32  C   UNL     1      -2.226  15.058  24.756  0.00  0.00    +0.000 C 
ATOM     33  O   UNL     1      -0.041  15.509  23.827  0.00  0.00    +0.000 OA
ENDBRANCH  30  31
ENDBRANCH  12  30
TORSDOF 8
ENDMDL
MODEL 7
REMARK VINA RESULT:      -6.5      6.859      9.895
REMARK  Name = 
REMARK  10 active torsions:
REMARK  status: ('A' for Active; 'I' for Inactive)
REMARK    1  A    between atoms: C_1  and  O_2
REMARK    2  A    between atoms: O_2  and  C_3
REMARK    3  A    between atoms: C_6  and  C_7
REMARK    4  A    between atoms: C_14  and  C_15
REMARK    5  A    between atoms: N_19  and  C_20
REMARK    6  A    between atoms: C_20  and  C_21
REMARK    7  A    between atoms: C_21  and  O_23
REMARK    8  A    between atoms: C_26  and  O_27
REMARK    9  A    between atoms: O_27  and  C_28
REMARK   10  A    between atoms: C_28  and  C_29
REMARK                            x       y       z     vdW  Elec       q    Type
REMARK                         _______ _______ _______ _____ _____    ______ ____
ROOT
ATOM      1  C   UNL     1       1.838  13.703  20.577  0.00  0.00    +0.000 C 
ATOM      2  C   UNL     1       1.402  12.203  20.214  0.00  0.00    +0.000 C 
ATOM      3  C   UNL     1       0.155  11.733  19.444  0.00  0.00    +0.000 A 
ATOM      4  C   UNL     1      -1.108  12.316  19.718  0.00  0.00    +0.000 A 
ATOM      5  C   UNL     1      -2.305  11.870  19.145  0.00  0.00    +0.000 A 
ATOM      6  C   UNL     1      -2.288  10.808  18.264  0.00  0.00    +0.000 A 
ATOM      7  C   UNL     1      -1.080  10.173  18.003  0.00  0.00    +0.000 A 
ATOM      8  C   UNL     1       0.144  10.587  18.602  0.00  0.00    +0.000 A 
ATOM      9  N   UNL     1      -1.146  13.518  20.425  0.00  0.00    +0.000 N 
ATOM     10  C   UNL     1      -0.406  14.519  19.838  0.00  0.00    +0.000 C 
ATOM     11  O   UNL     1      -0.602  14.900  18.683  0.00  0.00    +0.000 OA
ATOM     12  C   UNL     1       0.820  14.896  20.622  0.00  0.00    +0.000 C 
ENDROOT
BRANCH   1  16
ATOM     13  C   UNL     1       5.539  15.160  18.850  0.00  0.00    +0.000 A 
ATOM     14  C   UNL     1       4.581  14.575  18.027  0.00  0.00    +0.000 A 
ATOM     15  C   UNL     1       3.387  14.087  18.560  0.00  0.00    +0.000 A 
ATOM     16  C   UNL     1       3.164  14.133  19.939  0.00  0.00    +0.000 A 
ATOM     17  C   UNL     1       4.172  14.666  20.769  0.00  0.00    +0.000 A 
ATOM     18  C   UNL     1       5.350  15.181  20.230  0.00  0.00    +0.000 A 
BRANCH  13  20
ATOM     19  C   UNL     1       7.144  16.882  18.782  0.00  0.00    +0.000 C 
ATOM     20  O   UNL     1       6.634  15.680  18.211  0.00  0.00    +0.000 OA
ENDBRANCH  13  20
ENDBRANCH   1  16
BRANCH   8  21
ATOM     21  C   UNL     1       1.320   9.685  18.264  0.00  0.00    +0.000 C 
ATOM     22  F   UNL     1       2.430  10.281  17.765  0.00  0.00    +0.000 F 
ATOM     23  F   UNL     1       1.749   8.998  19.365  0.00  0.00    +0.000 F 
ATOM     24  F   UNL     1       0.977   8.726  17.356  0.00  0.00    +0.000 F 
ENDBRANCH   8  21
BRANCH   9  25
ATOM     25  C   UNL     1      -1.815  13.609  21.721  0.00  0.00    +0.000 C 
BRANCH  25  26
ATOM     26  C   UNL     1      -1.045  13.061  22.926  0.00  0.00    +0.000 C 
ATOM     27  O   UNL     1      -0.700  11.901  23.088  0.00  0.00    +0.000 OA
BRANCH  26  28
ATOM     28  O   UNL     1      -0.733  14.018  23.836  0.00  0.00    +0.000 OA
ATOM     29  H   UNL     1       0.219  14.118  24.029  0.00  0.00    +0.000 HD
ENDBRANCH  26  28
ENDBRANCH  25  26
ENDBRANCH   9  25
BRANCH  12  30
ATOM     30  O   UNL     1       1.357  16.107  20.041  0.00  0.00    +0.000 OA
BRANCH  30  31
ATOM     31  C   UNL     1       1.290  17.219  20.822  0.00  0.00    +0.000 C 
ATOM     32  C   UNL     1       0.457  18.280  20.165  0.00  0.00    +0.000 C 
ATOM     33  O   UNL     1       1.795  17.320  21.933  0.00  0.00    +0.000 OA
ENDBRANCH  30  31
ENDBRANCH  12  30
TORSDOF 8
ENDMDL
MODEL 8
REMARK VINA RESULT:      -6.4      7.023     12.767
REMARK  Name = 
REMARK  10 active torsions:
REMARK  status: ('A' for Active; 'I' for Inactive)
REMARK    1  A    between atoms: C_1  and  O_2
REMARK    2  A    between atoms: O_2  and  C_3
REMARK    3  A    between atoms: C_6  and  C_7
REMARK    4  A    between atoms: C_14  and  C_15
REMARK    5  A    between atoms: N_19  and  C_20
REMARK    6  A    between atoms: C_20  and  C_21
REMARK    7  A    between atoms: C_21  and  O_23
REMARK    8  A    between atoms: C_26  and  O_27
REMARK    9  A    between atoms: O_27  and  C_28
REMARK   10  A    between atoms: C_28  and  C_29
REMARK                            x       y       z     vdW  Elec       q    Type
REMARK                         _______ _______ _______ _____ _____    ______ ____
ROOT
ATOM      1  C   UNL     1      -3.375  13.084  22.417  0.00  0.00    +0.000 C 
ATOM      2  C   UNL     1      -4.661  12.746  21.521  0.00  0.00    +0.000 C 
ATOM      3  C   UNL     1      -5.330  13.620  20.445  0.00  0.00    +0.000 A 
ATOM      4  C   UNL     1      -5.528  15.003  20.679  0.00  0.00    +0.000 A 
ATOM      5  C   UNL     1      -6.226  15.843  19.803  0.00  0.00    +0.000 A 
ATOM      6  C   UNL     1      -6.762  15.325  18.640  0.00  0.00    +0.000 A 
ATOM      7  C   UNL     1      -6.635  13.964  18.392  0.00  0.00    +0.000 A 
ATOM      8  C   UNL     1      -5.961  13.085  19.288  0.00  0.00    +0.000 A 
ATOM      9  N   UNL     1      -4.824  15.609  21.720  0.00  0.00    +0.000 N 
ATOM     10  C   UNL     1      -3.461  15.452  21.621  0.00  0.00    +0.000 C 
ATOM     11  O   UNL     1      -2.819  15.821  20.635  0.00  0.00    +0.000 OA
ATOM     12  C   UNL     1      -2.883  14.551  22.676  0.00  0.00    +0.000 C 
ENDROOT
BRANCH   1  16
ATOM     13  C   UNL     1      -0.177  10.272  21.597  0.00  0.00    +0.000 A 
ATOM     14  C   UNL     1      -0.624  10.442  22.904  0.00  0.00    +0.000 A 
ATOM     15  C   UNL     1      -1.643  11.349  23.196  0.00  0.00    +0.000 A 
ATOM     16  C   UNL     1      -2.191  12.139  22.181  0.00  0.00    +0.000 A 
ATOM     17  C   UNL     1      -1.682  12.006  20.873  0.00  0.00    +0.000 A 
ATOM     18  C   UNL     1      -0.686  11.076  20.579  0.00  0.00    +0.000 A 
BRANCH  13  20
ATOM     19  C   UNL     1       1.125   9.060  20.054  0.00  0.00    +0.000 C 
ATOM     20  O   UNL     1       0.767   9.296  21.413  0.00  0.00    +0.000 OA
ENDBRANCH  13  20
ENDBRANCH   1  16
BRANCH   8  21
ATOM     21  C   UNL     1      -6.038  11.624  18.876  0.00  0.00    +0.000 C 
ATOM     22  F   UNL     1      -6.732  11.339  17.748  0.00  0.00    +0.000 F 
ATOM     23  F   UNL     1      -4.791  11.102  18.669  0.00  0.00    +0.000 F 
ATOM     24  F   UNL     1      -6.590  10.851  19.855  0.00  0.00    +0.000 F 
ENDBRANCH   8  21
BRANCH   9  25
ATOM     25  C   UNL     1      -5.525  16.223  22.846  0.00  0.00    +0.000 C 
BRANCH  25  26
ATOM     26  C   UNL     1      -6.582  15.362  23.543  0.00  0.00    +0.000 C 
ATOM     27  O   UNL     1      -7.790  15.456  23.399  0.00  0.00    +0.000 OA
BRANCH  26  28
ATOM     28  O   UNL     1      -6.045  14.417  24.356  0.00  0.00    +0.000 OA
ATOM     29  H   UNL     1      -6.613  13.643  24.529  0.00  0.00    +0.000 HD
ENDBRANCH  26  28
ENDBRANCH  25  26
ENDBRANCH   9  25
BRANCH  12  30
ATOM     30  O   UNL     1      -1.442  14.673  22.616  0.00  0.00    +0.000 OA
BRANCH  30  31
ATOM     31  C   UNL     1      -0.853  15.272  23.685  0.00  0.00    +0.000 C 
ATOM     32  C   UNL     1      -1.714  15.140  24.908  0.00  0.00    +0.000 C 
ATOM     33  O   UNL     1       0.252  15.799  23.667  0.00  0.00    +0.000 OA
ENDBRANCH  30  31
ENDBRANCH  12  30
TORSDOF 8
ENDMDL
MODEL 9
REMARK VINA RESULT:      -6.4      6.716      9.805
REMARK  Name = 
REMARK  10 active torsions:
REMARK  status: ('A' for Active; 'I' for Inactive)
REMARK    1  A    between atoms: C_1  and  O_2
REMARK    2  A    between atoms: O_2  and  C_3
REMARK    3  A    between atoms: C_6  and  C_7
REMARK    4  A    between atoms: C_14  and  C_15
REMARK    5  A    between atoms: N_19  and  C_20
REMARK    6  A    between atoms: C_20  and  C_21
REMARK    7  A    between atoms: C_21  and  O_23
REMARK    8  A    between atoms: C_26  and  O_27
REMARK    9  A    between atoms: O_27  and  C_28
REMARK   10  A    between atoms: C_28  and  C_29
REMARK                            x       y       z     vdW  Elec       q    Type
REMARK                         _______ _______ _______ _____ _____    ______ ____
ROOT
ATOM      1  C   UNL     1       1.667  13.605  20.716  0.00  0.00    +0.000 C 
ATOM      2  C   UNL     1       1.332  12.097  20.290  0.00  0.00    +0.000 C 
ATOM      3  C   UNL     1       0.137  11.580  19.469  0.00  0.00    +0.000 A 
ATOM      4  C   UNL     1      -1.166  12.077  19.727  0.00  0.00    +0.000 A 
ATOM      5  C   UNL     1      -2.318  11.581  19.105  0.00  0.00    +0.000 A 
ATOM      6  C   UNL     1      -2.213  10.554  18.189  0.00  0.00    +0.000 A 
ATOM      7  C   UNL     1      -0.962  10.002  17.941  0.00  0.00    +0.000 A 
ATOM      8  C   UNL     1       0.218  10.466  18.590  0.00  0.00    +0.000 A 
ATOM      9  N   UNL     1      -1.295  13.249  20.472  0.00  0.00    +0.000 N 
ATOM     10  C   UNL     1      -0.602  14.312  19.941  0.00  0.00    +0.000 C 
ATOM     11  O   UNL     1      -0.789  14.722  18.794  0.00  0.00    +0.000 OA
ATOM     12  C   UNL     1       0.578  14.733  20.772  0.00  0.00    +0.000 C 
ENDROOT
BRANCH   1  16
ATOM     13  C   UNL     1       5.425  14.874  18.962  0.00  0.00    +0.000 A 
ATOM     14  C   UNL     1       5.255  14.939  20.342  0.00  0.00    +0.000 A 
ATOM     15  C   UNL     1       4.051  14.547  20.930  0.00  0.00    +0.000 A 
ATOM     16  C   UNL     1       2.981  14.136  20.131  0.00  0.00    +0.000 A 
ATOM     17  C   UNL     1       3.143  14.141  18.730  0.00  0.00    +0.000 A 
ATOM     18  C   UNL     1       4.358  14.502  18.147  0.00  0.00    +0.000 A 
BRANCH  13  20
ATOM     19  C   UNL     1       7.722  15.041  19.451  0.00  0.00    +0.000 C 
ATOM     20  O   UNL     1       6.673  15.202  18.501  0.00  0.00    +0.000 OA
ENDBRANCH  13  20
ENDBRANCH   1  16
BRANCH   8  21
ATOM     21  C   UNL     1       1.455   9.649  18.255  0.00  0.00    +0.000 C 
ATOM     22  F   UNL     1       2.541  10.328  17.813  0.00  0.00    +0.000 F 
ATOM     23  F   UNL     1       1.893   8.946  19.342  0.00  0.00    +0.000 F 
ATOM     24  F   UNL     1       1.196   8.706  17.302  0.00  0.00    +0.000 F 
ENDBRANCH   8  21
BRANCH   9  25
ATOM     25  C   UNL     1      -2.002  13.254  21.751  0.00  0.00    +0.000 C 
BRANCH  25  26
ATOM     26  C   UNL     1      -1.570  12.200  22.774  0.00  0.00    +0.000 C 
ATOM     27  O   UNL     1      -0.420  11.915  23.066  0.00  0.00    +0.000 OA
BRANCH  26  28
ATOM     28  O   UNL     1      -2.619  11.592  23.385  0.00  0.00    +0.000 OA
ATOM     29  H   UNL     1      -3.088  12.135  24.048  0.00  0.00    +0.000 HD
ENDBRANCH  26  28
ENDBRANCH  25  26
ENDBRANCH   9  25
BRANCH  12  30
ATOM     30  O   UNL     1       1.056  15.995  20.248  0.00  0.00    +0.000 OA
BRANCH  30  31
ATOM     31  C   UNL     1       0.778  17.092  21.001  0.00  0.00    +0.000 C 
ATOM     32  C   UNL     1       1.457  17.004  22.337  0.00  0.00    +0.000 C 
ATOM     33  O   UNL     1       0.112  18.047  20.622  0.00  0.00    +0.000 OA
ENDBRANCH  30  31
ENDBRANCH  12  30
TORSDOF 8
ENDMDL
