MODEL 1
REMARK VINA RESULT:      -8.6      0.000      0.000
REMARK  Name = 
REMARK  10 active torsions:
REMARK  status: ('A' for Active; 'I' for Inactive)
REMARK    1  A    between atoms: C_1  and  C_2
REMARK    2  A    between atoms: C_5  and  C_6
REMARK    3  A    between atoms: N_8  and  C_9
REMARK    4  A    between atoms: C_9  and  C_10
REMARK    5  A    between atoms: C_9  and  C_18
REMARK    6  A    between atoms: C_10  and  C_11
REMARK    7  A    between atoms: C_11  and  C_12
REMARK    8  A    between atoms: C_22  and  N_23
REMARK    9  A    between atoms: C_24  and  C_26
REMARK   10  A    between atoms: C_28  and  C_29
REMARK                            x       y       z     vdW  Elec       q    Type
REMARK                         _______ _______ _______ _____ _____    ______ ____
ROOT
ATOM      1  C   UNL     1       0.176  12.424  18.166  0.00  0.00    +0.000 C 
ATOM      2  C   UNL     1       0.743  11.105  18.616  0.00  0.00    +0.000 A 
ATOM      3  C   UNL     1       1.836  10.587  17.895  0.00  0.00    +0.000 A 
ATOM      4  C   UNL     1       2.381   9.342  18.207  0.00  0.00    +0.000 A 
ATOM      5  C   UNL     1       1.831   8.569  19.228  0.00  0.00    +0.000 A 
ATOM      6  C   UNL     1       0.753   9.086  19.956  0.00  0.00    +0.000 A 
ATOM      7  C   UNL     1       0.220  10.362  19.694  0.00  0.00    +0.000 A 
ENDROOT
BRANCH   5   8
ATOM      8  C   UNL     1       2.387   7.200  19.448  0.00  0.00    +0.000 C 
ATOM      9  O   UNL     1       2.003   6.538  20.409  0.00  0.00    +0.000 OA
ATOM     10  N   UNL     1       3.336   6.721  18.567  0.00  0.00    +0.000 N 
ATOM     11  H   UNL     1       3.594   7.213  17.724  0.00  0.00    +0.000 HD
BRANCH  10  12
ATOM     12  C   UNL     1       3.953   5.418  18.772  0.00  0.00    +0.000 C 
BRANCH  12  13
ATOM     13  C   UNL     1       5.481   5.613  18.776  0.00  0.00    +0.000 C 
ATOM     14  N   UNL     1       5.980   6.383  17.761  0.00  0.00    +0.000 N 
ATOM     15  O   UNL     1       6.226   5.143  19.632  0.00  0.00    +0.000 OA
ATOM     16  H   UNL     1       5.405   6.758  17.019  0.00  0.00    +0.000 HD
ATOM     17  H   UNL     1       6.980   6.537  17.727  0.00  0.00    +0.000 HD
ENDBRANCH  12  13
BRANCH  12  18
ATOM     18  C   UNL     1       3.531   4.447  17.662  0.00  0.00    +0.000 C 
BRANCH  18  19
ATOM     19  C   UNL     1       2.074   4.003  17.815  0.00  0.00    +0.000 C 
BRANCH  19  20
ATOM     20  C   UNL     1       1.891   2.521  18.199  0.00  0.00    +0.000 C 
ATOM     21  C   UNL     1       3.097   1.911  18.932  0.00  0.00    +0.000 C 
ATOM     22  C   UNL     1       3.311   2.528  20.313  0.00  0.00    +0.000 C 
ATOM     23  C   UNL     1       2.059   2.404  21.176  0.00  0.00    +0.000 C 
ATOM     24  C   UNL     1       0.809   2.940  20.480  0.00  0.00    +0.000 C 
ATOM     25  C   UNL     1       0.634   2.359  19.076  0.00  0.00    +0.000 C 
ENDBRANCH  19  20
ENDBRANCH  18  19
ENDBRANCH  12  18
ENDBRANCH  10  12
ENDBRANCH   5   8
BRANCH   7  26
ATOM     26  N   UNL     1      -0.843  10.888  20.482  0.00  0.00    +0.000 N 
ATOM     27  C   UNL     1      -0.687  11.756  21.554  0.00  0.00    +0.000 C 
ATOM     28  O   UNL     1       0.381  12.249  21.901  0.00  0.00    +0.000 OA
ATOM     29  H   UNL     1      -1.786  10.700  20.176  0.00  0.00    +0.000 HD
BRANCH  27  30
ATOM     30  C   UNL     1      -1.879  12.099  22.289  0.00  0.00    +0.000 A 
ATOM     31  C   UNL     1      -2.927  12.983  22.138  0.00  0.00    +0.000 A 
ATOM     32  C   UNL     1      -3.807  12.742  23.239  0.00  0.00    +0.000 A 
ATOM     33  N   UNL     1      -3.308  11.782  24.032  0.00  0.00    +0.000 NA
ATOM     34  N   UNL     1      -2.161  11.427  23.449  0.00  0.00    +0.000 N 
ATOM     35  H   UNL     1      -1.601  10.690  23.870  0.00  0.00    +0.000 HD
BRANCH  32  36
ATOM     36  C   UNL     1      -5.102  13.358  23.537  0.00  0.00    +0.000 A 
ATOM     37  C   UNL     1      -6.194  12.551  23.899  0.00  0.00    +0.000 A 
ATOM     38  C   UNL     1      -7.445  13.112  24.159  0.00  0.00    +0.000 A 
ATOM     39  C   UNL     1      -7.618  14.491  24.069  0.00  0.00    +0.000 A 
ATOM     40  C   UNL     1      -6.539  15.306  23.728  0.00  0.00    +0.000 A 
ATOM     41  C   UNL     1      -5.286  14.744  23.463  0.00  0.00    +0.000 A 
ENDBRANCH  32  36
ENDBRANCH  27  30
ENDBRANCH   7  26
TORSDOF 9
ENDMDL
MODEL 2
REMARK VINA RESULT:      -8.2      3.058     11.382
REMARK  Name = 
REMARK  10 active torsions:
REMARK  status: ('A' for Active; 'I' for Inactive)
REMARK    1  A    between atoms: C_1  and  C_2
REMARK    2  A    between atoms: C_5  and  C_6
REMARK    3  A    between atoms: N_8  and  C_9
REMARK    4  A    between atoms: C_9  and  C_10
REMARK    5  A    between atoms: C_9  and  C_18
REMARK    6  A    between atoms: C_10  and  C_11
REMARK    7  A    between atoms: C_11  and  C_12
REMARK    8  A    between atoms: C_22  and  N_23
REMARK    9  A    between atoms: C_24  and  C_26
REMARK   10  A    between atoms: C_28  and  C_29
REMARK                            x       y       z     vdW  Elec       q    Type
REMARK                         _______ _______ _______ _____ _____    ______ ____
ROOT
ATOM      1  C   UNL     1       2.118  12.306  18.729  0.00  0.00    +0.000 C 
ATOM      2  C   UNL     1       0.641  12.037  18.615  0.00  0.00    +0.000 A 
ATOM      3  C   UNL     1      -0.231  13.138  18.723  0.00  0.00    +0.000 A 
ATOM      4  C   UNL     1      -1.614  12.967  18.692  0.00  0.00    +0.000 A 
ATOM      5  C   UNL     1      -2.163  11.692  18.580  0.00  0.00    +0.000 A 
ATOM      6  C   UNL     1      -1.301  10.596  18.458  0.00  0.00    +0.000 A 
ATOM      7  C   UNL     1       0.099  10.749  18.435  0.00  0.00    +0.000 A 
ENDROOT
BRANCH   5   8
ATOM      8  C   UNL     1      -3.650  11.560  18.657  0.00  0.00    +0.000 C 
ATOM      9  O   UNL     1      -4.191  10.549  18.216  0.00  0.00    +0.000 OA
ATOM     10  N   UNL     1      -4.379  12.592  19.213  0.00  0.00    +0.000 N 
ATOM     11  H   UNL     1      -3.945  13.386  19.660  0.00  0.00    +0.000 HD
BRANCH  10  12
ATOM     12  C   UNL     1      -5.834  12.539  19.256  0.00  0.00    +0.000 C 
BRANCH  12  13
ATOM     13  C   UNL     1      -6.370  13.162  17.954  0.00  0.00    +0.000 C 
ATOM     14  N   UNL     1      -6.563  12.290  16.918  0.00  0.00    +0.000 N 
ATOM     15  O   UNL     1      -6.641  14.354  17.831  0.00  0.00    +0.000 OA
ATOM     16  H   UNL     1      -6.320  11.310  16.969  0.00  0.00    +0.000 HD
ATOM     17  H   UNL     1      -6.915  12.659  16.044  0.00  0.00    +0.000 HD
ENDBRANCH  12  13
BRANCH  12  18
ATOM     18  C   UNL     1      -6.358  13.299  20.481  0.00  0.00    +0.000 C 
BRANCH  18  19
ATOM     19  C   UNL     1      -5.219  13.849  21.343  0.00  0.00    +0.000 C 
BRANCH  19  20
ATOM     20  C   UNL     1      -4.860  12.979  22.565  0.00  0.00    +0.000 C 
ATOM     21  C   UNL     1      -3.397  12.509  22.589  0.00  0.00    +0.000 C 
ATOM     22  C   UNL     1      -2.417  13.665  22.779  0.00  0.00    +0.000 C 
ATOM     23  C   UNL     1      -2.732  14.457  24.045  0.00  0.00    +0.000 C 
ATOM     24  C   UNL     1      -4.191  14.905  24.111  0.00  0.00    +0.000 C 
ATOM     25  C   UNL     1      -5.164  13.751  23.864  0.00  0.00    +0.000 C 
ENDBRANCH  19  20
ENDBRANCH  18  19
ENDBRANCH  12  18
ENDBRANCH  10  12
ENDBRANCH   5   8
BRANCH   7  26
ATOM     26  N   UNL     1       0.955   9.625  18.259  0.00  0.00    +0.000 N 
ATOM     27  C   UNL     1       1.415   8.805  19.280  0.00  0.00    +0.000 C 
ATOM     28  O   UNL     1       1.069   8.894  20.453  0.00  0.00    +0.000 OA
ATOM     29  H   UNL     1       1.159   9.340  17.312  0.00  0.00    +0.000 HD
BRANCH  27  30
ATOM     30  C   UNL     1       2.355   7.776  18.911  0.00  0.00    +0.000 A 
ATOM     31  C   UNL     1       3.170   7.507  17.830  0.00  0.00    +0.000 A 
ATOM     32  C   UNL     1       3.892   6.321  18.169  0.00  0.00    +0.000 A 
ATOM     33  N   UNL     1       3.518   5.876  19.377  0.00  0.00    +0.000 NA
ATOM     34  N   UNL     1       2.599   6.752  19.788  0.00  0.00    +0.000 N 
ATOM     35  H   UNL     1       2.172   6.628  20.703  0.00  0.00    +0.000 HD
BRANCH  32  36
ATOM     36  C   UNL     1       4.935   5.628  17.409  0.00  0.00    +0.000 A 
ATOM     37  C   UNL     1       4.597   4.535  16.593  0.00  0.00    +0.000 A 
ATOM     38  C   UNL     1       5.577   3.840  15.882  0.00  0.00    +0.000 A 
ATOM     39  C   UNL     1       6.909   4.237  15.971  0.00  0.00    +0.000 A 
ATOM     40  C   UNL     1       7.257   5.330  16.763  0.00  0.00    +0.000 A 
ATOM     41  C   UNL     1       6.277   6.024  17.479  0.00  0.00    +0.000 A 
ENDBRANCH  32  36
ENDBRANCH  27  30
ENDBRANCH   7  26
TORSDOF 9
ENDMDL
MODEL 3
REMARK VINA RESULT:      -8.2      4.911      7.068
REMARK  Name = 
REMARK  10 active torsions:
REMARK  status: ('A' for Active; 'I' for Inactive)
REMARK    1  A    between atoms: C_1  and  C_2
REMARK    2  A    between atoms: C_5  and  C_6
REMARK    3  A    between atoms: N_8  and  C_9
REMARK    4  A    between atoms: C_9  and  C_10
REMARK    5  A    between atoms: C_9  and  C_18
REMARK    6  A    between atoms: C_10  and  C_11
REMARK    7  A    between atoms: C_11  and  C_12
REMARK    8  A    between atoms: C_22  and  N_23
REMARK    9  A    between atoms: C_24  and  C_26
REMARK   10  A    between atoms: C_28  and  C_29
REMARK                            x       y       z     vdW  Elec       q    Type
REMARK                         _______ _______ _______ _____ _____    ______ ____
ROOT
ATOM      1  C   UNL     1       0.643   7.459  21.540  0.00  0.00    +0.000 C 
ATOM      2  C   UNL     1       1.465   6.792  20.470  0.00  0.00    +0.000 A 
ATOM      3  C   UNL     1       1.563   5.388  20.506  0.00  0.00    +0.000 A 
ATOM      4  C   UNL     1       2.355   4.697  19.590  0.00  0.00    +0.000 A 
ATOM      5  C   UNL     1       3.092   5.392  18.632  0.00  0.00    +0.000 A 
ATOM      6  C   UNL     1       2.987   6.786  18.584  0.00  0.00    +0.000 A 
ATOM      7  C   UNL     1       2.153   7.502  19.465  0.00  0.00    +0.000 A 
ENDROOT
BRANCH   5   8
ATOM      8  C   UNL     1       4.004   4.607  17.745  0.00  0.00    +0.000 C 
ATOM      9  O   UNL     1       3.963   3.380  17.769  0.00  0.00    +0.000 OA
ATOM     10  N   UNL     1       4.884   5.291  16.930  0.00  0.00    +0.000 N 
ATOM     11  H   UNL     1       4.868   6.295  16.832  0.00  0.00    +0.000 HD
BRANCH  10  12
ATOM     12  C   UNL     1       5.836   4.573  16.093  0.00  0.00    +0.000 C 
BRANCH  12  13
ATOM     13  C   UNL     1       7.255   4.982  16.530  0.00  0.00    +0.000 C 
ATOM     14  N   UNL     1       7.546   6.314  16.419  0.00  0.00    +0.000 N 
ATOM     15  O   UNL     1       8.083   4.193  16.977  0.00  0.00    +0.000 OA
ATOM     16  H   UNL     1       6.903   6.988  16.024  0.00  0.00    +0.000 HD
ATOM     17  H   UNL     1       8.468   6.625  16.696  0.00  0.00    +0.000 HD
ENDBRANCH  12  13
BRANCH  12  18
ATOM     18  C   UNL     1       5.604   4.909  14.614  0.00  0.00    +0.000 C 
BRANCH  18  19
ATOM     19  C   UNL     1       5.702   3.668  13.724  0.00  0.00    +0.000 C 
BRANCH  19  20
ATOM     20  C   UNL     1       5.672   3.959  12.210  0.00  0.00    +0.000 C 
ATOM     21  C   UNL     1       7.062   4.022  11.557  0.00  0.00    +0.000 C 
ATOM     22  C   UNL     1       7.769   2.668  11.562  0.00  0.00    +0.000 C 
ATOM     23  C   UNL     1       6.920   1.597  10.881  0.00  0.00    +0.000 C 
ATOM     24  C   UNL     1       5.503   1.522  11.445  0.00  0.00    +0.000 C 
ATOM     25  C   UNL     1       4.823   2.893  11.489  0.00  0.00    +0.000 C 
ENDBRANCH  19  20
ENDBRANCH  18  19
ENDBRANCH  12  18
ENDBRANCH  10  12
ENDBRANCH   5   8
BRANCH   7  26
ATOM     26  N   UNL     1       2.022   8.916  19.363  0.00  0.00    +0.000 N 
ATOM     27  C   UNL     1       1.190   9.578  18.471  0.00  0.00    +0.000 C 
ATOM     28  O   UNL     1       0.396   9.024  17.719  0.00  0.00    +0.000 OA
ATOM     29  H   UNL     1       2.490   9.477  20.060  0.00  0.00    +0.000 HD
BRANCH  27  30
ATOM     30  C   UNL     1       1.272  11.017  18.454  0.00  0.00    +0.000 A 
ATOM     31  C   UNL     1       2.271  11.963  18.566  0.00  0.00    +0.000 A 
ATOM     32  C   UNL     1       1.631  13.230  18.398  0.00  0.00    +0.000 A 
ATOM     33  N   UNL     1       0.312  13.067  18.220  0.00  0.00    +0.000 NA
ATOM     34  N   UNL     1       0.127  11.746  18.268  0.00  0.00    +0.000 N 
ATOM     35  H   UNL     1      -0.811  11.374  18.142  0.00  0.00    +0.000 HD
BRANCH  32  36
ATOM     36  C   UNL     1       2.229  14.567  18.364  0.00  0.00    +0.000 A 
ATOM     37  C   UNL     1       3.586  14.718  18.031  0.00  0.00    +0.000 A 
ATOM     38  C   UNL     1       4.186  15.978  18.021  0.00  0.00    +0.000 A 
ATOM     39  C   UNL     1       3.433  17.106  18.336  0.00  0.00    +0.000 A 
ATOM     40  C   UNL     1       2.082  16.974  18.652  0.00  0.00    +0.000 A 
ATOM     41  C   UNL     1       1.480  15.711  18.667  0.00  0.00    +0.000 A 
ENDBRANCH  32  36
ENDBRANCH  27  30
ENDBRANCH   7  26
TORSDOF 9
ENDMDL
MODEL 4
REMARK VINA RESULT:      -8.1      4.497      6.512
REMARK  Name = 
REMARK  10 active torsions:
REMARK  status: ('A' for Active; 'I' for Inactive)
REMARK    1  A    between atoms: C_1  and  C_2
REMARK    2  A    between atoms: C_5  and  C_6
REMARK    3  A    between atoms: N_8  and  C_9
REMARK    4  A    between atoms: C_9  and  C_10
REMARK    5  A    between atoms: C_9  and  C_18
REMARK    6  A    between atoms: C_10  and  C_11
REMARK    7  A    between atoms: C_11  and  C_12
REMARK    8  A    between atoms: C_22  and  N_23
REMARK    9  A    between atoms: C_24  and  C_26
REMARK   10  A    between atoms: C_28  and  C_29
REMARK                            x       y       z     vdW  Elec       q    Type
REMARK                         _______ _______ _______ _____ _____    ______ ____
ROOT
ATOM      1  C   UNL     1       0.452   7.316  21.501  0.00  0.00    +0.000 C 
ATOM      2  C   UNL     1       1.445   6.733  20.532  0.00  0.00    +0.000 A 
ATOM      3  C   UNL     1       1.650   5.340  20.569  0.00  0.00    +0.000 A 
ATOM      4  C   UNL     1       2.597   4.729  19.748  0.00  0.00    +0.000 A 
ATOM      5  C   UNL     1       3.384   5.495  18.890  0.00  0.00    +0.000 A 
ATOM      6  C   UNL     1       3.175   6.878  18.841  0.00  0.00    +0.000 A 
ATOM      7  C   UNL     1       2.188   7.511  19.621  0.00  0.00    +0.000 A 
ENDROOT
BRANCH   5   8
ATOM      8  C   UNL     1       4.454   4.800  18.112  0.00  0.00    +0.000 C 
ATOM      9  O   UNL     1       5.092   3.893  18.639  0.00  0.00    +0.000 OA
ATOM     10  N   UNL     1       4.706   5.212  16.819  0.00  0.00    +0.000 N 
ATOM     11  H   UNL     1       4.132   5.892  16.342  0.00  0.00    +0.000 HD
BRANCH  10  12
ATOM     12  C   UNL     1       5.779   4.608  16.040  0.00  0.00    +0.000 C 
BRANCH  12  13
ATOM     13  C   UNL     1       7.117   5.156  16.571  0.00  0.00    +0.000 C 
ATOM     14  N   UNL     1       7.863   4.277  17.308  0.00  0.00    +0.000 N 
ATOM     15  O   UNL     1       7.526   6.291  16.345  0.00  0.00    +0.000 OA
ATOM     16  H   UNL     1       7.545   3.347  17.545  0.00  0.00    +0.000 HD
ATOM     17  H   UNL     1       8.750   4.597  17.676  0.00  0.00    +0.000 HD
ENDBRANCH  12  13
BRANCH  12  18
ATOM     18  C   UNL     1       5.608   4.939  14.552  0.00  0.00    +0.000 C 
BRANCH  18  19
ATOM     19  C   UNL     1       5.619   3.679  13.682  0.00  0.00    +0.000 C 
BRANCH  19  20
ATOM     20  C   UNL     1       5.631   3.947  12.163  0.00  0.00    +0.000 C 
ATOM     21  C   UNL     1       7.040   4.031  11.555  0.00  0.00    +0.000 C 
ATOM     22  C   UNL     1       7.776   2.694  11.603  0.00  0.00    +0.000 C 
ATOM     23  C   UNL     1       6.975   1.594  10.912  0.00  0.00    +0.000 C 
ATOM     24  C   UNL     1       5.542   1.496  11.432  0.00  0.00    +0.000 C 
ATOM     25  C   UNL     1       4.831   2.851  11.432  0.00  0.00    +0.000 C 
ENDBRANCH  19  20
ENDBRANCH  18  19
ENDBRANCH  12  18
ENDBRANCH  10  12
ENDBRANCH   5   8
BRANCH   7  26
ATOM     26  N   UNL     1       1.959   8.912  19.516  0.00  0.00    +0.000 N 
ATOM     27  C   UNL     1       1.738   9.597  18.329  0.00  0.00    +0.000 C 
ATOM     28  O   UNL     1       1.626   9.066  17.229  0.00  0.00    +0.000 OA
ATOM     29  H   UNL     1       1.843   9.430  20.374  0.00  0.00    +0.000 HD
BRANCH  27  30
ATOM     30  C   UNL     1       1.624  11.031  18.419  0.00  0.00    +0.000 A 
ATOM     31  C   UNL     1       0.836  11.930  19.109  0.00  0.00    +0.000 A 
ATOM     32  C   UNL     1       1.318  13.228  18.754  0.00  0.00    +0.000 A 
ATOM     33  N   UNL     1       2.326  13.127  17.876  0.00  0.00    +0.000 NA
ATOM     34  N   UNL     1       2.479  11.814  17.689  0.00  0.00    +0.000 N 
ATOM     35  H   UNL     1       3.209  11.486  17.061  0.00  0.00    +0.000 HD
BRANCH  32  36
ATOM     36  C   UNL     1       0.882  14.538  19.242  0.00  0.00    +0.000 A 
ATOM     37  C   UNL     1       0.019  15.325  18.459  0.00  0.00    +0.000 A 
ATOM     38  C   UNL     1      -0.387  16.589  18.889  0.00  0.00    +0.000 A 
ATOM     39  C   UNL     1       0.058  17.080  20.114  0.00  0.00    +0.000 A 
ATOM     40  C   UNL     1       0.901  16.304  20.909  0.00  0.00    +0.000 A 
ATOM     41  C   UNL     1       1.311  15.039  20.477  0.00  0.00    +0.000 A 
ENDBRANCH  32  36
ENDBRANCH  27  30
ENDBRANCH   7  26
TORSDOF 9
ENDMDL
MODEL 5
REMARK VINA RESULT:      -8.1      3.957     12.157
REMARK  Name = 
REMARK  10 active torsions:
REMARK  status: ('A' for Active; 'I' for Inactive)
REMARK    1  A    between atoms: C_1  and  C_2
REMARK    2  A    between atoms: C_5  and  C_6
REMARK    3  A    between atoms: N_8  and  C_9
REMARK    4  A    between atoms: C_9  and  C_10
REMARK    5  A    between atoms: C_9  and  C_18
REMARK    6  A    between atoms: C_10  and  C_11
REMARK    7  A    between atoms: C_11  and  C_12
REMARK    8  A    between atoms: C_22  and  N_23
REMARK    9  A    between atoms: C_24  and  C_26
REMARK   10  A    between atoms: C_28  and  C_29
REMARK                            x       y       z     vdW  Elec       q    Type
REMARK                         _______ _______ _______ _____ _____    ______ ____
ROOT
ATOM      1  C   UNL     1       3.274   4.363  19.752  0.00  0.00    +0.000 C 
ATOM      2  C   UNL     1       2.866   5.788  19.495  0.00  0.00    +0.000 A 
ATOM      3  C   UNL     1       2.198   6.471  20.530  0.00  0.00    +0.000 A 
ATOM      4  C   UNL     1       1.731   7.772  20.351  0.00  0.00    +0.000 A 
ATOM      5  C   UNL     1       1.891   8.415  19.126  0.00  0.00    +0.000 A 
ATOM      6  C   UNL     1       2.565   7.746  18.098  0.00  0.00    +0.000 A 
ATOM      7  C   UNL     1       3.092   6.452  18.272  0.00  0.00    +0.000 A 
ENDROOT
BRANCH   5   8
ATOM      8  C   UNL     1       1.278   9.768  18.958  0.00  0.00    +0.000 C 
ATOM      9  O   UNL     1       1.675  10.505  18.059  0.00  0.00    +0.000 OA
ATOM     10  N   UNL     1       0.285  10.158  19.834  0.00  0.00    +0.000 N 
ATOM     11  H   UNL     1      -0.114   9.533  20.519  0.00  0.00    +0.000 HD
BRANCH  10  12
ATOM     12  C   UNL     1      -0.302  11.489  19.751  0.00  0.00    +0.000 C 
BRANCH  12  13
ATOM     13  C   UNL     1      -0.292  12.100  21.165  0.00  0.00    +0.000 C 
ATOM     14  N   UNL     1      -1.518  12.233  21.759  0.00  0.00    +0.000 N 
ATOM     15  O   UNL     1       0.731  12.432  21.757  0.00  0.00    +0.000 OA
ATOM     16  H   UNL     1      -2.385  12.004  21.291  0.00  0.00    +0.000 HD
ATOM     17  H   UNL     1      -1.556  12.630  22.688  0.00  0.00    +0.000 HD
ENDBRANCH  12  13
BRANCH  12  18
ATOM     18  C   UNL     1      -1.732  11.406  19.203  0.00  0.00    +0.000 C 
BRANCH  18  19
ATOM     19  C   UNL     1      -1.768  11.529  17.678  0.00  0.00    +0.000 C 
BRANCH  19  20
ATOM     20  C   UNL     1      -2.550  10.410  16.961  0.00  0.00    +0.000 C 
ATOM     21  C   UNL     1      -3.455   9.585  17.890  0.00  0.00    +0.000 C 
ATOM     22  C   UNL     1      -4.610  10.407  18.458  0.00  0.00    +0.000 C 
ATOM     23  C   UNL     1      -5.442  11.037  17.344  0.00  0.00    +0.000 C 
ATOM     24  C   UNL     1      -4.593  11.826  16.350  0.00  0.00    +0.000 C 
ATOM     25  C   UNL     1      -3.406  11.014  15.829  0.00  0.00    +0.000 C 
ENDBRANCH  19  20
ENDBRANCH  18  19
ENDBRANCH  12  18
ENDBRANCH  10  12
ENDBRANCH   5   8
BRANCH   7  26
ATOM     26  N   UNL     1       3.819   5.811  17.229  0.00  0.00    +0.000 N 
ATOM     27  C   UNL     1       5.128   6.106  16.871  0.00  0.00    +0.000 C 
ATOM     28  O   UNL     1       5.851   6.896  17.467  0.00  0.00    +0.000 OA
ATOM     29  H   UNL     1       3.390   5.012  16.786  0.00  0.00    +0.000 HD
BRANCH  27  30
ATOM     30  C   UNL     1       5.657   5.415  15.722  0.00  0.00    +0.000 A 
ATOM     31  C   UNL     1       5.255   4.375  14.908  0.00  0.00    +0.000 A 
ATOM     32  C   UNL     1       6.265   4.250  13.903  0.00  0.00    +0.000 A 
ATOM     33  N   UNL     1       7.241   5.147  14.109  0.00  0.00    +0.000 NA
ATOM     34  N   UNL     1       6.858   5.816  15.198  0.00  0.00    +0.000 N 
ATOM     35  H   UNL     1       7.444   6.572  15.546  0.00  0.00    +0.000 HD
BRANCH  32  36
ATOM     36  C   UNL     1       6.313   3.346  12.752  0.00  0.00    +0.000 A 
ATOM     37  C   UNL     1       5.121   2.817  12.229  0.00  0.00    +0.000 A 
ATOM     38  C   UNL     1       5.143   1.930  11.151  0.00  0.00    +0.000 A 
ATOM     39  C   UNL     1       6.358   1.568  10.577  0.00  0.00    +0.000 A 
ATOM     40  C   UNL     1       7.548   2.097  11.075  0.00  0.00    +0.000 A 
ATOM     41  C   UNL     1       7.528   2.983  12.157  0.00  0.00    +0.000 A 
ENDBRANCH  32  36
ENDBRANCH  27  30
ENDBRANCH   7  26
TORSDOF 9
ENDMDL
MODEL 6
REMARK VINA RESULT:      -8.0      3.553     12.071
REMARK  Name = 
REMARK  10 active torsions:
REMARK  status: ('A' for Active; 'I' for Inactive)
REMARK    1  A    between atoms: C_1  and  C_2
REMARK    2  A    between atoms: C_5  and  C_6
REMARK    3  A    between atoms: N_8  and  C_9
REMARK    4  A    between atoms: C_9  and  C_10
REMARK    5  A    between atoms: C_9  and  C_18
REMARK    6  A    between atoms: C_10  and  C_11
REMARK    7  A    between atoms: C_11  and  C_12
REMARK    8  A    between atoms: C_22  and  N_23
REMARK    9  A    between atoms: C_24  and  C_26
REMARK   10  A    between atoms: C_28  and  C_29
REMARK                            x       y       z     vdW  Elec       q    Type
REMARK                         _______ _______ _______ _____ _____    ______ ____
ROOT
ATOM      1  C   UNL     1       2.950   4.842  19.863  0.00  0.00    +0.000 C 
ATOM      2  C   UNL     1       2.584   6.269  19.555  0.00  0.00    +0.000 A 
ATOM      3  C   UNL     1       1.893   6.993  20.546  0.00  0.00    +0.000 A 
ATOM      4  C   UNL     1       1.463   8.299  20.317  0.00  0.00    +0.000 A 
ATOM      5  C   UNL     1       1.685   8.907  19.084  0.00  0.00    +0.000 A 
ATOM      6  C   UNL     1       2.383   8.197  18.100  0.00  0.00    +0.000 A 
ATOM      7  C   UNL     1       2.873   6.896  18.326  0.00  0.00    +0.000 A 
ENDROOT
BRANCH   5   8
ATOM      8  C   UNL     1       1.110  10.268  18.859  0.00  0.00    +0.000 C 
ATOM      9  O   UNL     1       0.102  10.391  18.168  0.00  0.00    +0.000 OA
ATOM     10  N   UNL     1       1.741  11.356  19.426  0.00  0.00    +0.000 N 
ATOM     11  H   UNL     1       2.515  11.263  20.068  0.00  0.00    +0.000 HD
BRANCH  10  12
ATOM     12  C   UNL     1       1.256  12.708  19.187  0.00  0.00    +0.000 C 
BRANCH  12  13
ATOM     13  C   UNL     1       2.466  13.590  18.826  0.00  0.00    +0.000 C 
ATOM     14  N   UNL     1       2.851  13.555  17.514  0.00  0.00    +0.000 N 
ATOM     15  O   UNL     1       3.052  14.306  19.634  0.00  0.00    +0.000 OA
ATOM     16  H   UNL     1       2.417  12.953  16.827  0.00  0.00    +0.000 HD
ATOM     17  H   UNL     1       3.642  14.120  17.234  0.00  0.00    +0.000 HD
ENDBRANCH  12  13
BRANCH  12  18
ATOM     18  C   UNL     1       0.543  13.246  20.434  0.00  0.00    +0.000 C 
BRANCH  18  19
ATOM     19  C   UNL     1      -0.949  13.480  20.183  0.00  0.00    +0.000 C 
BRANCH  19  20
ATOM     20  C   UNL     1      -1.848  12.259  20.466  0.00  0.00    +0.000 C 
ATOM     21  C   UNL     1      -1.595  11.600  21.831  0.00  0.00    +0.000 C 
ATOM     22  C   UNL     1      -1.988  12.505  22.997  0.00  0.00    +0.000 C 
ATOM     23  C   UNL     1      -3.446  12.944  22.891  0.00  0.00    +0.000 C 
ATOM     24  C   UNL     1      -3.779  13.557  21.533  0.00  0.00    +0.000 C 
ATOM     25  C   UNL     1      -3.331  12.668  20.370  0.00  0.00    +0.000 C 
ENDBRANCH  19  20
ENDBRANCH  18  19
ENDBRANCH  12  18
ENDBRANCH  10  12
ENDBRANCH   5   8
BRANCH   7  26
ATOM     26  N   UNL     1       3.625   6.213  17.329  0.00  0.00    +0.000 N 
ATOM     27  C   UNL     1       4.977   6.406  17.077  0.00  0.00    +0.000 C 
ATOM     28  O   UNL     1       5.712   7.126  17.744  0.00  0.00    +0.000 OA
ATOM     29  H   UNL     1       3.169   5.459  16.838  0.00  0.00    +0.000 HD
BRANCH  27  30
ATOM     30  C   UNL     1       5.537   5.691  15.958  0.00  0.00    +0.000 A 
ATOM     31  C   UNL     1       5.103   4.730  15.068  0.00  0.00    +0.000 A 
ATOM     32  C   UNL     1       6.188   4.516  14.162  0.00  0.00    +0.000 A 
ATOM     33  N   UNL     1       7.234   5.284  14.498  0.00  0.00    +0.000 NA
ATOM     34  N   UNL     1       6.823   5.962  15.571  0.00  0.00    +0.000 N 
ATOM     35  H   UNL     1       7.453   6.632  16.004  0.00  0.00    +0.000 HD
BRANCH  32  36
ATOM     36  C   UNL     1       6.248   3.646  12.985  0.00  0.00    +0.000 A 
ATOM     37  C   UNL     1       5.064   3.108  12.452  0.00  0.00    +0.000 A 
ATOM     38  C   UNL     1       5.098   2.253  11.349  0.00  0.00    +0.000 A 
ATOM     39  C   UNL     1       6.317   1.932  10.759  0.00  0.00    +0.000 A 
ATOM     40  C   UNL     1       7.499   2.470  11.267  0.00  0.00    +0.000 A 
ATOM     41  C   UNL     1       7.466   3.324  12.375  0.00  0.00    +0.000 A 
ENDBRANCH  32  36
ENDBRANCH  27  30
ENDBRANCH   7  26
TORSDOF 9
ENDMDL
MODEL 7
REMARK VINA RESULT:      -7.9      3.567     12.283
REMARK  Name = 
REMARK  10 active torsions:
REMARK  status: ('A' for Active; 'I' for Inactive)
REMARK    1  A    between atoms: C_1  and  C_2
REMARK    2  A    between atoms: C_5  and  C_6
REMARK    3  A    between atoms: N_8  and  C_9
REMARK    4  A    between atoms: C_9  and  C_10
REMARK    5  A    between atoms: C_9  and  C_18
REMARK    6  A    between atoms: C_10  and  C_11
REMARK    7  A    between atoms: C_11  and  C_12
REMARK    8  A    between atoms: C_22  and  N_23
REMARK    9  A    between atoms: C_24  and  C_26
REMARK   10  A    between atoms: C_28  and  C_29
REMARK                            x       y       z     vdW  Elec       q    Type
REMARK                         _______ _______ _______ _____ _____    ______ ____
ROOT
ATOM      1  C   UNL     1       3.068   4.557  19.849  0.00  0.00    +0.000 C 
ATOM      2  C   UNL     1       2.670   5.981  19.572  0.00  0.00    +0.000 A 
ATOM      3  C   UNL     1       1.980   6.674  20.585  0.00  0.00    +0.000 A 
ATOM      4  C   UNL     1       1.521   7.975  20.385  0.00  0.00    +0.000 A 
ATOM      5  C   UNL     1       1.713   8.608  19.159  0.00  0.00    +0.000 A 
ATOM      6  C   UNL     1       2.409   7.929  18.153  0.00  0.00    +0.000 A 
ATOM      7  C   UNL     1       2.928   6.635  18.349  0.00  0.00    +0.000 A 
ENDROOT
BRANCH   5   8
ATOM      8  C   UNL     1       1.107   9.961  18.967  0.00  0.00    +0.000 C 
ATOM      9  O   UNL     1       0.230  10.116  18.120  0.00  0.00    +0.000 OA
ATOM     10  N   UNL     1       1.565  11.008  19.741  0.00  0.00    +0.000 N 
ATOM     11  H   UNL     1       2.218  10.879  20.501  0.00  0.00    +0.000 HD
BRANCH  10  12
ATOM     12  C   UNL     1       1.051  12.357  19.550  0.00  0.00    +0.000 C 
BRANCH  12  13
ATOM     13  C   UNL     1       2.075  13.139  18.706  0.00  0.00    +0.000 C 
ATOM     14  N   UNL     1       2.282  12.665  17.440  0.00  0.00    +0.000 N 
ATOM     15  O   UNL     1       2.663  14.141  19.105  0.00  0.00    +0.000 OA
ATOM     16  H   UNL     1       1.843  11.825  17.087  0.00  0.00    +0.000 HD
ATOM     17  H   UNL     1       2.946  13.150  16.851  0.00  0.00    +0.000 HD
ENDBRANCH  12  13
BRANCH  12  18
ATOM     18  C   UNL     1       0.828  13.039  20.906  0.00  0.00    +0.000 C 
BRANCH  18  19
ATOM     19  C   UNL     1      -0.492  12.610  21.551  0.00  0.00    +0.000 C 
BRANCH  19  20
ATOM     20  C   UNL     1      -1.355  13.772  22.084  0.00  0.00    +0.000 C 
ATOM     21  C   UNL     1      -2.469  14.214  21.122  0.00  0.00    +0.000 C 
ATOM     22  C   UNL     1      -3.540  13.140  20.938  0.00  0.00    +0.000 C 
ATOM     23  C   UNL     1      -4.141  12.721  22.277  0.00  0.00    +0.000 C 
ATOM     24  C   UNL     1      -3.079  12.324  23.300  0.00  0.00    +0.000 C 
ATOM     25  C   UNL     1      -1.981  13.381  23.437  0.00  0.00    +0.000 C 
ENDBRANCH  19  20
ENDBRANCH  18  19
ENDBRANCH  12  18
ENDBRANCH  10  12
ENDBRANCH   5   8
BRANCH   7  26
ATOM     26  N   UNL     1       3.678   5.984  17.329  0.00  0.00    +0.000 N 
ATOM     27  C   UNL     1       5.019   6.214  17.055  0.00  0.00    +0.000 C 
ATOM     28  O   UNL     1       5.749   6.944  17.717  0.00  0.00    +0.000 OA
ATOM     29  H   UNL     1       3.231   5.224  16.836  0.00  0.00    +0.000 HD
BRANCH  27  30
ATOM     30  C   UNL     1       5.575   5.528  15.916  0.00  0.00    +0.000 A 
ATOM     31  C   UNL     1       5.174   4.519  15.063  0.00  0.00    +0.000 A 
ATOM     32  C   UNL     1       6.223   4.379  14.101  0.00  0.00    +0.000 A 
ATOM     33  N   UNL     1       7.219   5.236  14.369  0.00  0.00    +0.000 NA
ATOM     34  N   UNL     1       6.811   5.896  15.455  0.00  0.00    +0.000 N 
ATOM     35  H   UNL     1       7.407   6.623  15.844  0.00  0.00    +0.000 HD
BRANCH  32  36
ATOM     36  C   UNL     1       6.292   3.496  12.934  0.00  0.00    +0.000 A 
ATOM     37  C   UNL     1       7.524   3.275  12.296  0.00  0.00    +0.000 A 
ATOM     38  C   UNL     1       7.610   2.461  11.165  0.00  0.00    +0.000 A 
ATOM     39  C   UNL     1       6.464   1.851  10.663  0.00  0.00    +0.000 A 
ATOM     40  C   UNL     1       5.237   2.048  11.295  0.00  0.00    +0.000 A 
ATOM     41  C   UNL     1       5.149   2.866  12.426  0.00  0.00    +0.000 A 
ENDBRANCH  32  36
ENDBRANCH  27  30
ENDBRANCH   7  26
TORSDOF 9
ENDMDL
MODEL 8
REMARK VINA RESULT:      -7.9      3.031     11.726
REMARK  Name = 
REMARK  10 active torsions:
REMARK  status: ('A' for Active; 'I' for Inactive)
REMARK    1  A    between atoms: C_1  and  C_2
REMARK    2  A    between atoms: C_5  and  C_6
REMARK    3  A    between atoms: N_8  and  C_9
REMARK    4  A    between atoms: C_9  and  C_10
REMARK    5  A    between atoms: C_9  and  C_18
REMARK    6  A    between atoms: C_10  and  C_11
REMARK    7  A    between atoms: C_11  and  C_12
REMARK    8  A    between atoms: C_22  and  N_23
REMARK    9  A    between atoms: C_24  and  C_26
REMARK   10  A    between atoms: C_28  and  C_29
REMARK                            x       y       z     vdW  Elec       q    Type
REMARK                         _______ _______ _______ _____ _____    ______ ____
ROOT
ATOM      1  C   UNL     1      -1.852  10.207  17.339  0.00  0.00    +0.000 C 
ATOM      2  C   UNL     1      -1.784  10.870  18.688  0.00  0.00    +0.000 A 
ATOM      3  C   UNL     1      -2.763  11.837  18.988  0.00  0.00    +0.000 A 
ATOM      4  C   UNL     1      -2.735  12.542  20.190  0.00  0.00    +0.000 A 
ATOM      5  C   UNL     1      -1.713  12.321  21.112  0.00  0.00    +0.000 A 
ATOM      6  C   UNL     1      -0.746  11.353  20.824  0.00  0.00    +0.000 A 
ATOM      7  C   UNL     1      -0.783  10.591  19.640  0.00  0.00    +0.000 A 
ENDROOT
BRANCH   5   8
ATOM      8  C   UNL     1      -1.674  13.180  22.334  0.00  0.00    +0.000 C 
ATOM      9  O   UNL     1      -0.902  12.898  23.247  0.00  0.00    +0.000 OA
ATOM     10  N   UNL     1      -2.525  14.265  22.409  0.00  0.00    +0.000 N 
ATOM     11  H   UNL     1      -3.098  14.563  21.633  0.00  0.00    +0.000 HD
BRANCH  10  12
ATOM     12  C   UNL     1      -2.569  15.097  23.604  0.00  0.00    +0.000 C 
BRANCH  12  13
ATOM     13  C   UNL     1      -3.948  14.908  24.263  0.00  0.00    +0.000 C 
ATOM     14  N   UNL     1      -4.092  13.775  25.017  0.00  0.00    +0.000 N 
ATOM     15  O   UNL     1      -4.869  15.714  24.158  0.00  0.00    +0.000 OA
ATOM     16  H   UNL     1      -3.369  13.072  25.099  0.00  0.00    +0.000 HD
ATOM     17  H   UNL     1      -4.982  13.613  25.468  0.00  0.00    +0.000 HD
ENDBRANCH  12  13
BRANCH  12  18
ATOM     18  C   UNL     1      -2.338  16.568  23.237  0.00  0.00    +0.000 C 
BRANCH  18  19
ATOM     19  C   UNL     1      -2.156  16.759  21.729  0.00  0.00    +0.000 C 
BRANCH  19  20
ATOM     20  C   UNL     1      -0.739  17.194  21.302  0.00  0.00    +0.000 C 
ATOM     21  C   UNL     1       0.140  16.042  20.790  0.00  0.00    +0.000 C 
ATOM     22  C   UNL     1      -0.374  15.456  19.477  0.00  0.00    +0.000 C 
ATOM     23  C   UNL     1      -0.502  16.532  18.402  0.00  0.00    +0.000 C 
ATOM     24  C   UNL     1      -1.318  17.735  18.869  0.00  0.00    +0.000 C 
ATOM     25  C   UNL     1      -0.831  18.280  20.213  0.00  0.00    +0.000 C 
ENDBRANCH  19  20
ENDBRANCH  18  19
ENDBRANCH  12  18
ENDBRANCH  10  12
ENDBRANCH   5   8
BRANCH   7  26
ATOM     26  N   UNL     1       0.183   9.574  19.393  0.00  0.00    +0.000 N 
ATOM     27  C   UNL     1       1.374   9.756  18.704  0.00  0.00    +0.000 C 
ATOM     28  O   UNL     1       1.785  10.838  18.298  0.00  0.00    +0.000 OA
ATOM     29  H   UNL     1       0.042   8.680  19.840  0.00  0.00    +0.000 HD
BRANCH  27  30
ATOM     30  C   UNL     1       2.174   8.580  18.470  0.00  0.00    +0.000 A 
ATOM     31  C   UNL     1       3.053   8.146  17.498  0.00  0.00    +0.000 A 
ATOM     32  C   UNL     1       3.535   6.876  17.946  0.00  0.00    +0.000 A 
ATOM     33  N   UNL     1       2.962   6.544  19.111  0.00  0.00    +0.000 NA
ATOM     34  N   UNL     1       2.154   7.568  19.392  0.00  0.00    +0.000 N 
ATOM     35  H   UNL     1       1.612   7.548  20.253  0.00  0.00    +0.000 HD
BRANCH  32  36
ATOM     36  C   UNL     1       4.534   6.001  17.328  0.00  0.00    +0.000 A 
ATOM     37  C   UNL     1       4.195   4.678  16.995  0.00  0.00    +0.000 A 
ATOM     38  C   UNL     1       5.138   3.816  16.433  0.00  0.00    +0.000 A 
ATOM     39  C   UNL     1       6.431   4.269  16.188  0.00  0.00    +0.000 A 
ATOM     40  C   UNL     1       6.778   5.583  16.498  0.00  0.00    +0.000 A 
ATOM     41  C   UNL     1       5.835   6.447  17.065  0.00  0.00    +0.000 A 
ENDBRANCH  32  36
ENDBRANCH  27  30
ENDBRANCH   7  26
TORSDOF 9
ENDMDL
MODEL 9
REMARK VINA RESULT:      -7.9      4.070     12.261
REMARK  Name = 
REMARK  10 active torsions:
REMARK  status: ('A' for Active; 'I' for Inactive)
REMARK    1  A    between atoms: C_1  and  C_2
REMARK    2  A    between atoms: C_5  and  C_6
REMARK    3  A    between atoms: N_8  and  C_9
REMARK    4  A    between atoms: C_9  and  C_10
REMARK    5  A    between atoms: C_9  and  C_18
REMARK    6  A    between atoms: C_10  and  C_11
REMARK    7  A    between atoms: C_11  and  C_12
REMARK    8  A    between atoms: C_22  and  N_23
REMARK    9  A    between atoms: C_24  and  C_26
REMARK   10  A    between atoms: C_28  and  C_29
REMARK                            x       y       z     vdW  Elec       q    Type
REMARK                         _______ _______ _______ _____ _____    ______ ____
ROOT
ATOM      1  C   UNL     1       2.091   4.368  19.876  0.00  0.00    +0.000 C 
ATOM      2  C   UNL     1       1.982   5.867  19.931  0.00  0.00    +0.000 A 
ATOM      3  C   UNL     1       1.328   6.432  21.043  0.00  0.00    +0.000 A 
ATOM      4  C   UNL     1       1.130   7.809  21.140  0.00  0.00    +0.000 A 
ATOM      5  C   UNL     1       1.554   8.655  20.117  0.00  0.00    +0.000 A 
ATOM      6  C   UNL     1       2.216   8.100  19.016  0.00  0.00    +0.000 A 
ATOM      7  C   UNL     1       2.474   6.719  18.920  0.00  0.00    +0.000 A 
ENDROOT
BRANCH   5   8
ATOM      8  C   UNL     1       1.221  10.108  20.226  0.00  0.00    +0.000 C 
ATOM      9  O   UNL     1       1.121  10.624  21.336  0.00  0.00    +0.000 OA
ATOM     10  N   UNL     1       1.020  10.830  19.067  0.00  0.00    +0.000 N 
ATOM     11  H   UNL     1       1.187  10.444  18.149  0.00  0.00    +0.000 HD
BRANCH  10  12
ATOM     12  C   UNL     1       0.634  12.233  19.120  0.00  0.00    +0.000 C 
BRANCH  12  13
ATOM     13  C   UNL     1      -0.849  12.333  18.716  0.00  0.00    +0.000 C 
ATOM     14  N   UNL     1      -1.085  12.729  17.428  0.00  0.00    +0.000 N 
ATOM     15  O   UNL     1      -1.780  12.058  19.468  0.00  0.00    +0.000 OA
ATOM     16  H   UNL     1      -0.347  12.997  16.790  0.00  0.00    +0.000 HD
ATOM     17  H   UNL     1      -2.045  12.807  17.121  0.00  0.00    +0.000 HD
ENDBRANCH  12  13
BRANCH  12  18
ATOM     18  C   UNL     1       1.512  13.063  18.176  0.00  0.00    +0.000 C 
BRANCH  18  19
ATOM     19  C   UNL     1       2.793  13.545  18.862  0.00  0.00    +0.000 C 
BRANCH  19  20
ATOM     20  C   UNL     1       3.545  14.661  18.110  0.00  0.00    +0.000 C 
ATOM     21  C   UNL     1       2.748  15.967  17.969  0.00  0.00    +0.000 C 
ATOM     22  C   UNL     1       2.512  16.653  19.314  0.00  0.00    +0.000 C 
ATOM     23  C   UNL     1       3.829  16.921  20.038  0.00  0.00    +0.000 C 
ATOM     24  C   UNL     1       4.698  15.672  20.160  0.00  0.00    +0.000 C 
ATOM     25  C   UNL     1       4.882  14.960  18.818  0.00  0.00    +0.000 C 
ENDBRANCH  19  20
ENDBRANCH  18  19
ENDBRANCH  12  18
ENDBRANCH  10  12
ENDBRANCH   5   8
BRANCH   7  26
ATOM     26  N   UNL     1       3.195   6.183  17.815  0.00  0.00    +0.000 N 
ATOM     27  C   UNL     1       4.560   5.932  17.800  0.00  0.00    +0.000 C 
ATOM     28  O   UNL     1       5.301   6.057  18.769  0.00  0.00    +0.000 OA
ATOM     29  H   UNL     1       2.660   5.866  17.021  0.00  0.00    +0.000 HD
BRANCH  27  30
ATOM     30  C   UNL     1       5.122   5.481  16.552  0.00  0.00    +0.000 A 
ATOM     31  C   UNL     1       4.867   4.470  15.648  0.00  0.00    +0.000 A 
ATOM     32  C   UNL     1       5.802   4.653  14.581  0.00  0.00    +0.000 A 
ATOM     33  N   UNL     1       6.599   5.701  14.834  0.00  0.00    +0.000 NA
ATOM     34  N   UNL     1       6.180   6.165  16.013  0.00  0.00    +0.000 N 
ATOM     35  H   UNL     1       6.634   6.983  16.412  0.00  0.00    +0.000 HD
BRANCH  32  36
ATOM     36  C   UNL     1       5.934   3.898  13.333  0.00  0.00    +0.000 A 
ATOM     37  C   UNL     1       4.796   3.331  12.734  0.00  0.00    +0.000 A 
ATOM     38  C   UNL     1       4.901   2.583  11.560  0.00  0.00    +0.000 A 
ATOM     39  C   UNL     1       6.146   2.400  10.965  0.00  0.00    +0.000 A 
ATOM     40  C   UNL     1       7.282   2.970  11.538  0.00  0.00    +0.000 A 
ATOM     41  C   UNL     1       7.178   3.717  12.716  0.00  0.00    +0.000 A 
ENDBRANCH  32  36
ENDBRANCH  27  30
ENDBRANCH   7  26
TORSDOF 9
ENDMDL
