MODEL 1
REMARK VINA RESULT:      -6.8      0.000      0.000
REMARK  Name = 
REMARK  4 active torsions:
REMARK  status: ('A' for Active; 'I' for Inactive)
REMARK    1  A    between atoms: C_1  and  C_2
REMARK    2  A    between atoms: C_5  and  O_6
REMARK    3  A    between atoms: C_7  and  N_8
REMARK    4  A    between atoms: N_9  and  C_10
REMARK                            x       y       z     vdW  Elec       q    Type
REMARK                         _______ _______ _______ _____ _____    ______ ____
ROOT
ATOM      1  C   UNL     1       5.650   3.979  14.042  0.00  0.00    +0.000 C 
ATOM      2  C   UNL     1       6.242   4.743  15.167  0.00  0.00    +0.000 A 
ATOM      3  N   UNL     1       7.325   5.510  14.961  0.00  0.00    +0.000 NA
ATOM      4  N   UNL     1       7.552   6.075  16.159  0.00  0.00    +0.000 N 
ATOM      5  C   UNL     1       6.661   5.707  17.135  0.00  0.00    +0.000 A 
ATOM      6  C   UNL     1       5.806   4.827  16.513  0.00  0.00    +0.000 A 
ATOM      7  H   UNL     1       8.331   6.718  16.233  0.00  0.00    +0.000 HD
ENDROOT
BRANCH   5   8
ATOM      8  O   UNL     1       6.702   6.170  18.381  0.00  0.00    +0.000 OA
ATOM      9  H   UNL     1       6.989   7.099  18.388  0.00  0.00    +0.000 HD
ENDBRANCH   5   8
BRANCH   6  10
ATOM     10  N   UNL     1       4.690   4.239  17.120  0.00  0.00    +0.000 NA
ATOM     11  N   UNL     1       4.016   5.030  17.811  0.00  0.00    +0.000 NA
BRANCH  11  12
ATOM     12  C   UNL     1       2.927   4.385  18.439  0.00  0.00    +0.000 A 
ATOM     13  C   UNL     1       2.458   3.184  17.889  0.00  0.00    +0.000 A 
ATOM     14  C   UNL     1       1.391   2.494  18.470  0.00  0.00    +0.000 A 
ATOM     15  C   UNL     1       0.780   2.994  19.618  0.00  0.00    +0.000 A 
ATOM     16  C   UNL     1       1.242   4.177  20.189  0.00  0.00    +0.000 A 
ATOM     17  C   UNL     1       2.311   4.864  19.607  0.00  0.00    +0.000 A 
ENDBRANCH  11  12
ENDBRANCH   6  10
TORSDOF 3
ENDMDL
MODEL 2
REMARK VINA RESULT:      -6.8      0.860      1.499
REMARK  Name = 
REMARK  4 active torsions:
REMARK  status: ('A' for Active; 'I' for Inactive)
REMARK    1  A    between atoms: C_1  and  C_2
REMARK    2  A    between atoms: C_5  and  O_6
REMARK    3  A    between atoms: C_7  and  N_8
REMARK    4  A    between atoms: N_9  and  C_10
REMARK                            x       y       z     vdW  Elec       q    Type
REMARK                         _______ _______ _______ _____ _____    ______ ____
ROOT
ATOM      1  C   UNL     1       5.364   4.189  14.137  0.00  0.00    +0.000 C 
ATOM      2  C   UNL     1       6.167   4.349  15.373  0.00  0.00    +0.000 A 
ATOM      3  N   UNL     1       7.446   4.750  15.294  0.00  0.00    +0.000 NA
ATOM      4  N   UNL     1       7.839   4.828  16.577  0.00  0.00    +0.000 N 
ATOM      5  C   UNL     1       6.868   4.494  17.486  0.00  0.00    +0.000 A 
ATOM      6  C   UNL     1       5.773   4.164  16.721  0.00  0.00    +0.000 A 
ATOM      7  H   UNL     1       8.788   5.132  16.759  0.00  0.00    +0.000 HD
ENDROOT
BRANCH   5   8
ATOM      8  O   UNL     1       7.051   4.526  18.803  0.00  0.00    +0.000 OA
ATOM      9  H   UNL     1       7.850   5.034  19.022  0.00  0.00    +0.000 HD
ENDBRANCH   5   8
BRANCH   6  10
ATOM     10  N   UNL     1       4.519   3.816  17.237  0.00  0.00    +0.000 NA
ATOM     11  N   UNL     1       4.304   4.255  18.385  0.00  0.00    +0.000 NA
BRANCH  11  12
ATOM     12  C   UNL     1       3.048   3.844  18.882  0.00  0.00    +0.000 A 
ATOM     13  C   UNL     1       2.582   4.421  20.071  0.00  0.00    +0.000 A 
ATOM     14  C   UNL     1       1.342   4.063  20.608  0.00  0.00    +0.000 A 
ATOM     15  C   UNL     1       0.545   3.125  19.956  0.00  0.00    +0.000 A 
ATOM     16  C   UNL     1       0.982   2.553  18.764  0.00  0.00    +0.000 A 
ATOM     17  C   UNL     1       2.222   2.915  18.228  0.00  0.00    +0.000 A 
ENDBRANCH  11  12
ENDBRANCH   6  10
TORSDOF 3
ENDMDL
MODEL 3
REMARK VINA RESULT:      -6.8      0.972      1.129
REMARK  Name = 
REMARK  4 active torsions:
REMARK  status: ('A' for Active; 'I' for Inactive)
REMARK    1  A    between atoms: C_1  and  C_2
REMARK    2  A    between atoms: C_5  and  O_6
REMARK    3  A    between atoms: C_7  and  N_8
REMARK    4  A    between atoms: N_9  and  C_10
REMARK                            x       y       z     vdW  Elec       q    Type
REMARK                         _______ _______ _______ _____ _____    ______ ____
ROOT
ATOM      1  C   UNL     1       5.619   5.109  15.023  0.00  0.00    +0.000 C 
ATOM      2  C   UNL     1       6.311   5.345  16.313  0.00  0.00    +0.000 A 
ATOM      3  N   UNL     1       7.468   6.027  16.338  0.00  0.00    +0.000 NA
ATOM      4  N   UNL     1       7.778   6.088  17.645  0.00  0.00    +0.000 N 
ATOM      5  C   UNL     1       6.870   5.474  18.469  0.00  0.00    +0.000 A 
ATOM      6  C   UNL     1       5.912   4.970  17.620  0.00  0.00    +0.000 A 
ATOM      7  H   UNL     1       8.624   6.581  17.903  0.00  0.00    +0.000 HD
ENDROOT
BRANCH   5   8
ATOM      8  O   UNL     1       6.984   5.441  19.794  0.00  0.00    +0.000 OA
ATOM      9  H   UNL     1       6.278   5.966  20.209  0.00  0.00    +0.000 HD
ENDBRANCH   5   8
BRANCH   6  10
ATOM     10  N   UNL     1       4.750   4.310  18.035  0.00  0.00    +0.000 NA
ATOM     11  N   UNL     1       4.008   5.001  18.763  0.00  0.00    +0.000 NA
BRANCH  11  12
ATOM     12  C   UNL     1       2.871   4.282  19.193  0.00  0.00    +0.000 A 
ATOM     13  C   UNL     1       2.198   3.482  18.259  0.00  0.00    +0.000 A 
ATOM     14  C   UNL     1       1.073   2.739  18.625  0.00  0.00    +0.000 A 
ATOM     15  C   UNL     1       0.608   2.779  19.938  0.00  0.00    +0.000 A 
ATOM     16  C   UNL     1       1.273   3.554  20.885  0.00  0.00    +0.000 A 
ATOM     17  C   UNL     1       2.400   4.295  20.515  0.00  0.00    +0.000 A 
ENDBRANCH  11  12
ENDBRANCH   6  10
TORSDOF 3
ENDMDL
MODEL 4
REMARK VINA RESULT:      -6.8      1.402      2.054
REMARK  Name = 
REMARK  4 active torsions:
REMARK  status: ('A' for Active; 'I' for Inactive)
REMARK    1  A    between atoms: C_1  and  C_2
REMARK    2  A    between atoms: C_5  and  O_6
REMARK    3  A    between atoms: C_7  and  N_8
REMARK    4  A    between atoms: N_9  and  C_10
REMARK                            x       y       z     vdW  Elec       q    Type
REMARK                         _______ _______ _______ _____ _____    ______ ____
ROOT
ATOM      1  C   UNL     1       6.874   7.282  17.599  0.00  0.00    +0.000 C 
ATOM      2  C   UNL     1       6.783   6.068  16.752  0.00  0.00    +0.000 A 
ATOM      3  N   UNL     1       7.601   5.926  15.696  0.00  0.00    +0.000 NA
ATOM      4  N   UNL     1       7.279   4.719  15.200  0.00  0.00    +0.000 N 
ATOM      5  C   UNL     1       6.286   4.071  15.890  0.00  0.00    +0.000 A 
ATOM      6  C   UNL     1       5.938   4.941  16.899  0.00  0.00    +0.000 A 
ATOM      7  H   UNL     1       7.792   4.392  14.390  0.00  0.00    +0.000 HD
ENDROOT
BRANCH   5   8
ATOM      8  O   UNL     1       5.838   2.860  15.572  0.00  0.00    +0.000 OA
ATOM      9  H   UNL     1       5.251   2.908  14.799  0.00  0.00    +0.000 HD
ENDBRANCH   5   8
BRANCH   6  10
ATOM     10  N   UNL     1       4.995   4.665  17.896  0.00  0.00    +0.000 NA
ATOM     11  N   UNL     1       3.832   4.525  17.467  0.00  0.00    +0.000 NA
BRANCH  11  12
ATOM     12  C   UNL     1       2.909   4.292  18.511  0.00  0.00    +0.000 A 
ATOM     13  C   UNL     1       1.931   3.305  18.325  0.00  0.00    +0.000 A 
ATOM     14  C   UNL     1       0.996   3.020  19.323  0.00  0.00    +0.000 A 
ATOM     15  C   UNL     1       1.031   3.717  20.530  0.00  0.00    +0.000 A 
ATOM     16  C   UNL     1       2.006   4.688  20.741  0.00  0.00    +0.000 A 
ATOM     17  C   UNL     1       2.941   4.969  19.740  0.00  0.00    +0.000 A 
ENDBRANCH  11  12
ENDBRANCH   6  10
TORSDOF 3
ENDMDL
MODEL 5
REMARK VINA RESULT:      -6.7      1.190      1.635
REMARK  Name = 
REMARK  4 active torsions:
REMARK  status: ('A' for Active; 'I' for Inactive)
REMARK    1  A    between atoms: C_1  and  C_2
REMARK    2  A    between atoms: C_5  and  O_6
REMARK    3  A    between atoms: C_7  and  N_8
REMARK    4  A    between atoms: N_9  and  C_10
REMARK                            x       y       z     vdW  Elec       q    Type
REMARK                         _______ _______ _______ _____ _____    ______ ____
ROOT
ATOM      1  C   UNL     1       5.660   3.501  12.922  0.00  0.00    +0.000 C 
ATOM      2  C   UNL     1       6.340   4.251  14.006  0.00  0.00    +0.000 A 
ATOM      3  N   UNL     1       7.367   5.066  13.714  0.00  0.00    +0.000 NA
ATOM      4  N   UNL     1       7.700   5.601  14.901  0.00  0.00    +0.000 N 
ATOM      5  C   UNL     1       6.932   5.167  15.951  0.00  0.00    +0.000 A 
ATOM      6  C   UNL     1       6.048   4.274  15.391  0.00  0.00    +0.000 A 
ATOM      7  H   UNL     1       8.459   6.272  14.917  0.00  0.00    +0.000 HD
ENDROOT
BRANCH   5   8
ATOM      8  O   UNL     1       7.089   5.591  17.203  0.00  0.00    +0.000 OA
ATOM      9  H   UNL     1       6.755   6.500  17.297  0.00  0.00    +0.000 HD
ENDBRANCH   5   8
BRANCH   6  10
ATOM     10  N   UNL     1       5.024   3.624  16.091  0.00  0.00    +0.000 NA
ATOM     11  N   UNL     1       4.344   4.382  16.813  0.00  0.00    +0.000 NA
BRANCH  11  12
ATOM     12  C   UNL     1       3.353   3.677  17.532  0.00  0.00    +0.000 A 
ATOM     13  C   UNL     1       2.099   4.280  17.700  0.00  0.00    +0.000 A 
ATOM     14  C   UNL     1       1.074   3.630  18.392  0.00  0.00    +0.000 A 
ATOM     15  C   UNL     1       1.289   2.360  18.923  0.00  0.00    +0.000 A 
ATOM     16  C   UNL     1       2.522   1.736  18.752  0.00  0.00    +0.000 A 
ATOM     17  C   UNL     1       3.545   2.389  18.056  0.00  0.00    +0.000 A 
ENDBRANCH  11  12
ENDBRANCH   6  10
TORSDOF 3
ENDMDL
MODEL 6
REMARK VINA RESULT:      -6.7      1.014      1.679
REMARK  Name = 
REMARK  4 active torsions:
REMARK  status: ('A' for Active; 'I' for Inactive)
REMARK    1  A    between atoms: C_1  and  C_2
REMARK    2  A    between atoms: C_5  and  O_6
REMARK    3  A    between atoms: C_7  and  N_8
REMARK    4  A    between atoms: N_9  and  C_10
REMARK                            x       y       z     vdW  Elec       q    Type
REMARK                         _______ _______ _______ _____ _____    ______ ____
ROOT
ATOM      1  C   UNL     1       5.675   5.419  15.001  0.00  0.00    +0.000 C 
ATOM      2  C   UNL     1       6.341   5.556  16.318  0.00  0.00    +0.000 A 
ATOM      3  N   UNL     1       7.508   6.214  16.414  0.00  0.00    +0.000 NA
ATOM      4  N   UNL     1       7.789   6.181  17.728  0.00  0.00    +0.000 N 
ATOM      5  C   UNL     1       6.853   5.530  18.489  0.00  0.00    +0.000 A 
ATOM      6  C   UNL     1       5.907   5.102  17.588  0.00  0.00    +0.000 A 
ATOM      7  H   UNL     1       8.638   6.641  18.037  0.00  0.00    +0.000 HD
ENDROOT
BRANCH   5   8
ATOM      8  O   UNL     1       6.937   5.406  19.811  0.00  0.00    +0.000 OA
ATOM      9  H   UNL     1       7.865   5.444  20.097  0.00  0.00    +0.000 HD
ENDBRANCH   5   8
BRANCH   6  10
ATOM     10  N   UNL     1       4.724   4.436  17.932  0.00  0.00    +0.000 NA
ATOM     11  N   UNL     1       4.092   4.977  18.863  0.00  0.00    +0.000 NA
BRANCH  11  12
ATOM     12  C   UNL     1       2.931   4.249  19.206  0.00  0.00    +0.000 A 
ATOM     13  C   UNL     1       2.432   4.371  20.510  0.00  0.00    +0.000 A 
ATOM     14  C   UNL     1       1.281   3.684  20.907  0.00  0.00    +0.000 A 
ATOM     15  C   UNL     1       0.607   2.870  20.000  0.00  0.00    +0.000 A 
ATOM     16  C   UNL     1       1.077   2.750  18.694  0.00  0.00    +0.000 A 
ATOM     17  C   UNL     1       2.228   3.440  18.300  0.00  0.00    +0.000 A 
ENDBRANCH  11  12
ENDBRANCH   6  10
TORSDOF 3
ENDMDL
MODEL 7
REMARK VINA RESULT:      -6.7      1.834      2.011
REMARK  Name = 
REMARK  4 active torsions:
REMARK  status: ('A' for Active; 'I' for Inactive)
REMARK    1  A    between atoms: C_1  and  C_2
REMARK    2  A    between atoms: C_5  and  O_6
REMARK    3  A    between atoms: C_7  and  N_8
REMARK    4  A    between atoms: N_9  and  C_10
REMARK                            x       y       z     vdW  Elec       q    Type
REMARK                         _______ _______ _______ _____ _____    ______ ____
ROOT
ATOM      1  C   UNL     1       5.339   6.560  16.089  0.00  0.00    +0.000 C 
ATOM      2  C   UNL     1       6.310   6.443  17.204  0.00  0.00    +0.000 A 
ATOM      3  N   UNL     1       7.419   7.200  17.208  0.00  0.00    +0.000 NA
ATOM      4  N   UNL     1       8.028   6.872  18.360  0.00  0.00    +0.000 N 
ATOM      5  C   UNL     1       7.361   5.934  19.105  0.00  0.00    +0.000 A 
ATOM      6  C   UNL     1       6.244   5.629  18.361  0.00  0.00    +0.000 A 
ATOM      7  H   UNL     1       8.897   7.344  18.582  0.00  0.00    +0.000 HD
ENDROOT
BRANCH   5   8
ATOM      8  O   UNL     1       7.787   5.490  20.284  0.00  0.00    +0.000 OA
ATOM      9  H   UNL     1       8.174   6.218  20.800  0.00  0.00    +0.000 HD
ENDBRANCH   5   8
BRANCH   6  10
ATOM     10  N   UNL     1       5.233   4.751  18.769  0.00  0.00    +0.000 NA
ATOM     11  N   UNL     1       4.238   5.319  19.265  0.00  0.00    +0.000 NA
BRANCH  11  12
ATOM     12  C   UNL     1       3.264   4.394  19.701  0.00  0.00    +0.000 A 
ATOM     13  C   UNL     1       3.224   3.133  19.090  0.00  0.00    +0.000 A 
ATOM     14  C   UNL     1       2.291   2.171  19.484  0.00  0.00    +0.000 A 
ATOM     15  C   UNL     1       1.385   2.455  20.504  0.00  0.00    +0.000 A 
ATOM     16  C   UNL     1       1.421   3.696  21.136  0.00  0.00    +0.000 A 
ATOM     17  C   UNL     1       2.358   4.656  20.740  0.00  0.00    +0.000 A 
ENDBRANCH  11  12
ENDBRANCH   6  10
TORSDOF 3
ENDMDL
MODEL 8
REMARK VINA RESULT:      -6.7      1.472      1.634
REMARK  Name = 
REMARK  4 active torsions:
REMARK  status: ('A' for Active; 'I' for Inactive)
REMARK    1  A    between atoms: C_1  and  C_2
REMARK    2  A    between atoms: C_5  and  O_6
REMARK    3  A    between atoms: C_7  and  N_8
REMARK    4  A    between atoms: N_9  and  C_10
REMARK                            x       y       z     vdW  Elec       q    Type
REMARK                         _______ _______ _______ _____ _____    ______ ____
ROOT
ATOM      1  C   UNL     1       5.127   4.299  14.783  0.00  0.00    +0.000 C 
ATOM      2  C   UNL     1       6.083   4.456  15.905  0.00  0.00    +0.000 A 
ATOM      3  N   UNL     1       7.385   4.669  15.651  0.00  0.00    +0.000 NA
ATOM      4  N   UNL     1       7.932   4.804  16.872  0.00  0.00    +0.000 N 
ATOM      5  C   UNL     1       7.040   4.688  17.907  0.00  0.00    +0.000 A 
ATOM      6  C   UNL     1       5.830   4.446  17.299  0.00  0.00    +0.000 A 
ATOM      7  H   UNL     1       8.927   4.991  16.921  0.00  0.00    +0.000 HD
ENDROOT
BRANCH   5   8
ATOM      8  O   UNL     1       7.378   4.810  19.188  0.00  0.00    +0.000 OA
ATOM      9  H   UNL     1       8.146   4.249  19.390  0.00  0.00    +0.000 HD
ENDBRANCH   5   8
BRANCH   6  10
ATOM     10  N   UNL     1       4.611   4.319  17.976  0.00  0.00    +0.000 NA
ATOM     11  N   UNL     1       4.654   3.545  18.953  0.00  0.00    +0.000 NA
BRANCH  11  12
ATOM     12  C   UNL     1       3.394   3.414  19.579  0.00  0.00    +0.000 A 
ATOM     13  C   UNL     1       3.328   2.742  20.807  0.00  0.00    +0.000 A 
ATOM     14  C   UNL     1       2.114   2.589  21.481  0.00  0.00    +0.000 A 
ATOM     15  C   UNL     1       0.944   3.115  20.936  0.00  0.00    +0.000 A 
ATOM     16  C   UNL     1       0.991   3.803  19.726  0.00  0.00    +0.000 A 
ATOM     17  C   UNL     1       2.209   3.955  19.056  0.00  0.00    +0.000 A 
ENDBRANCH  11  12
ENDBRANCH   6  10
TORSDOF 3
ENDMDL
MODEL 9
REMARK VINA RESULT:      -6.6      1.822      2.196
REMARK  Name = 
REMARK  4 active torsions:
REMARK  status: ('A' for Active; 'I' for Inactive)
REMARK    1  A    between atoms: C_1  and  C_2
REMARK    2  A    between atoms: C_5  and  O_6
REMARK    3  A    between atoms: C_7  and  N_8
REMARK    4  A    between atoms: N_9  and  C_10
REMARK                            x       y       z     vdW  Elec       q    Type
REMARK                         _______ _______ _______ _____ _____    ______ ____
ROOT
ATOM      1  C   UNL     1       5.226   6.585  15.779  0.00  0.00    +0.000 C 
ATOM      2  C   UNL     1       6.167   6.445  16.916  0.00  0.00    +0.000 A 
ATOM      3  N   UNL     1       7.329   7.119  16.911  0.00  0.00    +0.000 NA
ATOM      4  N   UNL     1       7.892   6.797  18.089  0.00  0.00    +0.000 N 
ATOM      5  C   UNL     1       7.144   5.943  18.858  0.00  0.00    +0.000 A 
ATOM      6  C   UNL     1       6.021   5.689  18.105  0.00  0.00    +0.000 A 
ATOM      7  H   UNL     1       8.789   7.213  18.308  0.00  0.00    +0.000 HD
ENDROOT
BRANCH   5   8
ATOM      8  O   UNL     1       7.516   5.521  20.063  0.00  0.00    +0.000 OA
ATOM      9  H   UNL     1       6.927   4.811  20.371  0.00  0.00    +0.000 HD
ENDBRANCH   5   8
BRANCH   6  10
ATOM     10  N   UNL     1       4.941   4.906  18.529  0.00  0.00    +0.000 NA
ATOM     11  N   UNL     1       4.330   5.375  19.511  0.00  0.00    +0.000 NA
BRANCH  11  12
ATOM     12  C   UNL     1       3.277   4.531  19.930  0.00  0.00    +0.000 A 
ATOM     13  C   UNL     1       2.013   5.100  20.139  0.00  0.00    +0.000 A 
ATOM     14  C   UNL     1       0.929   4.316  20.544  0.00  0.00    +0.000 A 
ATOM     15  C   UNL     1       1.094   2.947  20.740  0.00  0.00    +0.000 A 
ATOM     16  C   UNL     1       2.337   2.360  20.520  0.00  0.00    +0.000 A 
ATOM     17  C   UNL     1       3.420   3.147  20.113  0.00  0.00    +0.000 A 
ENDBRANCH  11  12
ENDBRANCH   6  10
TORSDOF 3
ENDMDL
