MODEL 1
REMARK VINA RESULT:      -7.9      0.000      0.000
REMARK  Name = 
REMARK  6 active torsions:
REMARK  status: ('A' for Active; 'I' for Inactive)
REMARK    1  A    between atoms: C_1  and  C_2
REMARK    2  A    between atoms: C_4  and  C_5
REMARK    3  A    between atoms: C_7  and  O_8
REMARK    4  A    between atoms: O_8  and  C_9
REMARK    5  A    between atoms: C_12  and  C_13
REMARK    6  A    between atoms: N_14  and  O_15
REMARK                            x       y       z     vdW  Elec       q    Type
REMARK                         _______ _______ _______ _____ _____    ______ ____
ROOT
ATOM      1  C   UNL     1       2.627   5.673  18.950  0.00  0.00    +0.000 A 
ATOM      2  C   UNL     1       2.647   6.885  18.276  0.00  0.00    +0.000 A 
ATOM      3  C   UNL     1       2.141   8.015  18.924  0.00  0.00    +0.000 A 
ATOM      4  C   UNL     1       1.606   7.892  20.209  0.00  0.00    +0.000 A 
ATOM      5  C   UNL     1       1.600   6.624  20.783  0.00  0.00    +0.000 A 
ATOM      6  N   UNL     1       2.077   5.514  20.173  0.00  0.00    +0.000 NA
ENDROOT
BRANCH   4   7
ATOM      7  C   UNL     1       1.132   9.063  21.017  0.00  0.00    +0.000 C 
ATOM      8  N   UNL     1       1.349   8.980  22.305  0.00  0.00    +0.000 NA
ATOM      9  N   UNL     1       0.501  10.175  20.410  0.00  0.00    +0.000 N 
ATOM     10  C   UNL     1      -0.284  10.167  19.270  0.00  0.00    +0.000 A 
ATOM     11  C   UNL     1      -0.624  11.474  19.028  0.00  0.00    +0.000 A 
ATOM     12  N   UNL     1      -0.068  12.300  19.962  0.00  0.00    +0.000 NA
ATOM     13  C   UNL     1       0.587  11.502  20.777  0.00  0.00    +0.000 A 
BRANCH   8  14
ATOM     14  O   UNL     1       0.765   9.997  23.061  0.00  0.00    +0.000 OA
ATOM     15  H   UNL     1       1.215  10.800  22.732  0.00  0.00    +0.000 HD
ENDBRANCH   8  14
ENDBRANCH   4   7
BRANCH   1  16
ATOM     16  O   UNL     1       3.210   4.587  18.310  0.00  0.00    +0.000 OA
BRANCH  16  23
ATOM     17  C   UNL     1       7.952   5.728  19.190  0.00  0.00    +0.000 C 
ATOM     18  C   UNL     1       6.866   5.266  18.266  0.00  0.00    +0.000 A 
ATOM     19  C   UNL     1       7.141   4.907  16.940  0.00  0.00    +0.000 A 
ATOM     20  C   UNL     1       6.116   4.468  16.090  0.00  0.00    +0.000 A 
ATOM     21  C   UNL     1       6.411   4.089  14.669  0.00  0.00    +0.000 C 
ATOM     22  C   UNL     1       4.807   4.374  16.585  0.00  0.00    +0.000 A 
ATOM     23  C   UNL     1       4.527   4.700  17.913  0.00  0.00    +0.000 A 
ATOM     24  C   UNL     1       5.550   5.180  18.736  0.00  0.00    +0.000 A 
ENDBRANCH  16  23
ENDBRANCH   1  16
TORSDOF 4
ENDMDL
MODEL 2
REMARK VINA RESULT:      -7.8      4.422      8.570
REMARK  Name = 
REMARK  6 active torsions:
REMARK  status: ('A' for Active; 'I' for Inactive)
REMARK    1  A    between atoms: C_1  and  C_2
REMARK    2  A    between atoms: C_4  and  C_5
REMARK    3  A    between atoms: C_7  and  O_8
REMARK    4  A    between atoms: O_8  and  C_9
REMARK    5  A    between atoms: C_12  and  C_13
REMARK    6  A    between atoms: N_14  and  O_15
REMARK                            x       y       z     vdW  Elec       q    Type
REMARK                         _______ _______ _______ _____ _____    ______ ____
ROOT
ATOM      1  C   UNL     1       5.712   4.154  18.069  0.00  0.00    +0.000 A 
ATOM      2  C   UNL     1       4.807   3.821  17.072  0.00  0.00    +0.000 A 
ATOM      3  C   UNL     1       5.189   4.000  15.739  0.00  0.00    +0.000 A 
ATOM      4  C   UNL     1       6.448   4.532  15.449  0.00  0.00    +0.000 A 
ATOM      5  C   UNL     1       7.267   4.867  16.522  0.00  0.00    +0.000 A 
ATOM      6  N   UNL     1       6.916   4.711  17.820  0.00  0.00    +0.000 NA
ENDROOT
BRANCH   4   7
ATOM      7  C   UNL     1       6.981   4.666  14.053  0.00  0.00    +0.000 C 
ATOM      8  N   UNL     1       7.940   5.542  13.901  0.00  0.00    +0.000 NA
ATOM      9  N   UNL     1       6.470   3.886  12.988  0.00  0.00    +0.000 N 
ATOM     10  C   UNL     1       5.178   3.408  12.850  0.00  0.00    +0.000 A 
ATOM     11  C   UNL     1       5.166   2.658  11.701  0.00  0.00    +0.000 A 
ATOM     12  N   UNL     1       6.403   2.634  11.126  0.00  0.00    +0.000 NA
ATOM     13  C   UNL     1       7.157   3.379  11.904  0.00  0.00    +0.000 A 
BRANCH   8  14
ATOM     14  O   UNL     1       8.316   5.770  12.576  0.00  0.00    +0.000 OA
ATOM     15  H   UNL     1       9.259   5.516  12.569  0.00  0.00    +0.000 HD
ENDBRANCH   8  14
ENDBRANCH   4   7
BRANCH   1  16
ATOM     16  O   UNL     1       5.331   3.889  19.378  0.00  0.00    +0.000 OA
BRANCH  16  23
ATOM     17  C   UNL     1       1.929   7.445  19.963  0.00  0.00    +0.000 C 
ATOM     18  C   UNL     1       2.384   6.027  20.135  0.00  0.00    +0.000 A 
ATOM     19  C   UNL     1       1.555   5.062  20.719  0.00  0.00    +0.000 A 
ATOM     20  C   UNL     1       1.992   3.737  20.866  0.00  0.00    +0.000 A 
ATOM     21  C   UNL     1       1.105   2.704  21.496  0.00  0.00    +0.000 C 
ATOM     22  C   UNL     1       3.267   3.380  20.404  0.00  0.00    +0.000 A 
ATOM     23  C   UNL     1       4.090   4.327  19.792  0.00  0.00    +0.000 A 
ATOM     24  C   UNL     1       3.660   5.654  19.695  0.00  0.00    +0.000 A 
ENDBRANCH  16  23
ENDBRANCH   1  16
TORSDOF 4
ENDMDL
MODEL 3
REMARK VINA RESULT:      -7.8      4.485      8.522
REMARK  Name = 
REMARK  6 active torsions:
REMARK  status: ('A' for Active; 'I' for Inactive)
REMARK    1  A    between atoms: C_1  and  C_2
REMARK    2  A    between atoms: C_4  and  C_5
REMARK    3  A    between atoms: C_7  and  O_8
REMARK    4  A    between atoms: O_8  and  C_9
REMARK    5  A    between atoms: C_12  and  C_13
REMARK    6  A    between atoms: N_14  and  O_15
REMARK                            x       y       z     vdW  Elec       q    Type
REMARK                         _______ _______ _______ _____ _____    ______ ____
ROOT
ATOM      1  C   UNL     1       5.800   4.199  18.164  0.00  0.00    +0.000 A 
ATOM      2  C   UNL     1       4.815   4.101  17.192  0.00  0.00    +0.000 A 
ATOM      3  C   UNL     1       5.178   4.286  15.855  0.00  0.00    +0.000 A 
ATOM      4  C   UNL     1       6.504   4.590  15.537  0.00  0.00    +0.000 A 
ATOM      5  C   UNL     1       7.408   4.702  16.588  0.00  0.00    +0.000 A 
ATOM      6  N   UNL     1       7.079   4.536  17.891  0.00  0.00    +0.000 NA
ENDROOT
BRANCH   4   7
ATOM      7  C   UNL     1       7.004   4.706  14.127  0.00  0.00    +0.000 C 
ATOM      8  N   UNL     1       7.983   5.554  13.948  0.00  0.00    +0.000 NA
ATOM      9  N   UNL     1       6.444   3.938  13.077  0.00  0.00    +0.000 N 
ATOM     10  C   UNL     1       5.136   3.497  12.974  0.00  0.00    +0.000 A 
ATOM     11  C   UNL     1       5.074   2.745  11.828  0.00  0.00    +0.000 A 
ATOM     12  N   UNL     1       6.294   2.686  11.221  0.00  0.00    +0.000 NA
ATOM     13  C   UNL     1       7.088   3.411  11.978  0.00  0.00    +0.000 A 
BRANCH   8  14
ATOM     14  O   UNL     1       8.331   5.770  12.613  0.00  0.00    +0.000 OA
ATOM     15  H   UNL     1       7.657   6.410  12.312  0.00  0.00    +0.000 HD
ENDBRANCH   8  14
ENDBRANCH   4   7
BRANCH   1  16
ATOM     16  O   UNL     1       5.421   3.932  19.473  0.00  0.00    +0.000 OA
BRANCH  16  23
ATOM     17  C   UNL     1       0.971   2.738  21.299  0.00  0.00    +0.000 C 
ATOM     18  C   UNL     1       1.922   3.740  20.718  0.00  0.00    +0.000 A 
ATOM     19  C   UNL     1       1.553   5.080  20.546  0.00  0.00    +0.000 A 
ATOM     20  C   UNL     1       2.457   6.009  20.010  0.00  0.00    +0.000 A 
ATOM     21  C   UNL     1       2.059   7.443  19.822  0.00  0.00    +0.000 C 
ATOM     22  C   UNL     1       3.748   5.587  19.660  0.00  0.00    +0.000 A 
ATOM     23  C   UNL     1       4.137   4.260  19.855  0.00  0.00    +0.000 A 
ATOM     24  C   UNL     1       3.210   3.336  20.348  0.00  0.00    +0.000 A 
ENDBRANCH  16  23
ENDBRANCH   1  16
TORSDOF 4
ENDMDL
MODEL 4
REMARK VINA RESULT:      -7.8      2.380      3.769
REMARK  Name = 
REMARK  6 active torsions:
REMARK  status: ('A' for Active; 'I' for Inactive)
REMARK    1  A    between atoms: C_1  and  C_2
REMARK    2  A    between atoms: C_4  and  C_5
REMARK    3  A    between atoms: C_7  and  O_8
REMARK    4  A    between atoms: O_8  and  C_9
REMARK    5  A    between atoms: C_12  and  C_13
REMARK    6  A    between atoms: N_14  and  O_15
REMARK                            x       y       z     vdW  Elec       q    Type
REMARK                         _______ _______ _______ _____ _____    ______ ____
ROOT
ATOM      1  C   UNL     1       2.109   7.809  19.466  0.00  0.00    +0.000 A 
ATOM      2  C   UNL     1       2.069   8.186  18.132  0.00  0.00    +0.000 A 
ATOM      3  C   UNL     1       1.305   9.302  17.778  0.00  0.00    +0.000 A 
ATOM      4  C   UNL     1       0.586   9.985  18.762  0.00  0.00    +0.000 A 
ATOM      5  C   UNL     1       0.665   9.505  20.065  0.00  0.00    +0.000 A 
ATOM      6  N   UNL     1       1.390   8.422  20.430  0.00  0.00    +0.000 NA
ENDROOT
BRANCH   4   7
ATOM      7  C   UNL     1      -0.178  11.248  18.492  0.00  0.00    +0.000 C 
ATOM      8  N   UNL     1      -1.407  11.082  18.077  0.00  0.00    +0.000 NA
ATOM      9  N   UNL     1       0.407  12.523  18.685  0.00  0.00    +0.000 N 
ATOM     10  C   UNL     1       1.743  12.856  18.541  0.00  0.00    +0.000 A 
ATOM     11  C   UNL     1       1.848  14.180  18.888  0.00  0.00    +0.000 A 
ATOM     12  N   UNL     1       0.634  14.680  19.260  0.00  0.00    +0.000 NA
ATOM     13  C   UNL     1      -0.206  13.678  19.121  0.00  0.00    +0.000 A 
BRANCH   8  14
ATOM     14  O   UNL     1      -2.051  12.254  17.679  0.00  0.00    +0.000 OA
ATOM     15  H   UNL     1      -2.995  12.040  17.811  0.00  0.00    +0.000 HD
ENDBRANCH   8  14
ENDBRANCH   4   7
BRANCH   1  16
ATOM     16  O   UNL     1       2.939   6.746  19.795  0.00  0.00    +0.000 OA
BRANCH  16  23
ATOM     17  C   UNL     1       0.720   2.450  18.707  0.00  0.00    +0.000 C 
ATOM     18  C   UNL     1       1.810   3.455  18.483  0.00  0.00    +0.000 A 
ATOM     19  C   UNL     1       2.776   3.271  17.487  0.00  0.00    +0.000 A 
ATOM     20  C   UNL     1       3.785   4.224  17.283  0.00  0.00    +0.000 A 
ATOM     21  C   UNL     1       4.823   4.023  16.218  0.00  0.00    +0.000 C 
ATOM     22  C   UNL     1       3.809   5.379  18.078  0.00  0.00    +0.000 A 
ATOM     23  C   UNL     1       2.832   5.587  19.053  0.00  0.00    +0.000 A 
ATOM     24  C   UNL     1       1.860   4.607  19.276  0.00  0.00    +0.000 A 
ENDBRANCH  16  23
ENDBRANCH   1  16
TORSDOF 4
ENDMDL
MODEL 5
REMARK VINA RESULT:      -7.8      3.019      8.121
REMARK  Name = 
REMARK  6 active torsions:
REMARK  status: ('A' for Active; 'I' for Inactive)
REMARK    1  A    between atoms: C_1  and  C_2
REMARK    2  A    between atoms: C_4  and  C_5
REMARK    3  A    between atoms: C_7  and  O_8
REMARK    4  A    between atoms: O_8  and  C_9
REMARK    5  A    between atoms: C_12  and  C_13
REMARK    6  A    between atoms: N_14  and  O_15
REMARK                            x       y       z     vdW  Elec       q    Type
REMARK                         _______ _______ _______ _____ _____    ______ ____
ROOT
ATOM      1  C   UNL     1       1.558   9.138  19.274  0.00  0.00    +0.000 A 
ATOM      2  C   UNL     1       1.350   8.369  20.409  0.00  0.00    +0.000 A 
ATOM      3  C   UNL     1       1.888   7.080  20.449  0.00  0.00    +0.000 A 
ATOM      4  C   UNL     1       2.591   6.592  19.344  0.00  0.00    +0.000 A 
ATOM      5  C   UNL     1       2.714   7.430  18.240  0.00  0.00    +0.000 A 
ATOM      6  N   UNL     1       2.194   8.678  18.175  0.00  0.00    +0.000 NA
ENDROOT
BRANCH   4   7
ATOM      7  C   UNL     1       3.288   5.263  19.335  0.00  0.00    +0.000 C 
ATOM      8  N   UNL     1       4.587   5.311  19.477  0.00  0.00    +0.000 NA
ATOM      9  N   UNL     1       2.570   4.052  19.187  0.00  0.00    +0.000 N 
ATOM     10  C   UNL     1       1.394   3.862  18.482  0.00  0.00    +0.000 A 
ATOM     11  C   UNL     1       1.041   2.550  18.669  0.00  0.00    +0.000 A 
ATOM     12  N   UNL     1       1.941   1.918  19.477  0.00  0.00    +0.000 NA
ATOM     13  C   UNL     1       2.844   2.830  19.763  0.00  0.00    +0.000 A 
BRANCH   8  14
ATOM     14  O   UNL     1       5.236   4.087  19.309  0.00  0.00    +0.000 OA
ATOM     15  H   UNL     1       6.180   4.341  19.284  0.00  0.00    +0.000 HD
ENDBRANCH   8  14
ENDBRANCH   4   7
BRANCH   1  16
ATOM     16  O   UNL     1       1.078  10.441  19.299  0.00  0.00    +0.000 OA
BRANCH  16  23
ATOM     17  C   UNL     1      -2.751   9.713  16.238  0.00  0.00    +0.000 C 
ATOM     18  C   UNL     1      -2.143  10.366  17.443  0.00  0.00    +0.000 A 
ATOM     19  C   UNL     1      -2.888  11.225  18.259  0.00  0.00    +0.000 A 
ATOM     20  C   UNL     1      -2.309  11.822  19.389  0.00  0.00    +0.000 A 
ATOM     21  C   UNL     1      -3.106  12.746  20.260  0.00  0.00    +0.000 C 
ATOM     22  C   UNL     1      -0.973  11.535  19.707  0.00  0.00    +0.000 A 
ATOM     23  C   UNL     1      -0.230  10.656  18.917  0.00  0.00    +0.000 A 
ATOM     24  C   UNL     1      -0.807  10.105  17.768  0.00  0.00    +0.000 A 
ENDBRANCH  16  23
ENDBRANCH   1  16
TORSDOF 4
ENDMDL
MODEL 6
REMARK VINA RESULT:      -7.8      2.373      3.783
REMARK  Name = 
REMARK  6 active torsions:
REMARK  status: ('A' for Active; 'I' for Inactive)
REMARK    1  A    between atoms: C_1  and  C_2
REMARK    2  A    between atoms: C_4  and  C_5
REMARK    3  A    between atoms: C_7  and  O_8
REMARK    4  A    between atoms: O_8  and  C_9
REMARK    5  A    between atoms: C_12  and  C_13
REMARK    6  A    between atoms: N_14  and  O_15
REMARK                            x       y       z     vdW  Elec       q    Type
REMARK                         _______ _______ _______ _____ _____    ______ ____
ROOT
ATOM      1  C   UNL     1       2.111   7.767  19.517  0.00  0.00    +0.000 A 
ATOM      2  C   UNL     1       2.112   8.144  18.182  0.00  0.00    +0.000 A 
ATOM      3  C   UNL     1       1.365   9.263  17.805  0.00  0.00    +0.000 A 
ATOM      4  C   UNL     1       0.620   9.950  18.767  0.00  0.00    +0.000 A 
ATOM      5  C   UNL     1       0.658   9.469  20.073  0.00  0.00    +0.000 A 
ATOM      6  N   UNL     1       1.366   8.383  20.460  0.00  0.00    +0.000 NA
ENDROOT
BRANCH   4   7
ATOM      7  C   UNL     1      -0.130  11.216  18.475  0.00  0.00    +0.000 C 
ATOM      8  N   UNL     1      -1.356  11.056  18.049  0.00  0.00    +0.000 NA
ATOM      9  N   UNL     1       0.465  12.488  18.660  0.00  0.00    +0.000 N 
ATOM     10  C   UNL     1       1.805  12.808  18.526  0.00  0.00    +0.000 A 
ATOM     11  C   UNL     1       1.918  14.134  18.859  0.00  0.00    +0.000 A 
ATOM     12  N   UNL     1       0.705  14.650  19.212  0.00  0.00    +0.000 NA
ATOM     13  C   UNL     1      -0.143  13.654  19.076  0.00  0.00    +0.000 A 
BRANCH   8  14
ATOM     14  O   UNL     1      -1.985  12.229  17.631  0.00  0.00    +0.000 OA
ATOM     15  H   UNL     1      -2.796  12.249  18.177  0.00  0.00    +0.000 HD
ENDBRANCH   8  14
ENDBRANCH   4   7
BRANCH   1  16
ATOM     16  O   UNL     1       2.927   6.699  19.871  0.00  0.00    +0.000 OA
BRANCH  16  23
ATOM     17  C   UNL     1       4.839   4.071  16.130  0.00  0.00    +0.000 C 
ATOM     18  C   UNL     1       3.810   4.265  17.202  0.00  0.00    +0.000 A 
ATOM     19  C   UNL     1       2.808   3.314  17.431  0.00  0.00    +0.000 A 
ATOM     20  C   UNL     1       1.857   3.504  18.444  0.00  0.00    +0.000 A 
ATOM     21  C   UNL     1       0.782   2.487  18.685  0.00  0.00    +0.000 C 
ATOM     22  C   UNL     1       1.928   4.655  19.244  0.00  0.00    +0.000 A 
ATOM     23  C   UNL     1       2.941   5.594  19.045  0.00  0.00    +0.000 A 
ATOM     24  C   UNL     1       3.854   5.414  18.001  0.00  0.00    +0.000 A 
ENDBRANCH  16  23
ENDBRANCH   1  16
TORSDOF 4
ENDMDL
MODEL 7
REMARK VINA RESULT:      -7.7      3.122      7.865
REMARK  Name = 
REMARK  6 active torsions:
REMARK  status: ('A' for Active; 'I' for Inactive)
REMARK    1  A    between atoms: C_1  and  C_2
REMARK    2  A    between atoms: C_4  and  C_5
REMARK    3  A    between atoms: C_7  and  O_8
REMARK    4  A    between atoms: O_8  and  C_9
REMARK    5  A    between atoms: C_12  and  C_13
REMARK    6  A    between atoms: N_14  and  O_15
REMARK                            x       y       z     vdW  Elec       q    Type
REMARK                         _______ _______ _______ _____ _____    ______ ____
ROOT
ATOM      1  C   UNL     1       1.834   9.191  18.617  0.00  0.00    +0.000 A 
ATOM      2  C   UNL     1       1.549   8.558  19.817  0.00  0.00    +0.000 A 
ATOM      3  C   UNL     1       2.023   7.258  20.014  0.00  0.00    +0.000 A 
ATOM      4  C   UNL     1       2.741   6.624  18.995  0.00  0.00    +0.000 A 
ATOM      5  C   UNL     1       2.942   7.333  17.815  0.00  0.00    +0.000 A 
ATOM      6  N   UNL     1       2.486   8.589  17.598  0.00  0.00    +0.000 NA
ENDROOT
BRANCH   4   7
ATOM      7  C   UNL     1       3.372   5.273  19.154  0.00  0.00    +0.000 C 
ATOM      8  N   UNL     1       4.666   5.278  19.347  0.00  0.00    +0.000 NA
ATOM      9  N   UNL     1       2.603   4.086  19.100  0.00  0.00    +0.000 N 
ATOM     10  C   UNL     1       1.448   3.874  18.366  0.00  0.00    +0.000 A 
ATOM     11  C   UNL     1       1.026   2.605  18.672  0.00  0.00    +0.000 A 
ATOM     12  N   UNL     1       1.861   2.023  19.580  0.00  0.00    +0.000 NA
ATOM     13  C   UNL     1       2.795   2.919  19.810  0.00  0.00    +0.000 A 
BRANCH   8  14
ATOM     14  O   UNL     1       5.262   4.016  19.334  0.00  0.00    +0.000 OA
ATOM     15  H   UNL     1       6.168   4.199  19.650  0.00  0.00    +0.000 HD
ENDBRANCH   8  14
ENDBRANCH   4   7
BRANCH   1  16
ATOM     16  O   UNL     1       1.417  10.509  18.485  0.00  0.00    +0.000 OA
BRANCH  16  23
ATOM     17  C   UNL     1      -2.500  12.647  20.641  0.00  0.00    +0.000 C 
ATOM     18  C   UNL     1      -1.906  11.766  19.583  0.00  0.00    +0.000 A 
ATOM     19  C   UNL     1      -2.703  11.170  18.599  0.00  0.00    +0.000 A 
ATOM     20  C   UNL     1      -2.133  10.356  17.610  0.00  0.00    +0.000 A 
ATOM     21  C   UNL     1      -2.989   9.714  16.559  0.00  0.00    +0.000 C 
ATOM     22  C   UNL     1      -0.744  10.156  17.604  0.00  0.00    +0.000 A 
ATOM     23  C   UNL     1       0.064  10.770  18.562  0.00  0.00    +0.000 A 
ATOM     24  C   UNL     1      -0.524  11.542  19.569  0.00  0.00    +0.000 A 
ENDBRANCH  16  23
ENDBRANCH   1  16
TORSDOF 4
ENDMDL
MODEL 8
REMARK VINA RESULT:      -7.6      0.656      1.040
REMARK  Name = 
REMARK  6 active torsions:
REMARK  status: ('A' for Active; 'I' for Inactive)
REMARK    1  A    between atoms: C_1  and  C_2
REMARK    2  A    between atoms: C_4  and  C_5
REMARK    3  A    between atoms: C_7  and  O_8
REMARK    4  A    between atoms: O_8  and  C_9
REMARK    5  A    between atoms: C_12  and  C_13
REMARK    6  A    between atoms: N_14  and  O_15
REMARK                            x       y       z     vdW  Elec       q    Type
REMARK                         _______ _______ _______ _____ _____    ______ ____
ROOT
ATOM      1  C   UNL     1       2.628   5.907  18.805  0.00  0.00    +0.000 A 
ATOM      2  C   UNL     1       2.124   5.584  20.057  0.00  0.00    +0.000 A 
ATOM      3  C   UNL     1       1.597   6.609  20.847  0.00  0.00    +0.000 A 
ATOM      4  C   UNL     1       1.617   7.924  20.374  0.00  0.00    +0.000 A 
ATOM      5  C   UNL     1       2.177   8.147  19.121  0.00  0.00    +0.000 A 
ATOM      6  N   UNL     1       2.701   7.173  18.341  0.00  0.00    +0.000 NA
ENDROOT
BRANCH   4   7
ATOM      7  C   UNL     1       0.985   9.069  21.108  0.00  0.00    +0.000 C 
ATOM      8  N   UNL     1       1.158   9.068  22.405  0.00  0.00    +0.000 NA
ATOM      9  N   UNL     1       0.260  10.076  20.426  0.00  0.00    +0.000 N 
ATOM     10  C   UNL     1      -0.473   9.930  19.261  0.00  0.00    +0.000 A 
ATOM     11  C   UNL     1      -0.945  11.179  18.944  0.00  0.00    +0.000 A 
ATOM     12  N   UNL     1      -0.521  12.101  19.856  0.00  0.00    +0.000 NA
ATOM     13  C   UNL     1       0.184  11.419  20.731  0.00  0.00    +0.000 A 
BRANCH   8  14
ATOM     14  O   UNL     1       0.436  10.046  23.090  0.00  0.00    +0.000 OA
ATOM     15  H   UNL     1      -0.099  10.458  22.384  0.00  0.00    +0.000 HD
ENDBRANCH   8  14
ENDBRANCH   4   7
BRANCH   1  16
ATOM     16  O   UNL     1       3.071   4.855  18.014  0.00  0.00    +0.000 OA
BRANCH  16  23
ATOM     17  C   UNL     1       7.874   5.608  18.975  0.00  0.00    +0.000 C 
ATOM     18  C   UNL     1       6.772   5.208  18.040  0.00  0.00    +0.000 A 
ATOM     19  C   UNL     1       7.044   4.777  16.736  0.00  0.00    +0.000 A 
ATOM     20  C   UNL     1       6.004   4.397  15.876  0.00  0.00    +0.000 A 
ATOM     21  C   UNL     1       6.297   3.940  14.477  0.00  0.00    +0.000 C 
ATOM     22  C   UNL     1       4.681   4.438  16.339  0.00  0.00    +0.000 A 
ATOM     23  C   UNL     1       4.401   4.836  17.647  0.00  0.00    +0.000 A 
ATOM     24  C   UNL     1       5.444   5.256  18.479  0.00  0.00    +0.000 A 
ENDBRANCH  16  23
ENDBRANCH   1  16
TORSDOF 4
ENDMDL
MODEL 9
REMARK VINA RESULT:      -7.6      1.148      1.493
REMARK  Name = 
REMARK  6 active torsions:
REMARK  status: ('A' for Active; 'I' for Inactive)
REMARK    1  A    between atoms: C_1  and  C_2
REMARK    2  A    between atoms: C_4  and  C_5
REMARK    3  A    between atoms: C_7  and  O_8
REMARK    4  A    between atoms: O_8  and  C_9
REMARK    5  A    between atoms: C_12  and  C_13
REMARK    6  A    between atoms: N_14  and  O_15
REMARK                            x       y       z     vdW  Elec       q    Type
REMARK                         _______ _______ _______ _____ _____    ______ ____
ROOT
ATOM      1  C   UNL     1       2.455   6.417  19.049  0.00  0.00    +0.000 A 
ATOM      2  C   UNL     1       1.971   6.476  20.348  0.00  0.00    +0.000 A 
ATOM      3  C   UNL     1       1.430   7.682  20.803  0.00  0.00    +0.000 A 
ATOM      4  C   UNL     1       1.415   8.794  19.957  0.00  0.00    +0.000 A 
ATOM      5  C   UNL     1       1.957   8.640  18.684  0.00  0.00    +0.000 A 
ATOM      6  N   UNL     1       2.495   7.486  18.225  0.00  0.00    +0.000 NA
ENDROOT
BRANCH   4   7
ATOM      7  C   UNL     1       0.766  10.096  20.323  0.00  0.00    +0.000 C 
ATOM      8  N   UNL     1       1.106  10.583  21.488  0.00  0.00    +0.000 NA
ATOM      9  N   UNL     1      -0.145  10.740  19.451  0.00  0.00    +0.000 N 
ATOM     10  C   UNL     1      -1.003  10.135  18.549  0.00  0.00    +0.000 A 
ATOM     11  C   UNL     1      -1.643  11.152  17.887  0.00  0.00    +0.000 A 
ATOM     12  N   UNL     1      -1.205  12.367  18.327  0.00  0.00    +0.000 NA
ATOM     13  C   UNL     1      -0.323  12.094  19.263  0.00  0.00    +0.000 A 
BRANCH   8  14
ATOM     14  O   UNL     1       0.378  11.706  21.884  0.00  0.00    +0.000 OA
ATOM     15  H   UNL     1       1.058  12.272  22.299  0.00  0.00    +0.000 HD
ENDBRANCH   8  14
ENDBRANCH   4   7
BRANCH   1  16
ATOM     16  O   UNL     1       2.913   5.184  18.603  0.00  0.00    +0.000 OA
BRANCH  16  23
ATOM     17  C   UNL     1       7.784   5.722  19.342  0.00  0.00    +0.000 C 
ATOM     18  C   UNL     1       6.624   5.359  18.463  0.00  0.00    +0.000 A 
ATOM     19  C   UNL     1       6.818   4.892  17.158  0.00  0.00    +0.000 A 
ATOM     20  C   UNL     1       5.725   4.547  16.350  0.00  0.00    +0.000 A 
ATOM     21  C   UNL     1       5.933   4.051  14.950  0.00  0.00    +0.000 C 
ATOM     22  C   UNL     1       4.426   4.660  16.870  0.00  0.00    +0.000 A 
ATOM     23  C   UNL     1       4.223   5.095  18.180  0.00  0.00    +0.000 A 
ATOM     24  C   UNL     1       5.320   5.479  18.958  0.00  0.00    +0.000 A 
ENDBRANCH  16  23
ENDBRANCH   1  16
TORSDOF 4
ENDMDL
