MODEL 1
REMARK VINA RESULT:      -8.1      0.000      0.000
REMARK  Name = 
REMARK  8 active torsions:
REMARK  status: ('A' for Active; 'I' for Inactive)
REMARK    1  A    between atoms: C_1  and  O_2
REMARK    2  A    between atoms: O_2  and  C_3
REMARK    3  A    between atoms: C_6  and  C_7
REMARK    4  A    between atoms: C_7  and  N_8
REMARK    5  A    between atoms: C_9  and  C_11
REMARK    6  A    between atoms: C_16  and  C_17
REMARK    7  A    between atoms: C_23  and  O_24
REMARK    8  A    between atoms: O_24  and  C_25
REMARK                            x       y       z     vdW  Elec       q    Type
REMARK                         _______ _______ _______ _____ _____    ______ ____
ROOT
ATOM      1  N   UNL     1       2.171   6.917  20.084  0.00  0.00    +0.000 N 
ATOM      2  C   UNL     1       2.379   5.862  19.218  0.00  0.00    +0.000 C 
ATOM      3  O   UNL     1       2.251   5.956  18.003  0.00  0.00    +0.000 OA
ATOM      4  H   UNL     1       2.218   6.770  21.080  0.00  0.00    +0.000 HD
ENDROOT
BRANCH   2   5
ATOM      5  C   UNL     1       2.775   4.563  19.863  0.00  0.00    +0.000 A 
ATOM      6  C   UNL     1       1.945   4.126  20.925  0.00  0.00    +0.000 A 
ATOM      7  C   UNL     1       2.191   2.933  21.595  0.00  0.00    +0.000 A 
ATOM      8  C   UNL     1       3.260   2.144  21.209  0.00  0.00    +0.000 A 
ATOM      9  C   UNL     1       4.084   2.560  20.160  0.00  0.00    +0.000 A 
ATOM     10  C   UNL     1       3.874   3.766  19.442  0.00  0.00    +0.000 A 
BRANCH  10  11
ATOM     11  C   UNL     1       4.833   4.088  18.337  0.00  0.00    +0.000 A 
ATOM     12  C   UNL     1       6.009   4.832  18.596  0.00  0.00    +0.000 A 
ATOM     13  C   UNL     1       6.907   5.187  17.583  0.00  0.00    +0.000 A 
ATOM     14  C   UNL     1       6.671   4.781  16.275  0.00  0.00    +0.000 A 
ATOM     15  C   UNL     1       5.525   4.050  15.985  0.00  0.00    +0.000 A 
ATOM     16  C   UNL     1       4.608   3.734  16.998  0.00  0.00    +0.000 A 
ENDBRANCH  10  11
ENDBRANCH   2   5
BRANCH   1  17
ATOM     17  C   UNL     1       1.912   8.283  19.645  0.00  0.00    +0.000 C 
BRANCH  17  21
ATOM     18  C   UNL     1      -0.492  10.573  22.453  0.00  0.00    +0.000 A 
ATOM     19  C   UNL     1       0.259   9.492  22.896  0.00  0.00    +0.000 A 
ATOM     20  C   UNL     1       1.038   8.758  22.002  0.00  0.00    +0.000 A 
ATOM     21  C   UNL     1       1.071   9.078  20.631  0.00  0.00    +0.000 A 
ATOM     22  C   UNL     1       0.306  10.177  20.186  0.00  0.00    +0.000 A 
ATOM     23  C   UNL     1      -0.461  10.916  21.103  0.00  0.00    +0.000 A 
BRANCH  18  25
ATOM     24  C   UNL     1      -2.061  12.273  23.005  0.00  0.00    +0.000 C 
ATOM     25  O   UNL     1      -1.208  11.217  23.428  0.00  0.00    +0.000 OA
ENDBRANCH  18  25
BRANCH  22  26
ATOM     26  O   UNL     1       0.363  10.456  18.842  0.00  0.00    +0.000 OA
ATOM     27  C   UNL     1      -0.834  10.265  18.088  0.00  0.00    +0.000 C 
ENDBRANCH  22  26
ENDBRANCH  17  21
ENDBRANCH   1  17
TORSDOF 6
ENDMDL
MODEL 2
REMARK VINA RESULT:      -8.0      1.640      1.827
REMARK  Name = 
REMARK  8 active torsions:
REMARK  status: ('A' for Active; 'I' for Inactive)
REMARK    1  A    between atoms: C_1  and  O_2
REMARK    2  A    between atoms: O_2  and  C_3
REMARK    3  A    between atoms: C_6  and  C_7
REMARK    4  A    between atoms: C_7  and  N_8
REMARK    5  A    between atoms: C_9  and  C_11
REMARK    6  A    between atoms: C_16  and  C_17
REMARK    7  A    between atoms: C_23  and  O_24
REMARK    8  A    between atoms: O_24  and  C_25
REMARK                            x       y       z     vdW  Elec       q    Type
REMARK                         _______ _______ _______ _____ _____    ______ ____
ROOT
ATOM      1  N   UNL     1       2.011   7.141  18.016  0.00  0.00    +0.000 N 
ATOM      2  C   UNL     1       3.064   6.314  18.351  0.00  0.00    +0.000 C 
ATOM      3  O   UNL     1       4.170   6.732  18.674  0.00  0.00    +0.000 OA
ATOM      4  H   UNL     1       1.144   6.746  17.687  0.00  0.00    +0.000 HD
ENDROOT
BRANCH   2   5
ATOM      5  C   UNL     1       2.775   4.839  18.291  0.00  0.00    +0.000 A 
ATOM      6  C   UNL     1       1.610   4.413  18.975  0.00  0.00    +0.000 A 
ATOM      7  C   UNL     1       1.221   3.078  18.984  0.00  0.00    +0.000 A 
ATOM      8  C   UNL     1       1.978   2.145  18.299  0.00  0.00    +0.000 A 
ATOM      9  C   UNL     1       3.127   2.551  17.615  0.00  0.00    +0.000 A 
ATOM     10  C   UNL     1       3.565   3.900  17.572  0.00  0.00    +0.000 A 
BRANCH  10  11
ATOM     11  C   UNL     1       4.813   4.197  16.799  0.00  0.00    +0.000 A 
ATOM     12  C   UNL     1       6.063   4.297  17.458  0.00  0.00    +0.000 A 
ATOM     13  C   UNL     1       7.244   4.612  16.775  0.00  0.00    +0.000 A 
ATOM     14  C   UNL     1       7.217   4.811  15.401  0.00  0.00    +0.000 A 
ATOM     15  C   UNL     1       6.006   4.722  14.722  0.00  0.00    +0.000 A 
ATOM     16  C   UNL     1       4.820   4.447  15.418  0.00  0.00    +0.000 A 
ENDBRANCH  10  11
ENDBRANCH   2   5
BRANCH   1  17
ATOM     17  C   UNL     1       2.053   8.593  18.140  0.00  0.00    +0.000 C 
BRANCH  17  21
ATOM     18  C   UNL     1       0.416  10.054  21.894  0.00  0.00    +0.000 A 
ATOM     19  C   UNL     1       0.837   8.734  21.782  0.00  0.00    +0.000 A 
ATOM     20  C   UNL     1       1.370   8.261  20.583  0.00  0.00    +0.000 A 
ATOM     21  C   UNL     1       1.479   9.097  19.455  0.00  0.00    +0.000 A 
ATOM     22  C   UNL     1       1.051  10.435  19.574  0.00  0.00    +0.000 A 
ATOM     23  C   UNL     1       0.530  10.901  20.794  0.00  0.00    +0.000 A 
BRANCH  18  25
ATOM     24  C   UNL     1      -1.333  11.069  23.144  0.00  0.00    +0.000 C 
ATOM     25  O   UNL     1      -0.080  10.398  23.124  0.00  0.00    +0.000 OA
ENDBRANCH  18  25
BRANCH  22  26
ATOM     26  O   UNL     1       1.172  11.218  18.451  0.00  0.00    +0.000 OA
ATOM     27  C   UNL     1       1.746  12.514  18.622  0.00  0.00    +0.000 C 
ENDBRANCH  22  26
ENDBRANCH  17  21
ENDBRANCH   1  17
TORSDOF 6
ENDMDL
MODEL 3
REMARK VINA RESULT:      -7.9      0.625      1.167
REMARK  Name = 
REMARK  8 active torsions:
REMARK  status: ('A' for Active; 'I' for Inactive)
REMARK    1  A    between atoms: C_1  and  O_2
REMARK    2  A    between atoms: O_2  and  C_3
REMARK    3  A    between atoms: C_6  and  C_7
REMARK    4  A    between atoms: C_7  and  N_8
REMARK    5  A    between atoms: C_9  and  C_11
REMARK    6  A    between atoms: C_16  and  C_17
REMARK    7  A    between atoms: C_23  and  O_24
REMARK    8  A    between atoms: O_24  and  C_25
REMARK                            x       y       z     vdW  Elec       q    Type
REMARK                         _______ _______ _______ _____ _____    ______ ____
ROOT
ATOM      1  N   UNL     1       2.324   6.823  19.969  0.00  0.00    +0.000 N 
ATOM      2  C   UNL     1       2.309   5.694  19.174  0.00  0.00    +0.000 C 
ATOM      3  O   UNL     1       1.923   5.697  18.011  0.00  0.00    +0.000 OA
ATOM      4  H   UNL     1       2.581   6.753  20.940  0.00  0.00    +0.000 HD
ENDROOT
BRANCH   2   5
ATOM      5  C   UNL     1       2.797   4.432  19.830  0.00  0.00    +0.000 A 
ATOM      6  C   UNL     1       1.972   3.916  20.859  0.00  0.00    +0.000 A 
ATOM      7  C   UNL     1       2.301   2.746  21.536  0.00  0.00    +0.000 A 
ATOM      8  C   UNL     1       3.451   2.061  21.188  0.00  0.00    +0.000 A 
ATOM      9  C   UNL     1       4.272   2.555  20.172  0.00  0.00    +0.000 A 
ATOM     10  C   UNL     1       3.980   3.741  19.449  0.00  0.00    +0.000 A 
BRANCH  10  11
ATOM     11  C   UNL     1       4.946   4.156  18.381  0.00  0.00    +0.000 A 
ATOM     12  C   UNL     1       4.689   3.856  17.022  0.00  0.00    +0.000 A 
ATOM     13  C   UNL     1       5.586   4.191  16.000  0.00  0.00    +0.000 A 
ATOM     14  C   UNL     1       6.762   4.866  16.306  0.00  0.00    +0.000 A 
ATOM     15  C   UNL     1       7.046   5.174  17.631  0.00  0.00    +0.000 A 
ATOM     16  C   UNL     1       6.163   4.799  18.654  0.00  0.00    +0.000 A 
ENDBRANCH  10  11
ENDBRANCH   2   5
BRANCH   1  17
ATOM     17  C   UNL     1       2.016   8.161  19.478  0.00  0.00    +0.000 C 
BRANCH  17  21
ATOM     18  C   UNL     1      -0.246  10.561  22.312  0.00  0.00    +0.000 A 
ATOM     19  C   UNL     1       0.187   9.289  22.664  0.00  0.00    +0.000 A 
ATOM     20  C   UNL     1       0.920   8.516  21.762  0.00  0.00    +0.000 A 
ATOM     21  C   UNL     1       1.223   8.994  20.473  0.00  0.00    +0.000 A 
ATOM     22  C   UNL     1       0.780  10.286  20.120  0.00  0.00    +0.000 A 
ATOM     23  C   UNL     1       0.056  11.057  21.046  0.00  0.00    +0.000 A 
BRANCH  18  25
ATOM     24  C   UNL     1      -1.360  12.548  22.990  0.00  0.00    +0.000 C 
ATOM     25  O   UNL     1      -0.948  11.221  23.286  0.00  0.00    +0.000 OA
ENDBRANCH  18  25
BRANCH  22  26
ATOM     26  O   UNL     1       1.094  10.715  18.853  0.00  0.00    +0.000 OA
ATOM     27  C   UNL     1       1.662  12.019  18.732  0.00  0.00    +0.000 C 
ENDBRANCH  22  26
ENDBRANCH  17  21
ENDBRANCH   1  17
TORSDOF 6
ENDMDL
MODEL 4
REMARK VINA RESULT:      -7.9      1.464      1.771
REMARK  Name = 
REMARK  8 active torsions:
REMARK  status: ('A' for Active; 'I' for Inactive)
REMARK    1  A    between atoms: C_1  and  O_2
REMARK    2  A    between atoms: O_2  and  C_3
REMARK    3  A    between atoms: C_6  and  C_7
REMARK    4  A    between atoms: C_7  and  N_8
REMARK    5  A    between atoms: C_9  and  C_11
REMARK    6  A    between atoms: C_16  and  C_17
REMARK    7  A    between atoms: C_23  and  O_24
REMARK    8  A    between atoms: O_24  and  C_25
REMARK                            x       y       z     vdW  Elec       q    Type
REMARK                         _______ _______ _______ _____ _____    ______ ____
ROOT
ATOM      1  N   UNL     1       1.857   7.178  18.430  0.00  0.00    +0.000 N 
ATOM      2  C   UNL     1       2.970   6.410  18.150  0.00  0.00    +0.000 C 
ATOM      3  O   UNL     1       4.062   6.889  17.866  0.00  0.00    +0.000 OA
ATOM      4  H   UNL     1       0.966   6.736  18.586  0.00  0.00    +0.000 HD
ENDROOT
BRANCH   2   5
ATOM      5  C   UNL     1       2.763   4.922  18.209  0.00  0.00    +0.000 A 
ATOM      6  C   UNL     1       1.586   4.491  18.870  0.00  0.00    +0.000 A 
ATOM      7  C   UNL     1       1.268   3.142  18.979  0.00  0.00    +0.000 A 
ATOM      8  C   UNL     1       2.108   2.197  18.419  0.00  0.00    +0.000 A 
ATOM      9  C   UNL     1       3.270   2.608  17.759  0.00  0.00    +0.000 A 
ATOM     10  C   UNL     1       3.638   3.970  17.617  0.00  0.00    +0.000 A 
BRANCH  10  11
ATOM     11  C   UNL     1       4.909   4.270  16.882  0.00  0.00    +0.000 A 
ATOM     12  C   UNL     1       4.909   4.425  15.475  0.00  0.00    +0.000 A 
ATOM     13  C   UNL     1       6.082   4.665  14.750  0.00  0.00    +0.000 A 
ATOM     14  C   UNL     1       7.295   4.787  15.416  0.00  0.00    +0.000 A 
ATOM     15  C   UNL     1       7.332   4.638  16.798  0.00  0.00    +0.000 A 
ATOM     16  C   UNL     1       6.159   4.356  17.514  0.00  0.00    +0.000 A 
ENDBRANCH  10  11
ENDBRANCH   2   5
BRANCH   1  17
ATOM     17  C   UNL     1       1.889   8.630  18.554  0.00  0.00    +0.000 C 
BRANCH  17  21
ATOM     18  C   UNL     1      -0.134  10.103  22.110  0.00  0.00    +0.000 A 
ATOM     19  C   UNL     1       0.799   9.078  22.211  0.00  0.00    +0.000 A 
ATOM     20  C   UNL     1       1.457   8.606  21.075  0.00  0.00    +0.000 A 
ATOM     21  C   UNL     1       1.183   9.139  19.801  0.00  0.00    +0.000 A 
ATOM     22  C   UNL     1       0.235  10.179  19.704  0.00  0.00    +0.000 A 
ATOM     23  C   UNL     1      -0.408  10.654  20.860  0.00  0.00    +0.000 A 
BRANCH  18  25
ATOM     24  C   UNL     1      -1.732  11.461  23.229  0.00  0.00    +0.000 C 
ATOM     25  O   UNL     1      -0.704  10.482  23.297  0.00  0.00    +0.000 OA
ENDBRANCH  18  25
BRANCH  22  26
ATOM     26  O   UNL     1      -0.006  10.670  18.443  0.00  0.00    +0.000 OA
ATOM     27  C   UNL     1      -1.311  11.191  18.189  0.00  0.00    +0.000 C 
ENDBRANCH  22  26
ENDBRANCH  17  21
ENDBRANCH   1  17
TORSDOF 6
ENDMDL
MODEL 5
REMARK VINA RESULT:      -7.8      2.581      3.442
REMARK  Name = 
REMARK  8 active torsions:
REMARK  status: ('A' for Active; 'I' for Inactive)
REMARK    1  A    between atoms: C_1  and  O_2
REMARK    2  A    between atoms: O_2  and  C_3
REMARK    3  A    between atoms: C_6  and  C_7
REMARK    4  A    between atoms: C_7  and  N_8
REMARK    5  A    between atoms: C_9  and  C_11
REMARK    6  A    between atoms: C_16  and  C_17
REMARK    7  A    between atoms: C_23  and  O_24
REMARK    8  A    between atoms: O_24  and  C_25
REMARK                            x       y       z     vdW  Elec       q    Type
REMARK                         _______ _______ _______ _____ _____    ______ ____
ROOT
ATOM      1  N   UNL     1       2.462   8.171  17.873  0.00  0.00    +0.000 N 
ATOM      2  C   UNL     1       2.544   7.163  18.813  0.00  0.00    +0.000 C 
ATOM      3  O   UNL     1       2.527   7.369  20.021  0.00  0.00    +0.000 OA
ATOM      4  H   UNL     1       2.554   7.956  16.893  0.00  0.00    +0.000 HD
ENDROOT
BRANCH   2   5
ATOM      5  C   UNL     1       2.663   5.770  18.260  0.00  0.00    +0.000 A 
ATOM      6  C   UNL     1       1.441   5.088  18.043  0.00  0.00    +0.000 A 
ATOM      7  C   UNL     1       1.410   3.800  17.521  0.00  0.00    +0.000 A 
ATOM      8  C   UNL     1       2.598   3.172  17.191  0.00  0.00    +0.000 A 
ATOM      9  C   UNL     1       3.812   3.834  17.395  0.00  0.00    +0.000 A 
ATOM     10  C   UNL     1       3.897   5.149  17.921  0.00  0.00    +0.000 A 
BRANCH  10  11
ATOM     11  C   UNL     1       5.263   5.741  18.085  0.00  0.00    +0.000 A 
ATOM     12  C   UNL     1       5.722   6.749  17.203  0.00  0.00    +0.000 A 
ATOM     13  C   UNL     1       7.007   7.297  17.299  0.00  0.00    +0.000 A 
ATOM     14  C   UNL     1       7.867   6.873  18.304  0.00  0.00    +0.000 A 
ATOM     15  C   UNL     1       7.449   5.882  19.186  0.00  0.00    +0.000 A 
ATOM     16  C   UNL     1       6.176   5.308  19.058  0.00  0.00    +0.000 A 
ENDBRANCH  10  11
ENDBRANCH   2   5
BRANCH   1  17
ATOM     17  C   UNL     1       2.210   9.568  18.206  0.00  0.00    +0.000 C 
BRANCH  17  21
ATOM     18  C   UNL     1      -2.021  10.558  18.369  0.00  0.00    +0.000 A 
ATOM     19  C   UNL     1      -1.530   9.756  17.346  0.00  0.00    +0.000 A 
ATOM     20  C   UNL     1      -0.175   9.428  17.292  0.00  0.00    +0.000 A 
ATOM     21  C   UNL     1       0.730   9.912  18.256  0.00  0.00    +0.000 A 
ATOM     22  C   UNL     1       0.227  10.727  19.292  0.00  0.00    +0.000 A 
ATOM     23  C   UNL     1      -1.144  11.035  19.341  0.00  0.00    +0.000 A 
BRANCH  18  25
ATOM     24  C   UNL     1      -3.895  11.213  17.062  0.00  0.00    +0.000 C 
ATOM     25  O   UNL     1      -3.369  10.800  18.315  0.00  0.00    +0.000 OA
ENDBRANCH  18  25
BRANCH  22  26
ATOM     26  O   UNL     1       1.141  11.181  20.212  0.00  0.00    +0.000 OA
ATOM     27  C   UNL     1       0.911  12.474  20.772  0.00  0.00    +0.000 C 
ENDBRANCH  22  26
ENDBRANCH  17  21
ENDBRANCH   1  17
TORSDOF 6
ENDMDL
MODEL 6
REMARK VINA RESULT:      -7.7      1.449      2.341
REMARK  Name = 
REMARK  8 active torsions:
REMARK  status: ('A' for Active; 'I' for Inactive)
REMARK    1  A    between atoms: C_1  and  O_2
REMARK    2  A    between atoms: O_2  and  C_3
REMARK    3  A    between atoms: C_6  and  C_7
REMARK    4  A    between atoms: C_7  and  N_8
REMARK    5  A    between atoms: C_9  and  C_11
REMARK    6  A    between atoms: C_16  and  C_17
REMARK    7  A    between atoms: C_23  and  O_24
REMARK    8  A    between atoms: O_24  and  C_25
REMARK                            x       y       z     vdW  Elec       q    Type
REMARK                         _______ _______ _______ _____ _____    ______ ____
ROOT
ATOM      1  N   UNL     1       2.481   7.180  19.213  0.00  0.00    +0.000 N 
ATOM      2  C   UNL     1       2.191   5.957  18.643  0.00  0.00    +0.000 C 
ATOM      3  O   UNL     1       1.748   5.834  17.507  0.00  0.00    +0.000 OA
ATOM      4  H   UNL     1       2.774   7.232  20.176  0.00  0.00    +0.000 HD
ENDROOT
BRANCH   2   5
ATOM      5  C   UNL     1       2.450   4.758  19.513  0.00  0.00    +0.000 A 
ATOM      6  C   UNL     1       1.450   4.469  20.474  0.00  0.00    +0.000 A 
ATOM      7  C   UNL     1       1.559   3.378  21.330  0.00  0.00    +0.000 A 
ATOM      8  C   UNL     1       2.661   2.547  21.234  0.00  0.00    +0.000 A 
ATOM      9  C   UNL     1       3.653   2.817  20.288  0.00  0.00    +0.000 A 
ATOM     10  C   UNL     1       3.587   3.913  19.389  0.00  0.00    +0.000 A 
BRANCH  10  11
ATOM     11  C   UNL     1       4.719   4.083  18.423  0.00  0.00    +0.000 A 
ATOM     12  C   UNL     1       5.947   4.649  18.843  0.00  0.00    +0.000 A 
ATOM     13  C   UNL     1       7.013   4.861  17.961  0.00  0.00    +0.000 A 
ATOM     14  C   UNL     1       6.894   4.485  16.628  0.00  0.00    +0.000 A 
ATOM     15  C   UNL     1       5.700   3.928  16.181  0.00  0.00    +0.000 A 
ATOM     16  C   UNL     1       4.622   3.757  17.062  0.00  0.00    +0.000 A 
ENDBRANCH  10  11
ENDBRANCH   2   5
BRANCH   1  17
ATOM     17  C   UNL     1       2.423   8.444  18.488  0.00  0.00    +0.000 C 
BRANCH  17  21
ATOM     18  C   UNL     1      -1.214  10.688  19.289  0.00  0.00    +0.000 A 
ATOM     19  C   UNL     1      -0.844  10.402  17.981  0.00  0.00    +0.000 A 
ATOM     20  C   UNL     1       0.318   9.676  17.717  0.00  0.00    +0.000 A 
ATOM     21  C   UNL     1       1.151   9.231  18.761  0.00  0.00    +0.000 A 
ATOM     22  C   UNL     1       0.771   9.525  20.087  0.00  0.00    +0.000 A 
ATOM     23  C   UNL     1      -0.411  10.244  20.337  0.00  0.00    +0.000 A 
BRANCH  18  25
ATOM     24  C   UNL     1      -3.208  11.481  18.265  0.00  0.00    +0.000 C 
ATOM     25  O   UNL     1      -2.378  11.400  19.416  0.00  0.00    +0.000 OA
ENDBRANCH  18  25
BRANCH  22  26
ATOM     26  O   UNL     1       1.611   9.076  21.078  0.00  0.00    +0.000 OA
ATOM     27  C   UNL     1       1.138   9.169  22.422  0.00  0.00    +0.000 C 
ENDBRANCH  22  26
ENDBRANCH  17  21
ENDBRANCH   1  17
TORSDOF 6
ENDMDL
MODEL 7
REMARK VINA RESULT:      -7.7      1.595      3.509
REMARK  Name = 
REMARK  8 active torsions:
REMARK  status: ('A' for Active; 'I' for Inactive)
REMARK    1  A    between atoms: C_1  and  O_2
REMARK    2  A    between atoms: O_2  and  C_3
REMARK    3  A    between atoms: C_6  and  C_7
REMARK    4  A    between atoms: C_7  and  N_8
REMARK    5  A    between atoms: C_9  and  C_11
REMARK    6  A    between atoms: C_16  and  C_17
REMARK    7  A    between atoms: C_23  and  O_24
REMARK    8  A    between atoms: O_24  and  C_25
REMARK                            x       y       z     vdW  Elec       q    Type
REMARK                         _______ _______ _______ _____ _____    ______ ____
ROOT
ATOM      1  N   UNL     1       2.894   7.792  18.334  0.00  0.00    +0.000 N 
ATOM      2  C   UNL     1       3.729   7.395  17.309  0.00  0.00    +0.000 C 
ATOM      3  O   UNL     1       3.593   7.768  16.150  0.00  0.00    +0.000 OA
ATOM      4  H   UNL     1       3.003   7.400  19.255  0.00  0.00    +0.000 HD
ENDROOT
BRANCH   2   5
ATOM      5  C   UNL     1       4.836   6.456  17.702  0.00  0.00    +0.000 A 
ATOM      6  C   UNL     1       6.145   6.866  17.346  0.00  0.00    +0.000 A 
ATOM      7  C   UNL     1       7.258   6.097  17.665  0.00  0.00    +0.000 A 
ATOM      8  C   UNL     1       7.090   4.911  18.357  0.00  0.00    +0.000 A 
ATOM      9  C   UNL     1       5.806   4.497  18.720  0.00  0.00    +0.000 A 
ATOM     10  C   UNL     1       4.638   5.246  18.422  0.00  0.00    +0.000 A 
BRANCH  10  11
ATOM     11  C   UNL     1       3.324   4.686  18.872  0.00  0.00    +0.000 A 
ATOM     12  C   UNL     1       2.891   4.849  20.210  0.00  0.00    +0.000 A 
ATOM     13  C   UNL     1       1.688   4.305  20.678  0.00  0.00    +0.000 A 
ATOM     14  C   UNL     1       0.863   3.602  19.810  0.00  0.00    +0.000 A 
ATOM     15  C   UNL     1       1.258   3.422  18.489  0.00  0.00    +0.000 A 
ATOM     16  C   UNL     1       2.483   3.933  18.038  0.00  0.00    +0.000 A 
ENDBRANCH  10  11
ENDBRANCH   2   5
BRANCH   1  17
ATOM     17  C   UNL     1       1.849   8.797  18.181  0.00  0.00    +0.000 C 
BRANCH  17  21
ATOM     18  C   UNL     1       0.177  10.132  21.966  0.00  0.00    +0.000 A 
ATOM     19  C   UNL     1       0.721   8.859  21.854  0.00  0.00    +0.000 A 
ATOM     20  C   UNL     1       1.267   8.427  20.644  0.00  0.00    +0.000 A 
ATOM     21  C   UNL     1       1.263   9.257  19.506  0.00  0.00    +0.000 A 
ATOM     22  C   UNL     1       0.708  10.548  19.626  0.00  0.00    +0.000 A 
ATOM     23  C   UNL     1       0.178  10.974  20.856  0.00  0.00    +0.000 A 
BRANCH  18  25
ATOM     24  C   UNL     1      -1.384  11.379  23.255  0.00  0.00    +0.000 C 
ATOM     25  O   UNL     1      -0.318  10.440  23.206  0.00  0.00    +0.000 OA
ENDBRANCH  18  25
BRANCH  22  26
ATOM     26  O   UNL     1       0.722  11.326  18.493  0.00  0.00    +0.000 OA
ATOM     27  C   UNL     1       1.414  12.573  18.571  0.00  0.00    +0.000 C 
ENDBRANCH  22  26
ENDBRANCH  17  21
ENDBRANCH   1  17
TORSDOF 6
ENDMDL
MODEL 8
REMARK VINA RESULT:      -7.7      1.485      2.764
REMARK  Name = 
REMARK  8 active torsions:
REMARK  status: ('A' for Active; 'I' for Inactive)
REMARK    1  A    between atoms: C_1  and  O_2
REMARK    2  A    between atoms: O_2  and  C_3
REMARK    3  A    between atoms: C_6  and  C_7
REMARK    4  A    between atoms: C_7  and  N_8
REMARK    5  A    between atoms: C_9  and  C_11
REMARK    6  A    between atoms: C_16  and  C_17
REMARK    7  A    between atoms: C_23  and  O_24
REMARK    8  A    between atoms: O_24  and  C_25
REMARK                            x       y       z     vdW  Elec       q    Type
REMARK                         _______ _______ _______ _____ _____    ______ ____
ROOT
ATOM      1  N   UNL     1       1.778   6.631  20.473  0.00  0.00    +0.000 N 
ATOM      2  C   UNL     1       2.547   6.070  19.473  0.00  0.00    +0.000 C 
ATOM      3  O   UNL     1       3.350   6.710  18.805  0.00  0.00    +0.000 OA
ATOM      4  H   UNL     1       1.080   6.077  20.943  0.00  0.00    +0.000 HD
ENDROOT
BRANCH   2   5
ATOM      5  C   UNL     1       2.337   4.599  19.241  0.00  0.00    +0.000 A 
ATOM      6  C   UNL     1       1.145   4.056  19.780  0.00  0.00    +0.000 A 
ATOM      7  C   UNL     1       0.823   2.713  19.622  0.00  0.00    +0.000 A 
ATOM      8  C   UNL     1       1.676   1.888  18.911  0.00  0.00    +0.000 A 
ATOM      9  C   UNL     1       2.853   2.411  18.369  0.00  0.00    +0.000 A 
ATOM     10  C   UNL     1       3.226   3.774  18.499  0.00  0.00    +0.000 A 
BRANCH  10  11
ATOM     11  C   UNL     1       4.514   4.201  17.865  0.00  0.00    +0.000 A 
ATOM     12  C   UNL     1       4.594   4.418  16.468  0.00  0.00    +0.000 A 
ATOM     13  C   UNL     1       5.790   4.779  15.835  0.00  0.00    +0.000 A 
ATOM     14  C   UNL     1       6.943   4.963  16.587  0.00  0.00    +0.000 A 
ATOM     15  C   UNL     1       6.901   4.756  17.962  0.00  0.00    +0.000 A 
ATOM     16  C   UNL     1       5.710   4.355  18.584  0.00  0.00    +0.000 A 
ENDBRANCH  10  11
ENDBRANCH   2   5
BRANCH   1  17
ATOM     17  C   UNL     1       1.931   8.005  20.935  0.00  0.00    +0.000 C 
BRANCH  17  21
ATOM     18  C   UNL     1      -0.626  10.811  18.814  0.00  0.00    +0.000 A 
ATOM     19  C   UNL     1       0.546  10.353  18.226  0.00  0.00    +0.000 A 
ATOM     20  C   UNL     1       1.368   9.447  18.898  0.00  0.00    +0.000 A 
ATOM     21  C   UNL     1       1.042   8.988  20.189  0.00  0.00    +0.000 A 
ATOM     22  C   UNL     1      -0.149   9.457  20.781  0.00  0.00    +0.000 A 
ATOM     23  C   UNL     1      -0.973  10.357  20.085  0.00  0.00    +0.000 A 
BRANCH  18  25
ATOM     24  C   UNL     1      -2.478  11.165  17.366  0.00  0.00    +0.000 C 
ATOM     25  O   UNL     1      -1.348  11.690  18.051  0.00  0.00    +0.000 OA
ENDBRANCH  18  25
BRANCH  22  26
ATOM     26  O   UNL     1      -0.430   8.988  22.042  0.00  0.00    +0.000 OA
ATOM     27  C   UNL     1      -0.535   9.956  23.086  0.00  0.00    +0.000 C 
ENDBRANCH  22  26
ENDBRANCH  17  21
ENDBRANCH   1  17
TORSDOF 6
ENDMDL
MODEL 9
REMARK VINA RESULT:      -7.7      1.335      3.538
REMARK  Name = 
REMARK  8 active torsions:
REMARK  status: ('A' for Active; 'I' for Inactive)
REMARK    1  A    between atoms: C_1  and  O_2
REMARK    2  A    between atoms: O_2  and  C_3
REMARK    3  A    between atoms: C_6  and  C_7
REMARK    4  A    between atoms: C_7  and  N_8
REMARK    5  A    between atoms: C_9  and  C_11
REMARK    6  A    between atoms: C_16  and  C_17
REMARK    7  A    between atoms: C_23  and  O_24
REMARK    8  A    between atoms: O_24  and  C_25
REMARK                            x       y       z     vdW  Elec       q    Type
REMARK                         _______ _______ _______ _____ _____    ______ ____
ROOT
ATOM      1  N   UNL     1       2.742   8.181  18.177  0.00  0.00    +0.000 N 
ATOM      2  C   UNL     1       2.708   6.823  17.934  0.00  0.00    +0.000 C 
ATOM      3  O   UNL     1       1.673   6.206  17.709  0.00  0.00    +0.000 OA
ATOM      4  H   UNL     1       3.609   8.628  18.428  0.00  0.00    +0.000 HD
ENDROOT
BRANCH   2   5
ATOM      5  C   UNL     1       4.040   6.126  17.965  0.00  0.00    +0.000 A 
ATOM      6  C   UNL     1       5.089   6.771  17.266  0.00  0.00    +0.000 A 
ATOM      7  C   UNL     1       6.373   6.240  17.230  0.00  0.00    +0.000 A 
ATOM      8  C   UNL     1       6.640   5.062  17.904  0.00  0.00    +0.000 A 
ATOM      9  C   UNL     1       5.617   4.417  18.604  0.00  0.00    +0.000 A 
ATOM     10  C   UNL     1       4.292   4.918  18.674  0.00  0.00    +0.000 A 
BRANCH  10  11
ATOM     11  C   UNL     1       3.294   4.127  19.462  0.00  0.00    +0.000 A 
ATOM     12  C   UNL     1       2.697   2.967  18.911  0.00  0.00    +0.000 A 
ATOM     13  C   UNL     1       1.731   2.224  19.600  0.00  0.00    +0.000 A 
ATOM     14  C   UNL     1       1.351   2.603  20.881  0.00  0.00    +0.000 A 
ATOM     15  C   UNL     1       1.915   3.739  21.452  0.00  0.00    +0.000 A 
ATOM     16  C   UNL     1       2.852   4.502  20.739  0.00  0.00    +0.000 A 
ENDBRANCH  10  11
ENDBRANCH   2   5
BRANCH   1  17
ATOM     17  C   UNL     1       1.578   9.052  18.059  0.00  0.00    +0.000 C 
BRANCH  17  21
ATOM     18  C   UNL     1      -0.176  10.112  21.894  0.00  0.00    +0.000 A 
ATOM     19  C   UNL     1       0.758   9.087  21.813  0.00  0.00    +0.000 A 
ATOM     20  C   UNL     1       1.331   8.746  20.587  0.00  0.00    +0.000 A 
ATOM     21  C   UNL     1       0.966   9.416  19.403  0.00  0.00    +0.000 A 
ATOM     22  C   UNL     1       0.017  10.455  19.491  0.00  0.00    +0.000 A 
ATOM     23  C   UNL     1      -0.538  10.797  20.736  0.00  0.00    +0.000 A 
BRANCH  18  25
ATOM     24  C   UNL     1      -1.588  11.420  23.289  0.00  0.00    +0.000 C 
ATOM     25  O   UNL     1      -0.657  10.355  23.154  0.00  0.00    +0.000 OA
ENDBRANCH  18  25
BRANCH  22  26
ATOM     26  O   UNL     1      -0.313  11.083  18.313  0.00  0.00    +0.000 OA
ATOM     27  C   UNL     1      -1.099  12.271  18.410  0.00  0.00    +0.000 C 
ENDBRANCH  22  26
ENDBRANCH  17  21
ENDBRANCH   1  17
TORSDOF 6
ENDMDL
