MODEL 1
REMARK VINA RESULT:      -8.5      0.000      0.000
REMARK  Name = 
REMARK  5 active torsions:
REMARK  status: ('A' for Active; 'I' for Inactive)
REMARK    1  A    between atoms: C_1  and  O_2
REMARK    2  A    between atoms: O_2  and  C_3
REMARK    3  A    between atoms: C_6  and  C_7
REMARK    4  A    between atoms: C_7  and  N_8
REMARK    5  A    between atoms: C_10  and  C_11
REMARK                            x       y       z     vdW  Elec       q    Type
REMARK                         _______ _______ _______ _____ _____    ______ ____
ROOT
ATOM      1  N   UNL     1       2.251   6.372  18.879  0.00  0.00    +0.000 N 
ATOM      2  C   UNL     1       2.723   6.033  17.569  0.00  0.00    +0.000 A 
ATOM      3  C   UNL     1       3.545   4.963  17.499  0.00  0.00    +0.000 A 
ATOM      4  C   UNL     1       2.516   3.913  17.563  0.00  0.00    +0.000 A 
ATOM      5  O   UNL     1       1.998   3.390  16.589  0.00  0.00    +0.000 OA
ATOM      6  C   UNL     1       1.900   3.852  18.913  0.00  0.00    +0.000 A 
ATOM      7  C   UNL     1       1.707   2.513  19.337  0.00  0.00    +0.000 A 
ATOM      8  F   UNL     1       1.558   1.508  18.464  0.00  0.00    +0.000 F 
ATOM      9  C   UNL     1       1.819   2.202  20.670  0.00  0.00    +0.000 A 
ATOM     10  C   UNL     1       2.106   3.288  21.498  0.00  0.00    +0.000 A 
ATOM     11  C   UNL     1       2.170   4.709  21.054  0.00  0.00    +0.000 A 
ATOM     12  F   UNL     1       2.560   5.546  22.019  0.00  0.00    +0.000 F 
ATOM     13  C   UNL     1       2.017   5.106  19.708  0.00  0.00    +0.000 A 
ENDROOT
BRANCH   3  14
ATOM     14  C   UNL     1       4.660   4.970  18.437  0.00  0.00    +0.000 A 
ATOM     15  N   UNL     1       5.415   5.919  18.961  0.00  0.00    +0.000 NA
ATOM     16  N   UNL     1       6.443   5.274  19.630  0.00  0.00    +0.000 NA
ATOM     17  N   UNL     1       6.350   3.961  19.523  0.00  0.00    +0.000 NA
ATOM     18  N   UNL     1       5.254   3.769  18.775  0.00  0.00    +0.000 N 
ATOM     19  H   UNL     1       5.030   2.843  18.440  0.00  0.00    +0.000 HD
ENDBRANCH   3  14
BRANCH   1  20
ATOM     20  C   UNL     1       2.066   7.976  18.976  0.00  0.00    +0.000 C 
BRANCH  20  24
ATOM     21  C   UNL     1      -0.089  10.583  22.329  0.00  0.00    +0.000 A 
ATOM     22  C   UNL     1       0.208  10.998  21.022  0.00  0.00    +0.000 A 
ATOM     23  C   UNL     1       0.849  10.166  20.092  0.00  0.00    +0.000 A 
ATOM     24  C   UNL     1       1.329   8.812  20.313  0.00  0.00    +0.000 A 
ATOM     25  C   UNL     1       1.041   8.439  21.660  0.00  0.00    +0.000 A 
ATOM     26  C   UNL     1       0.357   9.313  22.642  0.00  0.00    +0.000 A 
BRANCH  21  28
ATOM     27  C   UNL     1      -1.088  12.806  22.646  0.00  0.00    +0.000 C 
ATOM     28  O   UNL     1      -0.711  11.507  23.142  0.00  0.00    +0.000 OA
ENDBRANCH  21  28
ENDBRANCH  20  24
ENDBRANCH   1  20
TORSDOF 4
ENDMDL
MODEL 2
REMARK VINA RESULT:      -8.3      0.483      1.192
REMARK  Name = 
REMARK  5 active torsions:
REMARK  status: ('A' for Active; 'I' for Inactive)
REMARK    1  A    between atoms: C_1  and  O_2
REMARK    2  A    between atoms: O_2  and  C_3
REMARK    3  A    between atoms: C_6  and  C_7
REMARK    4  A    between atoms: C_7  and  N_8
REMARK    5  A    between atoms: C_10  and  C_11
REMARK                            x       y       z     vdW  Elec       q    Type
REMARK                         _______ _______ _______ _____ _____    ______ ____
ROOT
ATOM      1  N   UNL     1       2.435   6.218  18.720  0.00  0.00    +0.000 N 
ATOM      2  C   UNL     1       2.896   5.758  17.444  0.00  0.00    +0.000 A 
ATOM      3  C   UNL     1       3.643   4.633  17.460  0.00  0.00    +0.000 A 
ATOM      4  C   UNL     1       2.544   3.662  17.580  0.00  0.00    +0.000 A 
ATOM      5  O   UNL     1       2.002   3.109  16.636  0.00  0.00    +0.000 OA
ATOM      6  C   UNL     1       1.911   3.736  18.921  0.00  0.00    +0.000 A 
ATOM      7  C   UNL     1       1.623   2.446  19.432  0.00  0.00    +0.000 A 
ATOM      8  F   UNL     1       1.414   1.395  18.628  0.00  0.00    +0.000 F 
ATOM      9  C   UNL     1       1.699   2.220  20.785  0.00  0.00    +0.000 A 
ATOM     10  C   UNL     1       2.051   3.339  21.542  0.00  0.00    +0.000 A 
ATOM     11  C   UNL     1       2.218   4.719  21.002  0.00  0.00    +0.000 A 
ATOM     12  F   UNL     1       2.653   5.592  21.914  0.00  0.00    +0.000 F 
ATOM     13  C   UNL     1       2.106   5.031  19.630  0.00  0.00    +0.000 A 
ENDROOT
BRANCH   3  14
ATOM     14  C   UNL     1       4.747   4.629  18.412  0.00  0.00    +0.000 A 
ATOM     15  N   UNL     1       5.139   3.799  19.362  0.00  0.00    +0.000 NA
ATOM     16  N   UNL     1       6.144   4.451  20.058  0.00  0.00    +0.000 NA
ATOM     17  N   UNL     1       6.373   5.658  19.575  0.00  0.00    +0.000 NA
ATOM     18  N   UNL     1       5.501   5.777  18.563  0.00  0.00    +0.000 N 
ATOM     19  H   UNL     1       5.387   6.668  18.100  0.00  0.00    +0.000 HD
ENDBRANCH   3  14
BRANCH   1  20
ATOM     20  C   UNL     1       2.359   7.834  18.705  0.00  0.00    +0.000 C 
BRANCH  20  24
ATOM     21  C   UNL     1       0.057  10.257  22.098  0.00  0.00    +0.000 A 
ATOM     22  C   UNL     1       0.858   9.121  22.291  0.00  0.00    +0.000 A 
ATOM     23  C   UNL     1       1.503   8.463  21.234  0.00  0.00    +0.000 A 
ATOM     24  C   UNL     1       1.432   8.796  19.821  0.00  0.00    +0.000 A 
ATOM     25  C   UNL     1       0.582   9.930  19.661  0.00  0.00    +0.000 A 
ATOM     26  C   UNL     1      -0.095  10.633  20.777  0.00  0.00    +0.000 A 
BRANCH  21  28
ATOM     27  C   UNL     1      -1.627  11.722  23.127  0.00  0.00    +0.000 C 
ATOM     28  O   UNL     1      -0.527  10.798  23.225  0.00  0.00    +0.000 OA
ENDBRANCH  21  28
ENDBRANCH  20  24
ENDBRANCH   1  20
TORSDOF 4
ENDMDL
MODEL 3
REMARK VINA RESULT:      -8.3      2.940      4.358
REMARK  Name = 
REMARK  5 active torsions:
REMARK  status: ('A' for Active; 'I' for Inactive)
REMARK    1  A    between atoms: C_1  and  O_2
REMARK    2  A    between atoms: O_2  and  C_3
REMARK    3  A    between atoms: C_6  and  C_7
REMARK    4  A    between atoms: C_7  and  N_8
REMARK    5  A    between atoms: C_10  and  C_11
REMARK                            x       y       z     vdW  Elec       q    Type
REMARK                         _______ _______ _______ _____ _____    ______ ____
ROOT
ATOM      1  N   UNL     1       4.097   6.755  17.777  0.00  0.00    +0.000 N 
ATOM      2  C   UNL     1       4.110   6.249  19.118  0.00  0.00    +0.000 A 
ATOM      3  C   UNL     1       4.435   4.946  19.252  0.00  0.00    +0.000 A 
ATOM      4  C   UNL     1       5.895   5.088  19.132  0.00  0.00    +0.000 A 
ATOM      5  O   UNL     1       6.657   5.220  20.076  0.00  0.00    +0.000 OA
ATOM      6  C   UNL     1       6.284   5.452  17.746  0.00  0.00    +0.000 A 
ATOM      7  C   UNL     1       7.435   4.743  17.325  0.00  0.00    +0.000 A 
ATOM      8  F   UNL     1       8.342   4.281  18.196  0.00  0.00    +0.000 F 
ATOM      9  C   UNL     1       7.566   4.385  16.005  0.00  0.00    +0.000 A 
ATOM     10  C   UNL     1       6.511   4.792  15.186  0.00  0.00    +0.000 A 
ATOM     11  C   UNL     1       5.376   5.655  15.619  0.00  0.00    +0.000 A 
ATOM     12  F   UNL     1       4.448   5.819  14.673  0.00  0.00    +0.000 F 
ATOM     13  C   UNL     1       5.205   6.099  16.948  0.00  0.00    +0.000 A 
ENDROOT
BRANCH   3  14
ATOM     14  C   UNL     1       3.704   4.028  18.388  0.00  0.00    +0.000 A 
ATOM     15  N   UNL     1       2.507   4.047  17.829  0.00  0.00    +0.000 NA
ATOM     16  N   UNL     1       2.310   2.788  17.286  0.00  0.00    +0.000 NA
ATOM     17  N   UNL     1       3.342   1.992  17.504  0.00  0.00    +0.000 NA
ATOM     18  N   UNL     1       4.201   2.753  18.197  0.00  0.00    +0.000 N 
ATOM     19  H   UNL     1       5.029   2.336  18.598  0.00  0.00    +0.000 HD
ENDBRANCH   3  14
BRANCH   1  20
ATOM     20  C   UNL     1       2.957   7.895  17.651  0.00  0.00    +0.000 C 
BRANCH  20  24
ATOM     21  C   UNL     1       0.051   9.730  20.948  0.00  0.00    +0.000 A 
ATOM     22  C   UNL     1       0.325  10.282  19.687  0.00  0.00    +0.000 A 
ATOM     23  C   UNL     1       1.198   9.677  18.771  0.00  0.00    +0.000 A 
ATOM     24  C   UNL     1       1.964   8.457  18.966  0.00  0.00    +0.000 A 
ATOM     25  C   UNL     1       1.687   7.946  20.269  0.00  0.00    +0.000 A 
ATOM     26  C   UNL     1       0.759   8.580  21.236  0.00  0.00    +0.000 A 
BRANCH  21  28
ATOM     27  C   UNL     1      -0.807  10.279  23.185  0.00  0.00    +0.000 C 
ATOM     28  O   UNL     1      -0.818  10.437  21.753  0.00  0.00    +0.000 OA
ENDBRANCH  21  28
ENDBRANCH  20  24
ENDBRANCH   1  20
TORSDOF 4
ENDMDL
MODEL 4
REMARK VINA RESULT:      -8.0      1.887      2.480
REMARK  Name = 
REMARK  5 active torsions:
REMARK  status: ('A' for Active; 'I' for Inactive)
REMARK    1  A    between atoms: C_1  and  O_2
REMARK    2  A    between atoms: O_2  and  C_3
REMARK    3  A    between atoms: C_6  and  C_7
REMARK    4  A    between atoms: C_7  and  N_8
REMARK    5  A    between atoms: C_10  and  C_11
REMARK                            x       y       z     vdW  Elec       q    Type
REMARK                         _______ _______ _______ _____ _____    ______ ____
ROOT
ATOM      1  N   UNL     1       3.848   6.491  17.404  0.00  0.00    +0.000 N 
ATOM      2  C   UNL     1       4.694   6.300  16.264  0.00  0.00    +0.000 A 
ATOM      3  C   UNL     1       5.699   5.412  16.419  0.00  0.00    +0.000 A 
ATOM      4  C   UNL     1       4.914   4.182  16.229  0.00  0.00    +0.000 A 
ATOM      5  O   UNL     1       4.773   3.608  15.161  0.00  0.00    +0.000 OA
ATOM      6  C   UNL     1       3.999   3.950  17.377  0.00  0.00    +0.000 A 
ATOM      7  C   UNL     1       3.971   2.584  17.752  0.00  0.00    +0.000 A 
ATOM      8  F   UNL     1       4.248   1.604  16.882  0.00  0.00    +0.000 F 
ATOM      9  C   UNL     1       3.800   2.248  19.073  0.00  0.00    +0.000 A 
ATOM     10  C   UNL     1       3.649   3.336  19.935  0.00  0.00    +0.000 A 
ATOM     11  C   UNL     1       3.544   4.759  19.505  0.00  0.00    +0.000 A 
ATOM     12  F   UNL     1       3.504   5.617  20.527  0.00  0.00    +0.000 F 
ATOM     13  C   UNL     1       3.664   5.172  18.160  0.00  0.00    +0.000 A 
ENDROOT
BRANCH   3  14
ATOM     14  C   UNL     1       6.516   5.596  17.612  0.00  0.00    +0.000 A 
ATOM     15  N   UNL     1       6.945   6.653  18.279  0.00  0.00    +0.000 NA
ATOM     16  N   UNL     1       7.854   6.182  19.212  0.00  0.00    +0.000 NA
ATOM     17  N   UNL     1       8.007   4.873  19.132  0.00  0.00    +0.000 NA
ATOM     18  N   UNL     1       7.189   4.508  18.134  0.00  0.00    +0.000 N 
ATOM     19  H   UNL     1       7.213   3.560  17.786  0.00  0.00    +0.000 HD
ENDBRANCH   3  14
BRANCH   1  20
ATOM     20  C   UNL     1       3.333   8.024  17.432  0.00  0.00    +0.000 C 
BRANCH  20  24
ATOM     21  C   UNL     1       0.150   9.485  20.659  0.00  0.00    +0.000 A 
ATOM     22  C   UNL     1       1.118   8.486  20.845  0.00  0.00    +0.000 A 
ATOM     23  C   UNL     1       2.021   8.112  19.839  0.00  0.00    +0.000 A 
ATOM     24  C   UNL     1       2.090   8.636  18.485  0.00  0.00    +0.000 A 
ATOM     25  C   UNL     1       1.070   9.621  18.323  0.00  0.00    +0.000 A 
ATOM     26  C   UNL     1       0.119  10.024  19.387  0.00  0.00    +0.000 A 
BRANCH  21  28
ATOM     27  C   UNL     1      -0.224   9.582  23.086  0.00  0.00    +0.000 C 
ATOM     28  O   UNL     1      -0.681   9.744  21.730  0.00  0.00    +0.000 OA
ENDBRANCH  21  28
ENDBRANCH  20  24
ENDBRANCH   1  20
TORSDOF 4
ENDMDL
MODEL 5
REMARK VINA RESULT:      -8.0      1.103      1.415
REMARK  Name = 
REMARK  5 active torsions:
REMARK  status: ('A' for Active; 'I' for Inactive)
REMARK    1  A    between atoms: C_1  and  O_2
REMARK    2  A    between atoms: O_2  and  C_3
REMARK    3  A    between atoms: C_6  and  C_7
REMARK    4  A    between atoms: C_7  and  N_8
REMARK    5  A    between atoms: C_10  and  C_11
REMARK                            x       y       z     vdW  Elec       q    Type
REMARK                         _______ _______ _______ _____ _____    ______ ____
ROOT
ATOM      1  N   UNL     1       2.606   6.128  18.387  0.00  0.00    +0.000 N 
ATOM      2  C   UNL     1       3.126   5.523  17.197  0.00  0.00    +0.000 A 
ATOM      3  C   UNL     1       3.806   4.370  17.373  0.00  0.00    +0.000 A 
ATOM      4  C   UNL     1       2.649   3.471  17.503  0.00  0.00    +0.000 A 
ATOM      5  O   UNL     1       2.142   2.855  16.579  0.00  0.00    +0.000 OA
ATOM      6  C   UNL     1       1.932   3.706  18.783  0.00  0.00    +0.000 A 
ATOM      7  C   UNL     1       1.538   2.488  19.390  0.00  0.00    +0.000 A 
ATOM      8  F   UNL     1       1.326   1.375  18.675  0.00  0.00    +0.000 F 
ATOM      9  C   UNL     1       1.511   2.392  20.760  0.00  0.00    +0.000 A 
ATOM     10  C   UNL     1       1.873   3.561  21.432  0.00  0.00    +0.000 A 
ATOM     11  C   UNL     1       2.151   4.872  20.778  0.00  0.00    +0.000 A 
ATOM     12  F   UNL     1       2.572   5.807  21.633  0.00  0.00    +0.000 F 
ATOM     13  C   UNL     1       2.150   5.053  19.378  0.00  0.00    +0.000 A 
ENDROOT
BRANCH   3  14
ATOM     14  C   UNL     1       4.841   4.405  18.398  0.00  0.00    +0.000 A 
ATOM     15  N   UNL     1       5.131   3.645  19.438  0.00  0.00    +0.000 NA
ATOM     16  N   UNL     1       6.113   4.315  20.150  0.00  0.00    +0.000 NA
ATOM     17  N   UNL     1       6.427   5.467  19.586  0.00  0.00    +0.000 NA
ATOM     18  N   UNL     1       5.632   5.533  18.508  0.00  0.00    +0.000 N 
ATOM     19  H   UNL     1       5.588   6.385  17.967  0.00  0.00    +0.000 HD
ENDBRANCH   3  14
BRANCH   1  20
ATOM     20  C   UNL     1       2.621   7.737  18.215  0.00  0.00    +0.000 C 
BRANCH  20  24
ATOM     21  C   UNL     1      -0.396  10.914  20.080  0.00  0.00    +0.000 A 
ATOM     22  C   UNL     1       0.092  10.911  18.765  0.00  0.00    +0.000 A 
ATOM     23  C   UNL     1       0.984   9.935  18.292  0.00  0.00    +0.000 A 
ATOM     24  C   UNL     1       1.560   8.836  19.048  0.00  0.00    +0.000 A 
ATOM     25  C   UNL     1       1.069   8.894  20.387  0.00  0.00    +0.000 A 
ATOM     26  C   UNL     1       0.121   9.918  20.887  0.00  0.00    +0.000 A 
BRANCH  21  28
ATOM     27  C   UNL     1      -1.251  13.185  19.693  0.00  0.00    +0.000 C 
ATOM     28  O   UNL     1      -1.258  11.939  20.414  0.00  0.00    +0.000 OA
ENDBRANCH  21  28
ENDBRANCH  20  24
ENDBRANCH   1  20
TORSDOF 4
ENDMDL
MODEL 6
REMARK VINA RESULT:      -7.9      1.633      1.877
REMARK  Name = 
REMARK  5 active torsions:
REMARK  status: ('A' for Active; 'I' for Inactive)
REMARK    1  A    between atoms: C_1  and  O_2
REMARK    2  A    between atoms: O_2  and  C_3
REMARK    3  A    between atoms: C_6  and  C_7
REMARK    4  A    between atoms: C_7  and  N_8
REMARK    5  A    between atoms: C_10  and  C_11
REMARK                            x       y       z     vdW  Elec       q    Type
REMARK                         _______ _______ _______ _____ _____    ______ ____
ROOT
ATOM      1  N   UNL     1       2.041   6.500  19.801  0.00  0.00    +0.000 N 
ATOM      2  C   UNL     1       2.233   6.504  18.382  0.00  0.00    +0.000 A 
ATOM      3  C   UNL     1       2.873   5.430  17.871  0.00  0.00    +0.000 A 
ATOM      4  C   UNL     1       1.733   4.500  17.865  0.00  0.00    +0.000 A 
ATOM      5  O   UNL     1       0.991   4.321  16.913  0.00  0.00    +0.000 OA
ATOM      6  C   UNL     1       1.352   4.113  19.248  0.00  0.00    +0.000 A 
ATOM      7  C   UNL     1       1.048   2.732  19.337  0.00  0.00    +0.000 A 
ATOM      8  F   UNL     1       0.615   2.032  18.281  0.00  0.00    +0.000 F 
ATOM      9  C   UNL     1       1.340   2.048  20.492  0.00  0.00    +0.000 A 
ATOM     10  C   UNL     1       1.912   2.827  21.500  0.00  0.00    +0.000 A 
ATOM     11  C   UNL     1       2.098   4.304  21.438  0.00  0.00    +0.000 A 
ATOM     12  F   UNL     1       2.758   4.796  22.489  0.00  0.00    +0.000 F 
ATOM     13  C   UNL     1       1.777   5.077  20.301  0.00  0.00    +0.000 A 
ENDROOT
BRANCH   3  14
ATOM     14  C   UNL     1       4.121   5.074  18.534  0.00  0.00    +0.000 A 
ATOM     15  N   UNL     1       5.096   5.767  19.094  0.00  0.00    +0.000 NA
ATOM     16  N   UNL     1       6.109   4.863  19.370  0.00  0.00    +0.000 NA
ATOM     17  N   UNL     1       5.792   3.640  18.988  0.00  0.00    +0.000 NA
ATOM     18  N   UNL     1       4.567   3.768  18.459  0.00  0.00    +0.000 N 
ATOM     19  H   UNL     1       4.144   2.989  17.975  0.00  0.00    +0.000 HD
ENDBRANCH   3  14
BRANCH   1  20
ATOM     20  C   UNL     1       2.101   8.021  20.349  0.00  0.00    +0.000 C 
BRANCH  20  24
ATOM     21  C   UNL     1      -1.293  11.179  19.261  0.00  0.00    +0.000 A 
ATOM     22  C   UNL     1      -0.425  10.553  18.354  0.00  0.00    +0.000 A 
ATOM     23  C   UNL     1       0.553   9.631  18.758  0.00  0.00    +0.000 A 
ATOM     24  C   UNL     1       0.853   9.211  20.117  0.00  0.00    +0.000 A 
ATOM     25  C   UNL     1      -0.024   9.894  21.011  0.00  0.00    +0.000 A 
ATOM     26  C   UNL     1      -1.064  10.863  20.586  0.00  0.00    +0.000 A 
BRANCH  21  28
ATOM     27  C   UNL     1      -3.547  11.673  18.416  0.00  0.00    +0.000 C 
ATOM     28  O   UNL     1      -2.199  12.073  18.728  0.00  0.00    +0.000 OA
ENDBRANCH  21  28
ENDBRANCH  20  24
ENDBRANCH   1  20
TORSDOF 4
ENDMDL
MODEL 7
REMARK VINA RESULT:      -7.9      1.030      1.472
REMARK  Name = 
REMARK  5 active torsions:
REMARK  status: ('A' for Active; 'I' for Inactive)
REMARK    1  A    between atoms: C_1  and  O_2
REMARK    2  A    between atoms: O_2  and  C_3
REMARK    3  A    between atoms: C_6  and  C_7
REMARK    4  A    between atoms: C_7  and  N_8
REMARK    5  A    between atoms: C_10  and  C_11
REMARK                            x       y       z     vdW  Elec       q    Type
REMARK                         _______ _______ _______ _____ _____    ______ ____
ROOT
ATOM      1  N   UNL     1       2.550   6.415  18.251  0.00  0.00    +0.000 N 
ATOM      2  C   UNL     1       3.159   5.794  17.113  0.00  0.00    +0.000 A 
ATOM      3  C   UNL     1       3.881   4.681  17.367  0.00  0.00    +0.000 A 
ATOM      4  C   UNL     1       2.760   3.733  17.473  0.00  0.00    +0.000 A 
ATOM      5  O   UNL     1       2.331   3.062  16.548  0.00  0.00    +0.000 OA
ATOM      6  C   UNL     1       1.967   3.980  18.704  0.00  0.00    +0.000 A 
ATOM      7  C   UNL     1       1.597   2.767  19.336  0.00  0.00    +0.000 A 
ATOM      8  F   UNL     1       1.474   1.621  18.655  0.00  0.00    +0.000 F 
ATOM      9  C   UNL     1       1.502   2.719  20.706  0.00  0.00    +0.000 A 
ATOM     10  C   UNL     1       1.775   3.927  21.350  0.00  0.00    +0.000 A 
ATOM     11  C   UNL     1       2.028   5.225  20.662  0.00  0.00    +0.000 A 
ATOM     12  F   UNL     1       2.361   6.209  21.501  0.00  0.00    +0.000 F 
ATOM     13  C   UNL     1       2.093   5.356  19.258  0.00  0.00    +0.000 A 
ENDROOT
BRANCH   3  14
ATOM     14  C   UNL     1       4.857   4.801  18.442  0.00  0.00    +0.000 A 
ATOM     15  N   UNL     1       5.668   5.763  18.845  0.00  0.00    +0.000 NA
ATOM     16  N   UNL     1       6.499   5.199  19.798  0.00  0.00    +0.000 NA
ATOM     17  N   UNL     1       6.233   3.919  19.986  0.00  0.00    +0.000 NA
ATOM     18  N   UNL     1       5.225   3.666  19.138  0.00  0.00    +0.000 N 
ATOM     19  H   UNL     1       4.915   2.716  18.997  0.00  0.00    +0.000 HD
ENDBRANCH   3  14
BRANCH   1  20
ATOM     20  C   UNL     1       2.502   8.016  18.019  0.00  0.00    +0.000 C 
BRANCH  20  24
ATOM     21  C   UNL     1      -0.575  10.862  20.279  0.00  0.00    +0.000 A 
ATOM     22  C   UNL     1       0.310   9.956  20.882  0.00  0.00    +0.000 A 
ATOM     23  C   UNL     1       1.187   9.149  20.142  0.00  0.00    +0.000 A 
ATOM     24  C   UNL     1       1.304   9.082  18.694  0.00  0.00    +0.000 A 
ATOM     25  C   UNL     1       0.366   9.988  18.117  0.00  0.00    +0.000 A 
ATOM     26  C   UNL     1      -0.557  10.848  18.897  0.00  0.00    +0.000 A 
BRANCH  21  28
ATOM     27  C   UNL     1      -2.463  12.398  20.618  0.00  0.00    +0.000 C 
ATOM     28  O   UNL     1      -1.390  11.585  21.127  0.00  0.00    +0.000 OA
ENDBRANCH  21  28
ENDBRANCH  20  24
ENDBRANCH   1  20
TORSDOF 4
ENDMDL
MODEL 8
REMARK VINA RESULT:      -7.9      1.315      1.696
REMARK  Name = 
REMARK  5 active torsions:
REMARK  status: ('A' for Active; 'I' for Inactive)
REMARK    1  A    between atoms: C_1  and  O_2
REMARK    2  A    between atoms: O_2  and  C_3
REMARK    3  A    between atoms: C_6  and  C_7
REMARK    4  A    between atoms: C_7  and  N_8
REMARK    5  A    between atoms: C_10  and  C_11
REMARK                            x       y       z     vdW  Elec       q    Type
REMARK                         _______ _______ _______ _____ _____    ______ ____
ROOT
ATOM      1  N   UNL     1       2.037   6.540  19.716  0.00  0.00    +0.000 N 
ATOM      2  C   UNL     1       2.235   6.507  18.297  0.00  0.00    +0.000 A 
ATOM      3  C   UNL     1       2.888   5.426  17.819  0.00  0.00    +0.000 A 
ATOM      4  C   UNL     1       1.757   4.484  17.835  0.00  0.00    +0.000 A 
ATOM      5  O   UNL     1       1.020   4.271  16.885  0.00  0.00    +0.000 OA
ATOM      6  C   UNL     1       1.374   4.132  19.226  0.00  0.00    +0.000 A 
ATOM      7  C   UNL     1       1.084   2.751  19.353  0.00  0.00    +0.000 A 
ATOM      8  F   UNL     1       0.662   2.017  18.316  0.00  0.00    +0.000 F 
ATOM      9  C   UNL     1       1.378   2.102  20.528  0.00  0.00    +0.000 A 
ATOM     10  C   UNL     1       1.938   2.915  21.516  0.00  0.00    +0.000 A 
ATOM     11  C   UNL     1       2.110   4.392  21.413  0.00  0.00    +0.000 A 
ATOM     12  F   UNL     1       2.761   4.920  22.452  0.00  0.00    +0.000 F 
ATOM     13  C   UNL     1       1.785   5.129  20.254  0.00  0.00    +0.000 A 
ENDROOT
BRANCH   3  14
ATOM     14  C   UNL     1       4.136   5.101  18.496  0.00  0.00    +0.000 A 
ATOM     15  N   UNL     1       5.106   5.820  19.032  0.00  0.00    +0.000 NA
ATOM     16  N   UNL     1       6.124   4.932  19.342  0.00  0.00    +0.000 NA
ATOM     17  N   UNL     1       5.815   3.693  19.003  0.00  0.00    +0.000 NA
ATOM     18  N   UNL     1       4.590   3.796  18.468  0.00  0.00    +0.000 N 
ATOM     19  H   UNL     1       4.173   2.997  18.012  0.00  0.00    +0.000 HD
ENDBRANCH   3  14
BRANCH   1  20
ATOM     20  C   UNL     1       2.080   8.077  20.221  0.00  0.00    +0.000 C 
BRANCH  20  24
ATOM     21  C   UNL     1      -1.194  11.481  19.609  0.00  0.00    +0.000 A 
ATOM     22  C   UNL     1      -0.811  10.912  20.833  0.00  0.00    +0.000 A 
ATOM     23  C   UNL     1       0.164   9.908  20.928  0.00  0.00    +0.000 A 
ATOM     24  C   UNL     1       0.888   9.284  19.832  0.00  0.00    +0.000 A 
ATOM     25  C   UNL     1       0.447   9.861  18.605  0.00  0.00    +0.000 A 
ATOM     26  C   UNL     1      -0.579  10.928  18.502  0.00  0.00    +0.000 A 
BRANCH  21  28
ATOM     27  C   UNL     1      -2.670  12.945  20.919  0.00  0.00    +0.000 C 
ATOM     28  O   UNL     1      -2.174  12.451  19.661  0.00  0.00    +0.000 OA
ENDBRANCH  21  28
ENDBRANCH  20  24
ENDBRANCH   1  20
TORSDOF 4
ENDMDL
MODEL 9
REMARK VINA RESULT:      -7.8      1.612      1.898
REMARK  Name = 
REMARK  5 active torsions:
REMARK  status: ('A' for Active; 'I' for Inactive)
REMARK    1  A    between atoms: C_1  and  O_2
REMARK    2  A    between atoms: O_2  and  C_3
REMARK    3  A    between atoms: C_6  and  C_7
REMARK    4  A    between atoms: C_7  and  N_8
REMARK    5  A    between atoms: C_10  and  C_11
REMARK                            x       y       z     vdW  Elec       q    Type
REMARK                         _______ _______ _______ _____ _____    ______ ____
ROOT
ATOM      1  N   UNL     1       2.534   6.544  18.350  0.00  0.00    +0.000 N 
ATOM      2  C   UNL     1       3.132   5.988  17.173  0.00  0.00    +0.000 A 
ATOM      3  C   UNL     1       3.847   4.857  17.355  0.00  0.00    +0.000 A 
ATOM      4  C   UNL     1       2.720   3.912  17.410  0.00  0.00    +0.000 A 
ATOM      5  O   UNL     1       2.281   3.301  16.449  0.00  0.00    +0.000 OA
ATOM      6  C   UNL     1       1.935   4.090  18.659  0.00  0.00    +0.000 A 
ATOM      7  C   UNL     1       1.560   2.844  19.219  0.00  0.00    +0.000 A 
ATOM      8  F   UNL     1       1.424   1.742  18.471  0.00  0.00    +0.000 F 
ATOM      9  C   UNL     1       1.471   2.715  20.584  0.00  0.00    +0.000 A 
ATOM     10  C   UNL     1       1.757   3.880  21.298  0.00  0.00    +0.000 A 
ATOM     11  C   UNL     1       2.016   5.215  20.688  0.00  0.00    +0.000 A 
ATOM     12  F   UNL     1       2.361   6.145  21.582  0.00  0.00    +0.000 F 
ATOM     13  C   UNL     1       2.074   5.430  19.294  0.00  0.00    +0.000 A 
ENDROOT
BRANCH   3  14
ATOM     14  C   UNL     1       4.830   4.905  18.430  0.00  0.00    +0.000 A 
ATOM     15  N   UNL     1       5.637   5.841  18.897  0.00  0.00    +0.000 NA
ATOM     16  N   UNL     1       6.479   5.215  19.801  0.00  0.00    +0.000 NA
ATOM     17  N   UNL     1       6.223   3.922  19.896  0.00  0.00    +0.000 NA
ATOM     18  N   UNL     1       5.211   3.725  19.039  0.00  0.00    +0.000 N 
ATOM     19  H   UNL     1       4.906   2.785  18.830  0.00  0.00    +0.000 HD
ENDBRANCH   3  14
BRANCH   1  20
ATOM     20  C   UNL     1       2.497   8.156  18.214  0.00  0.00    +0.000 C 
BRANCH  20  24
ATOM     21  C   UNL     1      -1.357  10.789  19.161  0.00  0.00    +0.000 A 
ATOM     22  C   UNL     1      -1.032  10.213  17.923  0.00  0.00    +0.000 A 
ATOM     23  C   UNL     1       0.128   9.449  17.726  0.00  0.00    +0.000 A 
ATOM     24  C   UNL     1       1.165   9.164  18.704  0.00  0.00    +0.000 A 
ATOM     25  C   UNL     1       0.818   9.794  19.936  0.00  0.00    +0.000 A 
ATOM     26  C   UNL     1      -0.411  10.595  20.149  0.00  0.00    +0.000 A 
BRANCH  21  28
ATOM     27  C   UNL     1      -3.384  11.638  18.061  0.00  0.00    +0.000 C 
ATOM     28  O   UNL     1      -2.523  11.525  19.210  0.00  0.00    +0.000 OA
ENDBRANCH  21  28
ENDBRANCH  20  24
ENDBRANCH   1  20
TORSDOF 4
ENDMDL
