MODEL 1
REMARK VINA RESULT:      -5.8      0.000      0.000
REMARK  Name = 
REMARK  14 active torsions:
REMARK  status: ('A' for Active; 'I' for Inactive)
REMARK    1  A    between atoms: C_1  and  C_2
REMARK    2  A    between atoms: C_2  and  C_3
REMARK    3  A    between atoms: C_3  and  C_4
REMARK    4  A    between atoms: C_4  and  C_5
REMARK    5  A    between atoms: C_4  and  C_18
REMARK    6  A    between atoms: C_5  and  O_6
REMARK    7  A    between atoms: O_6  and  C_7
REMARK    8  A    between atoms: N_9  and  C_10
REMARK    9  A    between atoms: C_10  and  C_11
REMARK   10  A    between atoms: C_11  and  C_12
REMARK   11  A    between atoms: C_12  and  N_13
REMARK   12  A    between atoms: C_18  and  C_19
REMARK   13  A    between atoms: C_18  and  C_20
REMARK   14  A    between atoms: C_20  and  C_21
REMARK                            x       y       z     vdW  Elec       q    Type
REMARK                         _______ _______ _______ _____ _____    ______ ____
ROOT
ATOM      1  C   UNL     1       4.538   2.997  18.856  0.00  0.00    +0.000 C 
ATOM      2  O   UNL     1       4.183   1.967  19.413  0.00  0.00    +0.000 OA
ATOM      3  N   UNL     1       5.634   3.688  19.276  0.00  0.00    +0.000 N 
ATOM      4  H   UNL     1       6.167   3.166  19.957  0.00  0.00    +0.000 HD
ENDROOT
BRANCH   1   5
ATOM      5  O   UNL     1       4.052   3.479  17.696  0.00  0.00    +0.000 OA
BRANCH   5   6
ATOM      6  C   UNL     1       2.633   3.340  17.556  0.00  0.00    +0.000 C 
BRANCH   6   7
ATOM      7  C   UNL     1       1.872   4.627  17.996  0.00  0.00    +0.000 C 
BRANCH   7   8
ATOM      8  C   UNL     1       1.224   4.468  19.425  0.00  0.00    +0.000 C 
ATOM      9  C   UNL     1       0.919   3.022  19.838  0.00  0.00    +0.000 C 
BRANCH   8  10
ATOM     10  C   UNL     1       2.049   5.098  20.569  0.00  0.00    +0.000 C 
ATOM     11  C   UNL     1       1.488   6.412  21.082  0.00  0.00    +0.000 C 
ENDBRANCH   8  10
ENDBRANCH   7   8
BRANCH   7  12
ATOM     12  C   UNL     1       2.700   5.936  17.880  0.00  0.00    +0.000 C 
BRANCH  12  14
ATOM     13  C   UNL     1       2.777   8.450  17.858  0.00  0.00    +0.000 C 
ATOM     14  C   UNL     1       1.889   7.223  17.692  0.00  0.00    +0.000 C 
ENDBRANCH  12  14
ENDBRANCH   7  12
ENDBRANCH   6   7
ENDBRANCH   5   6
ENDBRANCH   1   5
BRANCH   3  15
ATOM     15  C   UNL     1       5.677   5.130  19.346  0.00  0.00    +0.000 C 
BRANCH  15  16
ATOM     16  C   UNL     1       7.016   5.634  18.830  0.00  0.00    +0.000 C 
BRANCH  16  17
ATOM     17  C   UNL     1       6.831   6.463  17.563  0.00  0.00    +0.000 C 
BRANCH  17  18
ATOM     18  N   UNL     1       6.474   5.639  16.434  0.00  0.00    +0.000 N 
ATOM     19  C   UNL     1       5.439   5.860  15.576  0.00  0.00    +0.000 A 
ATOM     20  C   UNL     1       5.503   4.817  14.684  0.00  0.00    +0.000 A 
ATOM     21  N   UNL     1       6.546   3.976  14.987  0.00  0.00    +0.000 NA
ATOM     22  C   UNL     1       7.111   4.494  16.053  0.00  0.00    +0.000 A 
ENDBRANCH  17  18
ENDBRANCH  16  17
ENDBRANCH  15  16
ENDBRANCH   3  15
TORSDOF 11
ENDMDL
MODEL 2
REMARK VINA RESULT:      -5.7      2.524      5.443
REMARK  Name = 
REMARK  14 active torsions:
REMARK  status: ('A' for Active; 'I' for Inactive)
REMARK    1  A    between atoms: C_1  and  C_2
REMARK    2  A    between atoms: C_2  and  C_3
REMARK    3  A    between atoms: C_3  and  C_4
REMARK    4  A    between atoms: C_4  and  C_5
REMARK    5  A    between atoms: C_4  and  C_18
REMARK    6  A    between atoms: C_5  and  O_6
REMARK    7  A    between atoms: O_6  and  C_7
REMARK    8  A    between atoms: N_9  and  C_10
REMARK    9  A    between atoms: C_10  and  C_11
REMARK   10  A    between atoms: C_11  and  C_12
REMARK   11  A    between atoms: C_12  and  N_13
REMARK   12  A    between atoms: C_18  and  C_19
REMARK   13  A    between atoms: C_18  and  C_20
REMARK   14  A    between atoms: C_20  and  C_21
REMARK                            x       y       z     vdW  Elec       q    Type
REMARK                         _______ _______ _______ _____ _____    ______ ____
ROOT
ATOM      1  C   UNL     1       2.679   7.729  17.991  0.00  0.00    +0.000 C 
ATOM      2  O   UNL     1       1.893   8.586  17.609  0.00  0.00    +0.000 OA
ATOM      3  N   UNL     1       2.244   6.582  18.582  0.00  0.00    +0.000 N 
ATOM      4  H   UNL     1       1.243   6.479  18.505  0.00  0.00    +0.000 HD
ENDROOT
BRANCH   1   5
ATOM      5  O   UNL     1       4.000   7.695  17.732  0.00  0.00    +0.000 OA
BRANCH   5   6
ATOM      6  C   UNL     1       4.339   7.023  16.514  0.00  0.00    +0.000 C 
BRANCH   6   7
ATOM      7  C   UNL     1       5.534   6.038  16.701  0.00  0.00    +0.000 C 
BRANCH   7   8
ATOM      8  C   UNL     1       6.339   6.335  18.024  0.00  0.00    +0.000 C 
ATOM      9  C   UNL     1       6.444   5.151  18.994  0.00  0.00    +0.000 C 
BRANCH   8  10
ATOM     10  C   UNL     1       7.775   6.853  17.789  0.00  0.00    +0.000 C 
ATOM     11  C   UNL     1       7.882   8.366  17.730  0.00  0.00    +0.000 C 
ENDBRANCH   8  10
ENDBRANCH   7   8
BRANCH   7  12
ATOM     12  C   UNL     1       5.156   4.538  16.578  0.00  0.00    +0.000 C 
BRANCH  12  14
ATOM     13  C   UNL     1       6.823   4.666  14.698  0.00  0.00    +0.000 C 
ATOM     14  C   UNL     1       5.865   3.760  15.463  0.00  0.00    +0.000 C 
ENDBRANCH  12  14
ENDBRANCH   7  12
ENDBRANCH   6   7
ENDBRANCH   5   6
ENDBRANCH   1   5
BRANCH   3  15
ATOM     15  C   UNL     1       2.900   5.986  19.722  0.00  0.00    +0.000 C 
BRANCH  15  16
ATOM     16  C   UNL     1       1.879   5.268  20.590  0.00  0.00    +0.000 C 
BRANCH  16  17
ATOM     17  C   UNL     1       2.347   3.853  20.919  0.00  0.00    +0.000 C 
BRANCH  17  18
ATOM     18  N   UNL     1       2.574   3.076  19.726  0.00  0.00    +0.000 N 
ATOM     19  C   UNL     1       1.675   2.862  18.725  0.00  0.00    +0.000 A 
ATOM     20  C   UNL     1       2.344   2.071  17.824  0.00  0.00    +0.000 A 
ATOM     21  N   UNL     1       3.618   1.801  18.260  0.00  0.00    +0.000 NA
ATOM     22  C   UNL     1       3.727   2.417  19.415  0.00  0.00    +0.000 A 
ENDBRANCH  17  18
ENDBRANCH  16  17
ENDBRANCH  15  16
ENDBRANCH   3  15
TORSDOF 11
ENDMDL
MODEL 3
REMARK VINA RESULT:      -5.7      1.992      3.370
REMARK  Name = 
REMARK  14 active torsions:
REMARK  status: ('A' for Active; 'I' for Inactive)
REMARK    1  A    between atoms: C_1  and  C_2
REMARK    2  A    between atoms: C_2  and  C_3
REMARK    3  A    between atoms: C_3  and  C_4
REMARK    4  A    between atoms: C_4  and  C_5
REMARK    5  A    between atoms: C_4  and  C_18
REMARK    6  A    between atoms: C_5  and  O_6
REMARK    7  A    between atoms: O_6  and  C_7
REMARK    8  A    between atoms: N_9  and  C_10
REMARK    9  A    between atoms: C_10  and  C_11
REMARK   10  A    between atoms: C_11  and  C_12
REMARK   11  A    between atoms: C_12  and  N_13
REMARK   12  A    between atoms: C_18  and  C_19
REMARK   13  A    between atoms: C_18  and  C_20
REMARK   14  A    between atoms: C_20  and  C_21
REMARK                            x       y       z     vdW  Elec       q    Type
REMARK                         _______ _______ _______ _____ _____    ______ ____
ROOT
ATOM      1  C   UNL     1       6.889   5.545  19.182  0.00  0.00    +0.000 C 
ATOM      2  O   UNL     1       7.955   5.459  19.778  0.00  0.00    +0.000 OA
ATOM      3  N   UNL     1       6.841   5.618  17.824  0.00  0.00    +0.000 N 
ATOM      4  H   UNL     1       7.742   5.431  17.408  0.00  0.00    +0.000 HD
ENDROOT
BRANCH   1   5
ATOM      5  O   UNL     1       5.665   5.396  19.723  0.00  0.00    +0.000 OA
BRANCH   5   6
ATOM      6  C   UNL     1       5.010   4.175  19.358  0.00  0.00    +0.000 C 
BRANCH   6   7
ATOM      7  C   UNL     1       3.504   4.398  19.022  0.00  0.00    +0.000 C 
BRANCH   7   8
ATOM      8  C   UNL     1       2.991   5.803  19.520  0.00  0.00    +0.000 C 
ATOM      9  C   UNL     1       2.576   6.772  18.405  0.00  0.00    +0.000 C 
BRANCH   8  10
ATOM     10  C   UNL     1       1.810   5.730  20.514  0.00  0.00    +0.000 C 
ATOM     11  C   UNL     1       1.213   4.343  20.661  0.00  0.00    +0.000 C 
ENDBRANCH   8  10
ENDBRANCH   7   8
BRANCH   7  12
ATOM     12  C   UNL     1       3.131   4.140  17.537  0.00  0.00    +0.000 C 
BRANCH  12  14
ATOM     13  C   UNL     1       2.266   1.910  18.318  0.00  0.00    +0.000 C 
ATOM     14  C   UNL     1       2.887   2.675  17.155  0.00  0.00    +0.000 C 
ENDBRANCH  12  14
ENDBRANCH   7  12
ENDBRANCH   6   7
ENDBRANCH   5   6
ENDBRANCH   1   5
BRANCH   3  15
ATOM     15  C   UNL     1       5.937   6.492  17.113  0.00  0.00    +0.000 C 
BRANCH  15  16
ATOM     16  C   UNL     1       5.858   6.078  15.652  0.00  0.00    +0.000 C 
BRANCH  16  17
ATOM     17  C   UNL     1       7.023   5.164  15.284  0.00  0.00    +0.000 C 
BRANCH  17  18
ATOM     18  N   UNL     1       6.873   4.616  13.959  0.00  0.00    +0.000 N 
ATOM     19  C   UNL     1       5.950   3.690  13.575  0.00  0.00    +0.000 A 
ATOM     20  C   UNL     1       6.202   3.486  12.240  0.00  0.00    +0.000 A 
ATOM     21  N   UNL     1       7.253   4.261  11.815  0.00  0.00    +0.000 NA
ATOM     22  C   UNL     1       7.642   4.930  12.877  0.00  0.00    +0.000 A 
ENDBRANCH  17  18
ENDBRANCH  16  17
ENDBRANCH  15  16
ENDBRANCH   3  15
TORSDOF 11
ENDMDL
MODEL 4
REMARK VINA RESULT:      -5.6      2.550      5.670
REMARK  Name = 
REMARK  14 active torsions:
REMARK  status: ('A' for Active; 'I' for Inactive)
REMARK    1  A    between atoms: C_1  and  C_2
REMARK    2  A    between atoms: C_2  and  C_3
REMARK    3  A    between atoms: C_3  and  C_4
REMARK    4  A    between atoms: C_4  and  C_5
REMARK    5  A    between atoms: C_4  and  C_18
REMARK    6  A    between atoms: C_5  and  O_6
REMARK    7  A    between atoms: O_6  and  C_7
REMARK    8  A    between atoms: N_9  and  C_10
REMARK    9  A    between atoms: C_10  and  C_11
REMARK   10  A    between atoms: C_11  and  C_12
REMARK   11  A    between atoms: C_12  and  N_13
REMARK   12  A    between atoms: C_18  and  C_19
REMARK   13  A    between atoms: C_18  and  C_20
REMARK   14  A    between atoms: C_20  and  C_21
REMARK                            x       y       z     vdW  Elec       q    Type
REMARK                         _______ _______ _______ _____ _____    ______ ____
ROOT
ATOM      1  C   UNL     1       2.791   5.858  18.370  0.00  0.00    +0.000 C 
ATOM      2  O   UNL     1       2.835   6.303  19.510  0.00  0.00    +0.000 OA
ATOM      3  N   UNL     1       1.956   4.834  18.042  0.00  0.00    +0.000 N 
ATOM      4  H   UNL     1       1.304   4.630  18.785  0.00  0.00    +0.000 HD
ENDROOT
BRANCH   1   5
ATOM      5  O   UNL     1       3.379   6.399  17.286  0.00  0.00    +0.000 OA
BRANCH   5   6
ATOM      6  C   UNL     1       4.668   6.967  17.543  0.00  0.00    +0.000 C 
BRANCH   6   7
ATOM      7  C   UNL     1       5.801   6.218  16.779  0.00  0.00    +0.000 C 
BRANCH   7   8
ATOM      8  C   UNL     1       6.337   4.976  17.590  0.00  0.00    +0.000 C 
ATOM      9  C   UNL     1       7.741   4.502  17.193  0.00  0.00    +0.000 C 
BRANCH   8  10
ATOM     10  C   UNL     1       6.347   5.177  19.122  0.00  0.00    +0.000 C 
ATOM     11  C   UNL     1       7.640   5.763  19.658  0.00  0.00    +0.000 C 
ENDBRANCH   8  10
ENDBRANCH   7   8
BRANCH   7  12
ATOM     12  C   UNL     1       5.451   5.843  15.314  0.00  0.00    +0.000 C 
BRANCH  12  14
ATOM     13  C   UNL     1       6.137   3.979  13.770  0.00  0.00    +0.000 C 
ATOM     14  C   UNL     1       5.341   4.343  15.017  0.00  0.00    +0.000 C 
ENDBRANCH  12  14
ENDBRANCH   7  12
ENDBRANCH   6   7
ENDBRANCH   5   6
ENDBRANCH   1   5
BRANCH   3  15
ATOM     15  C   UNL     1       2.342   3.753  17.166  0.00  0.00    +0.000 C 
BRANCH  15  16
ATOM     16  C   UNL     1       3.493   2.973  17.782  0.00  0.00    +0.000 C 
BRANCH  16  17
ATOM     17  C   UNL     1       2.972   1.810  18.620  0.00  0.00    +0.000 C 
BRANCH  17  18
ATOM     18  N   UNL     1       2.514   2.249  19.915  0.00  0.00    +0.000 N 
ATOM     19  C   UNL     1       1.216   2.391  20.300  0.00  0.00    +0.000 A 
ATOM     20  C   UNL     1       1.288   2.830  21.600  0.00  0.00    +0.000 A 
ATOM     21  N   UNL     1       2.595   2.959  22.002  0.00  0.00    +0.000 NA
ATOM     22  C   UNL     1       3.314   2.606  20.961  0.00  0.00    +0.000 A 
ENDBRANCH  17  18
ENDBRANCH  16  17
ENDBRANCH  15  16
ENDBRANCH   3  15
TORSDOF 11
ENDMDL
MODEL 5
REMARK VINA RESULT:      -5.6      3.841      5.389
REMARK  Name = 
REMARK  14 active torsions:
REMARK  status: ('A' for Active; 'I' for Inactive)
REMARK    1  A    between atoms: C_1  and  C_2
REMARK    2  A    between atoms: C_2  and  C_3
REMARK    3  A    between atoms: C_3  and  C_4
REMARK    4  A    between atoms: C_4  and  C_5
REMARK    5  A    between atoms: C_4  and  C_18
REMARK    6  A    between atoms: C_5  and  O_6
REMARK    7  A    between atoms: O_6  and  C_7
REMARK    8  A    between atoms: N_9  and  C_10
REMARK    9  A    between atoms: C_10  and  C_11
REMARK   10  A    between atoms: C_11  and  C_12
REMARK   11  A    between atoms: C_12  and  N_13
REMARK   12  A    between atoms: C_18  and  C_19
REMARK   13  A    between atoms: C_18  and  C_20
REMARK   14  A    between atoms: C_20  and  C_21
REMARK                            x       y       z     vdW  Elec       q    Type
REMARK                         _______ _______ _______ _____ _____    ______ ____
ROOT
ATOM      1  C   UNL     1       6.580   5.998  16.720  0.00  0.00    +0.000 C 
ATOM      2  O   UNL     1       6.740   5.172  15.831  0.00  0.00    +0.000 OA
ATOM      3  N   UNL     1       7.330   7.133  16.776  0.00  0.00    +0.000 N 
ATOM      4  H   UNL     1       7.877   7.261  15.937  0.00  0.00    +0.000 HD
ENDROOT
BRANCH   1   5
ATOM      5  O   UNL     1       5.574   6.013  17.616  0.00  0.00    +0.000 OA
BRANCH   5   6
ATOM      6  C   UNL     1       4.346   5.465  17.123  0.00  0.00    +0.000 C 
BRANCH   6   7
ATOM      7  C   UNL     1       3.279   5.314  18.250  0.00  0.00    +0.000 C 
BRANCH   7   8
ATOM      8  C   UNL     1       2.966   6.692  18.951  0.00  0.00    +0.000 C 
ATOM      9  C   UNL     1       2.384   7.769  18.027  0.00  0.00    +0.000 C 
BRANCH   8  10
ATOM     10  C   UNL     1       2.018   6.583  20.167  0.00  0.00    +0.000 C 
ATOM     11  C   UNL     1       1.553   7.923  20.706  0.00  0.00    +0.000 C 
ENDBRANCH   8  10
ENDBRANCH   7   8
BRANCH   7  12
ATOM     12  C   UNL     1       1.982   4.580  17.815  0.00  0.00    +0.000 C 
BRANCH  12  14
ATOM     13  C   UNL     1       0.874   3.023  19.450  0.00  0.00    +0.000 C 
ATOM     14  C   UNL     1       1.850   3.126  18.284  0.00  0.00    +0.000 C 
ENDBRANCH  12  14
ENDBRANCH   7  12
ENDBRANCH   6   7
ENDBRANCH   5   6
ENDBRANCH   1   5
BRANCH   3  15
ATOM     15  C   UNL     1       7.848   7.675  18.010  0.00  0.00    +0.000 C 
BRANCH  15  16
ATOM     16  C   UNL     1       8.104   9.165  17.854  0.00  0.00    +0.000 C 
BRANCH  16  17
ATOM     17  C   UNL     1       9.029   9.675  18.956  0.00  0.00    +0.000 C 
BRANCH  17  18
ATOM     18  N   UNL     1       9.562  10.978  18.645  0.00  0.00    +0.000 N 
ATOM     19  C   UNL     1      10.761  11.472  19.059  0.00  0.00    +0.000 A 
ATOM     20  C   UNL     1      10.819  12.733  18.518  0.00  0.00    +0.000 A 
ATOM     21  N   UNL     1       9.685  13.009  17.795  0.00  0.00    +0.000 NA
ATOM     22  C   UNL     1       8.940  11.932  17.894  0.00  0.00    +0.000 A 
ENDBRANCH  17  18
ENDBRANCH  16  17
ENDBRANCH  15  16
ENDBRANCH   3  15
TORSDOF 11
ENDMDL
MODEL 6
REMARK VINA RESULT:      -5.6      0.991      1.274
REMARK  Name = 
REMARK  14 active torsions:
REMARK  status: ('A' for Active; 'I' for Inactive)
REMARK    1  A    between atoms: C_1  and  C_2
REMARK    2  A    between atoms: C_2  and  C_3
REMARK    3  A    between atoms: C_3  and  C_4
REMARK    4  A    between atoms: C_4  and  C_5
REMARK    5  A    between atoms: C_4  and  C_18
REMARK    6  A    between atoms: C_5  and  O_6
REMARK    7  A    between atoms: O_6  and  C_7
REMARK    8  A    between atoms: N_9  and  C_10
REMARK    9  A    between atoms: C_10  and  C_11
REMARK   10  A    between atoms: C_11  and  C_12
REMARK   11  A    between atoms: C_12  and  N_13
REMARK   12  A    between atoms: C_18  and  C_19
REMARK   13  A    between atoms: C_18  and  C_20
REMARK   14  A    between atoms: C_20  and  C_21
REMARK                            x       y       z     vdW  Elec       q    Type
REMARK                         _______ _______ _______ _____ _____    ______ ____
ROOT
ATOM      1  C   UNL     1       5.068   3.520  19.140  0.00  0.00    +0.000 C 
ATOM      2  O   UNL     1       4.815   2.510  19.784  0.00  0.00    +0.000 OA
ATOM      3  N   UNL     1       6.270   4.150  19.254  0.00  0.00    +0.000 N 
ATOM      4  H   UNL     1       6.932   3.599  19.781  0.00  0.00    +0.000 HD
ENDROOT
BRANCH   1   5
ATOM      5  O   UNL     1       4.325   4.028  18.139  0.00  0.00    +0.000 OA
BRANCH   5   6
ATOM      6  C   UNL     1       3.149   3.266  17.841  0.00  0.00    +0.000 C 
BRANCH   6   7
ATOM      7  C   UNL     1       1.854   4.130  17.933  0.00  0.00    +0.000 C 
BRANCH   7   8
ATOM      8  C   UNL     1       0.858   3.583  19.027  0.00  0.00    +0.000 C 
ATOM      9  C   UNL     1       0.623   2.067  18.985  0.00  0.00    +0.000 C 
BRANCH   8  10
ATOM     10  C   UNL     1       1.253   3.938  20.478  0.00  0.00    +0.000 C 
ATOM     11  C   UNL     1       1.677   2.742  21.310  0.00  0.00    +0.000 C 
ENDBRANCH   8  10
ENDBRANCH   7   8
BRANCH   7  12
ATOM     12  C   UNL     1       2.106   5.653  18.092  0.00  0.00    +0.000 C 
BRANCH  12  14
ATOM     13  C   UNL     1       2.108   7.486  19.815  0.00  0.00    +0.000 C 
ATOM     14  C   UNL     1       2.638   6.103  19.458  0.00  0.00    +0.000 C 
ENDBRANCH  12  14
ENDBRANCH   7  12
ENDBRANCH   6   7
ENDBRANCH   5   6
ENDBRANCH   1   5
BRANCH   3  15
ATOM     15  C   UNL     1       6.405   5.587  19.291  0.00  0.00    +0.000 C 
BRANCH  15  16
ATOM     16  C   UNL     1       7.630   6.013  18.496  0.00  0.00    +0.000 C 
BRANCH  16  17
ATOM     17  C   UNL     1       7.221   6.677  17.184  0.00  0.00    +0.000 C 
BRANCH  17  18
ATOM     18  N   UNL     1       6.648   5.728  16.262  0.00  0.00    +0.000 N 
ATOM     19  C   UNL     1       5.485   5.885  15.571  0.00  0.00    +0.000 A 
ATOM     20  C   UNL     1       5.361   4.730  14.838  0.00  0.00    +0.000 A 
ATOM     21  N   UNL     1       6.417   3.884  15.074  0.00  0.00    +0.000 NA
ATOM     22  C   UNL     1       7.176   4.512  15.943  0.00  0.00    +0.000 A 
ENDBRANCH  17  18
ENDBRANCH  16  17
ENDBRANCH  15  16
ENDBRANCH   3  15
TORSDOF 11
ENDMDL
MODEL 7
REMARK VINA RESULT:      -5.6      3.421      5.076
REMARK  Name = 
REMARK  14 active torsions:
REMARK  status: ('A' for Active; 'I' for Inactive)
REMARK    1  A    between atoms: C_1  and  C_2
REMARK    2  A    between atoms: C_2  and  C_3
REMARK    3  A    between atoms: C_3  and  C_4
REMARK    4  A    between atoms: C_4  and  C_5
REMARK    5  A    between atoms: C_4  and  C_18
REMARK    6  A    between atoms: C_5  and  O_6
REMARK    7  A    between atoms: O_6  and  C_7
REMARK    8  A    between atoms: N_9  and  C_10
REMARK    9  A    between atoms: C_10  and  C_11
REMARK   10  A    between atoms: C_11  and  C_12
REMARK   11  A    between atoms: C_12  and  N_13
REMARK   12  A    between atoms: C_18  and  C_19
REMARK   13  A    between atoms: C_18  and  C_20
REMARK   14  A    between atoms: C_20  and  C_21
REMARK                            x       y       z     vdW  Elec       q    Type
REMARK                         _______ _______ _______ _____ _____    ______ ____
ROOT
ATOM      1  C   UNL     1       5.548   6.809  16.701  0.00  0.00    +0.000 C 
ATOM      2  O   UNL     1       5.140   6.498  15.589  0.00  0.00    +0.000 OA
ATOM      3  N   UNL     1       6.850   7.147  16.908  0.00  0.00    +0.000 N 
ATOM      4  H   UNL     1       7.350   7.260  16.038  0.00  0.00    +0.000 HD
ENDROOT
BRANCH   1   5
ATOM      5  O   UNL     1       4.787   7.041  17.787  0.00  0.00    +0.000 OA
BRANCH   5   6
ATOM      6  C   UNL     1       3.412   6.670  17.627  0.00  0.00    +0.000 C 
BRANCH   6   7
ATOM      7  C   UNL     1       3.057   5.380  18.428  0.00  0.00    +0.000 C 
BRANCH   7   8
ATOM      8  C   UNL     1       2.617   5.708  19.907  0.00  0.00    +0.000 C 
ATOM      9  C   UNL     1       2.096   7.135  20.123  0.00  0.00    +0.000 C 
BRANCH   8  10
ATOM     10  C   UNL     1       1.550   4.748  20.478  0.00  0.00    +0.000 C 
ATOM     11  C   UNL     1       2.098   3.736  21.467  0.00  0.00    +0.000 C 
ENDBRANCH   8  10
ENDBRANCH   7   8
BRANCH   7  12
ATOM     12  C   UNL     1       2.046   4.440  17.720  0.00  0.00    +0.000 C 
BRANCH  12  14
ATOM     13  C   UNL     1       2.636   2.033  18.152  0.00  0.00    +0.000 C 
ATOM     14  C   UNL     1       2.634   3.156  17.122  0.00  0.00    +0.000 C 
ENDBRANCH  12  14
ENDBRANCH   7  12
ENDBRANCH   6   7
ENDBRANCH   5   6
ENDBRANCH   1   5
BRANCH   3  15
ATOM     15  C   UNL     1       7.599   6.723  18.068  0.00  0.00    +0.000 C 
BRANCH  15  16
ATOM     16  C   UNL     1       8.449   7.873  18.585  0.00  0.00    +0.000 C 
BRANCH  16  17
ATOM     17  C   UNL     1       8.138   9.160  17.827  0.00  0.00    +0.000 C 
BRANCH  17  18
ATOM     18  N   UNL     1       8.793  10.300  18.420  0.00  0.00    +0.000 N 
ATOM     19  C   UNL     1       9.412  10.326  19.633  0.00  0.00    +0.000 A 
ATOM     20  C   UNL     1       9.874  11.613  19.757  0.00  0.00    +0.000 A 
ATOM     21  N   UNL     1       9.544  12.361  18.652  0.00  0.00    +0.000 NA
ATOM     22  C   UNL     1       8.886  11.542  17.864  0.00  0.00    +0.000 A 
ENDBRANCH  17  18
ENDBRANCH  16  17
ENDBRANCH  15  16
ENDBRANCH   3  15
TORSDOF 11
ENDMDL
MODEL 8
REMARK VINA RESULT:      -5.6      3.885      5.347
REMARK  Name = 
REMARK  14 active torsions:
REMARK  status: ('A' for Active; 'I' for Inactive)
REMARK    1  A    between atoms: C_1  and  C_2
REMARK    2  A    between atoms: C_2  and  C_3
REMARK    3  A    between atoms: C_3  and  C_4
REMARK    4  A    between atoms: C_4  and  C_5
REMARK    5  A    between atoms: C_4  and  C_18
REMARK    6  A    between atoms: C_5  and  O_6
REMARK    7  A    between atoms: O_6  and  C_7
REMARK    8  A    between atoms: N_9  and  C_10
REMARK    9  A    between atoms: C_10  and  C_11
REMARK   10  A    between atoms: C_11  and  C_12
REMARK   11  A    between atoms: C_12  and  N_13
REMARK   12  A    between atoms: C_18  and  C_19
REMARK   13  A    between atoms: C_18  and  C_20
REMARK   14  A    between atoms: C_20  and  C_21
REMARK                            x       y       z     vdW  Elec       q    Type
REMARK                         _______ _______ _______ _____ _____    ______ ____
ROOT
ATOM      1  C   UNL     1       6.204   6.268  16.767  0.00  0.00    +0.000 C 
ATOM      2  O   UNL     1       5.711   6.035  15.670  0.00  0.00    +0.000 OA
ATOM      3  N   UNL     1       6.581   7.527  17.121  0.00  0.00    +0.000 N 
ATOM      4  H   UNL     1       6.257   8.214  16.456  0.00  0.00    +0.000 HD
ENDROOT
BRANCH   1   5
ATOM      5  O   UNL     1       6.270   5.410  17.803  0.00  0.00    +0.000 OA
BRANCH   5   6
ATOM      6  C   UNL     1       5.232   5.588  18.775  0.00  0.00    +0.000 C 
BRANCH   6   7
ATOM      7  C   UNL     1       3.821   5.662  18.116  0.00  0.00    +0.000 C 
BRANCH   7   8
ATOM      8  C   UNL     1       3.046   4.293  18.229  0.00  0.00    +0.000 C 
ATOM      9  C   UNL     1       1.607   4.320  17.697  0.00  0.00    +0.000 C 
BRANCH   8  10
ATOM     10  C   UNL     1       3.757   3.104  17.544  0.00  0.00    +0.000 C 
ATOM     11  C   UNL     1       3.422   1.754  18.150  0.00  0.00    +0.000 C 
ENDBRANCH   8  10
ENDBRANCH   7   8
BRANCH   7  12
ATOM     12  C   UNL     1       2.952   6.858  18.588  0.00  0.00    +0.000 C 
BRANCH  12  14
ATOM     13  C   UNL     1       1.678   8.943  17.988  0.00  0.00    +0.000 C 
ATOM     14  C   UNL     1       2.834   8.027  17.603  0.00  0.00    +0.000 C 
ENDBRANCH  12  14
ENDBRANCH   7  12
ENDBRANCH   6   7
ENDBRANCH   5   6
ENDBRANCH   1   5
BRANCH   3  15
ATOM     15  C   UNL     1       7.795   7.810  17.848  0.00  0.00    +0.000 C 
BRANCH  15  16
ATOM     16  C   UNL     1       8.104   9.298  17.783  0.00  0.00    +0.000 C 
BRANCH  16  17
ATOM     17  C   UNL     1       9.009   9.715  18.938  0.00  0.00    +0.000 C 
BRANCH  17  18
ATOM     18  N   UNL     1       9.653  10.979  18.681  0.00  0.00    +0.000 N 
ATOM     19  C   UNL     1      10.878  11.362  19.138  0.00  0.00    +0.000 A 
ATOM     20  C   UNL     1      11.050  12.630  18.639  0.00  0.00    +0.000 A 
ATOM     21  N   UNL     1       9.960  13.019  17.900  0.00  0.00    +0.000 NA
ATOM     22  C   UNL     1       9.129  12.003  17.947  0.00  0.00    +0.000 A 
ENDBRANCH  17  18
ENDBRANCH  16  17
ENDBRANCH  15  16
ENDBRANCH   3  15
TORSDOF 11
ENDMDL
MODEL 9
REMARK VINA RESULT:      -5.5      4.329      5.896
REMARK  Name = 
REMARK  14 active torsions:
REMARK  status: ('A' for Active; 'I' for Inactive)
REMARK    1  A    between atoms: C_1  and  C_2
REMARK    2  A    between atoms: C_2  and  C_3
REMARK    3  A    between atoms: C_3  and  C_4
REMARK    4  A    between atoms: C_4  and  C_5
REMARK    5  A    between atoms: C_4  and  C_18
REMARK    6  A    between atoms: C_5  and  O_6
REMARK    7  A    between atoms: O_6  and  C_7
REMARK    8  A    between atoms: N_9  and  C_10
REMARK    9  A    between atoms: C_10  and  C_11
REMARK   10  A    between atoms: C_11  and  C_12
REMARK   11  A    between atoms: C_12  and  N_13
REMARK   12  A    between atoms: C_18  and  C_19
REMARK   13  A    between atoms: C_18  and  C_20
REMARK   14  A    between atoms: C_20  and  C_21
REMARK                            x       y       z     vdW  Elec       q    Type
REMARK                         _______ _______ _______ _____ _____    ______ ____
ROOT
ATOM      1  C   UNL     1       7.238   6.419  17.068  0.00  0.00    +0.000 C 
ATOM      2  O   UNL     1       7.333   5.827  16.001  0.00  0.00    +0.000 OA
ATOM      3  N   UNL     1       7.559   7.738  17.177  0.00  0.00    +0.000 N 
ATOM      4  H   UNL     1       7.710   8.161  16.273  0.00  0.00    +0.000 HD
ENDROOT
BRANCH   1   5
ATOM      5  O   UNL     1       6.657   5.947  18.187  0.00  0.00    +0.000 OA
BRANCH   5   6
ATOM      6  C   UNL     1       5.887   4.756  17.987  0.00  0.00    +0.000 C 
BRANCH   6   7
ATOM      7  C   UNL     1       4.924   4.474  19.181  0.00  0.00    +0.000 C 
BRANCH   7   8
ATOM      8  C   UNL     1       3.816   5.587  19.318  0.00  0.00    +0.000 C 
ATOM      9  C   UNL     1       3.279   6.132  17.988  0.00  0.00    +0.000 C 
BRANCH   8  10
ATOM     10  C   UNL     1       2.590   5.160  20.157  0.00  0.00    +0.000 C 
ATOM     11  C   UNL     1       1.686   6.312  20.556  0.00  0.00    +0.000 C 
ENDBRANCH   8  10
ENDBRANCH   7   8
BRANCH   7  12
ATOM     12  C   UNL     1       4.314   3.046  19.193  0.00  0.00    +0.000 C 
BRANCH  12  14
ATOM     13  C   UNL     1       2.317   2.296  17.859  0.00  0.00    +0.000 C 
ATOM     14  C   UNL     1       3.825   2.519  17.838  0.00  0.00    +0.000 C 
ENDBRANCH  12  14
ENDBRANCH   7  12
ENDBRANCH   6   7
ENDBRANCH   5   6
ENDBRANCH   1   5
BRANCH   3  15
ATOM     15  C   UNL     1       8.273   8.284  18.307  0.00  0.00    +0.000 C 
BRANCH  15  16
ATOM     16  C   UNL     1       8.526   9.768  18.093  0.00  0.00    +0.000 C 
BRANCH  16  17
ATOM     17  C   UNL     1       9.419  10.330  19.195  0.00  0.00    +0.000 C 
BRANCH  17  18
ATOM     18  N   UNL     1       9.774  11.705  18.944  0.00  0.00    +0.000 N 
ATOM     19  C   UNL     1       9.229  12.797  19.548  0.00  0.00    +0.000 A 
ATOM     20  C   UNL     1       9.881  13.865  18.983  0.00  0.00    +0.000 A 
ATOM     21  N   UNL     1      10.799  13.443  18.053  0.00  0.00    +0.000 NA
ATOM     22  C   UNL     1      10.709  12.133  18.047  0.00  0.00    +0.000 A 
ENDBRANCH  17  18
ENDBRANCH  16  17
ENDBRANCH  15  16
ENDBRANCH   3  15
TORSDOF 11
ENDMDL
