MODEL 1
REMARK VINA RESULT:      -6.8      0.000      0.000
REMARK  Name = 
REMARK  4 active torsions:
REMARK  status: ('A' for Active; 'I' for Inactive)
REMARK    1  A    between atoms: C_1  and  C_2
REMARK    2  A    between atoms: N_5  and  C_6
REMARK    3  A    between atoms: C_8  and  S_9
REMARK    4  A    between atoms: C_10  and  C_11
REMARK                            x       y       z     vdW  Elec       q    Type
REMARK                         _______ _______ _______ _____ _____    ______ ____
ROOT
ATOM      1  C   UNL     1       4.632   3.931  16.729  0.00  0.00    +0.000 A 
ATOM      2  N   UNL     1       4.638   3.576  15.423  0.00  0.00    +0.000 NA
ATOM      3  C   UNL     1       5.590   4.053  14.585  0.00  0.00    +0.000 A 
ATOM      4  C   UNL     1       6.600   4.911  15.000  0.00  0.00    +0.000 A 
ATOM      5  C   UNL     1       6.632   5.284  16.354  0.00  0.00    +0.000 A 
ATOM      6  C   UNL     1       5.656   4.758  17.242  0.00  0.00    +0.000 A 
ATOM      7  C   UNL     1       5.748   5.086  18.720  0.00  0.00    +0.000 C 
ATOM      8  C   UNL     1       7.089   5.639  19.182  0.00  0.00    +0.000 C 
ATOM      9  C   UNL     1       7.504   6.759  18.250  0.00  0.00    +0.000 C 
ATOM     10  C   UNL     1       7.744   6.190  16.857  0.00  0.00    +0.000 C 
ENDROOT
BRANCH   1  15
ATOM     11  C   UNL     1       1.242   3.017  21.040  0.00  0.00    +0.000 C 
ATOM     12  C   UNL     1       1.661   2.927  19.575  0.00  0.00    +0.000 C 
ATOM     13  C   UNL     1       2.985   2.173  19.470  0.00  0.00    +0.000 C 
ATOM     14  C   UNL     1       3.499   2.121  18.037  0.00  0.00    +0.000 C 
ATOM     15  N   UNL     1       3.565   3.458  17.464  0.00  0.00    +0.000 N 
ATOM     16  C   UNL     1       2.338   4.257  17.513  0.00  0.00    +0.000 C 
ATOM     17  C   UNL     1       1.796   4.321  18.945  0.00  0.00    +0.000 C 
ENDBRANCH   1  15
BRANCH   3  18
ATOM     18  S   UNL     1       5.416   3.487  12.906  0.00  0.00    +0.000 S 
ATOM     19  H   UNL     1       6.099   4.514  12.384  0.00  0.00    +0.000 HD
ENDBRANCH   3  18
BRANCH   4  20
ATOM     20  C   UNL     1       7.589   5.386  14.076  0.00  0.00    +0.000 C 
ATOM     21  N   UNL     1       8.422   5.770  13.362  0.00  0.00    +0.000 NA
ENDBRANCH   4  20
TORSDOF 3
ENDMDL
MODEL 2
REMARK VINA RESULT:      -6.7      3.999      5.736
REMARK  Name = 
REMARK  4 active torsions:
REMARK  status: ('A' for Active; 'I' for Inactive)
REMARK    1  A    between atoms: C_1  and  C_2
REMARK    2  A    between atoms: N_5  and  C_6
REMARK    3  A    between atoms: C_8  and  S_9
REMARK    4  A    between atoms: C_10  and  C_11
REMARK                            x       y       z     vdW  Elec       q    Type
REMARK                         _______ _______ _______ _____ _____    ______ ____
ROOT
ATOM      1  C   UNL     1       2.592   6.413  18.944  0.00  0.00    +0.000 A 
ATOM      2  N   UNL     1       1.989   5.484  19.722  0.00  0.00    +0.000 NA
ATOM      3  C   UNL     1       2.275   4.169  19.571  0.00  0.00    +0.000 A 
ATOM      4  C   UNL     1       3.187   3.697  18.636  0.00  0.00    +0.000 A 
ATOM      5  C   UNL     1       3.844   4.637  17.825  0.00  0.00    +0.000 A 
ATOM      6  C   UNL     1       3.572   6.020  18.005  0.00  0.00    +0.000 A 
ATOM      7  C   UNL     1       4.351   7.038  17.195  0.00  0.00    +0.000 C 
ATOM      8  C   UNL     1       5.618   6.513  16.535  0.00  0.00    +0.000 C 
ATOM      9  C   UNL     1       5.293   5.227  15.804  0.00  0.00    +0.000 C 
ATOM     10  C   UNL     1       4.879   4.166  16.816  0.00  0.00    +0.000 C 
ENDROOT
BRANCH   1  15
ATOM     11  C   UNL     1      -0.835  10.773  19.337  0.00  0.00    +0.000 C 
ATOM     12  C   UNL     1       0.520  10.074  19.426  0.00  0.00    +0.000 C 
ATOM     13  C   UNL     1       0.896   9.519  18.055  0.00  0.00    +0.000 C 
ATOM     14  C   UNL     1       2.203   8.736  18.095  0.00  0.00    +0.000 C 
ATOM     15  N   UNL     1       2.156   7.709  19.126  0.00  0.00    +0.000 N 
ATOM     16  C   UNL     1       1.808   8.148  20.479  0.00  0.00    +0.000 C 
ATOM     17  C   UNL     1       0.499   8.944  20.466  0.00  0.00    +0.000 C 
ENDBRANCH   1  15
BRANCH   3  18
ATOM     18  S   UNL     1       1.365   3.105  20.672  0.00  0.00    +0.000 S 
ATOM     19  H   UNL     1       2.436   2.379  21.015  0.00  0.00    +0.000 HD
ENDBRANCH   3  18
BRANCH   4  20
ATOM     20  C   UNL     1       3.461   2.294  18.516  0.00  0.00    +0.000 C 
ATOM     21  N   UNL     1       3.674   1.153  18.465  0.00  0.00    +0.000 NA
ENDBRANCH   4  20
TORSDOF 3
ENDMDL
MODEL 3
REMARK VINA RESULT:      -6.2      3.674      4.995
REMARK  Name = 
REMARK  4 active torsions:
REMARK  status: ('A' for Active; 'I' for Inactive)
REMARK    1  A    between atoms: C_1  and  C_2
REMARK    2  A    between atoms: N_5  and  C_6
REMARK    3  A    between atoms: C_8  and  S_9
REMARK    4  A    between atoms: C_10  and  C_11
REMARK                            x       y       z     vdW  Elec       q    Type
REMARK                         _______ _______ _______ _____ _____    ______ ____
ROOT
ATOM      1  C   UNL     1       3.423   6.758  18.186  0.00  0.00    +0.000 A 
ATOM      2  N   UNL     1       4.591   7.410  17.981  0.00  0.00    +0.000 NA
ATOM      3  C   UNL     1       5.699   6.733  17.593  0.00  0.00    +0.000 A 
ATOM      4  C   UNL     1       5.709   5.361  17.381  0.00  0.00    +0.000 A 
ATOM      5  C   UNL     1       4.508   4.657  17.568  0.00  0.00    +0.000 A 
ATOM      6  C   UNL     1       3.337   5.369  17.940  0.00  0.00    +0.000 A 
ATOM      7  C   UNL     1       2.021   4.623  18.049  0.00  0.00    +0.000 C 
ATOM      8  C   UNL     1       1.993   3.252  17.386  0.00  0.00    +0.000 C 
ATOM      9  C   UNL     1       3.212   2.470  17.828  0.00  0.00    +0.000 C 
ATOM     10  C   UNL     1       4.467   3.159  17.308  0.00  0.00    +0.000 C 
ENDROOT
BRANCH   1  15
ATOM     11  C   UNL     1       0.731  11.038  20.498  0.00  0.00    +0.000 C 
ATOM     12  C   UNL     1       0.821   9.691  19.785  0.00  0.00    +0.000 C 
ATOM     13  C   UNL     1       1.579   8.699  20.665  0.00  0.00    +0.000 C 
ATOM     14  C   UNL     1       1.774   7.356  19.973  0.00  0.00    +0.000 C 
ATOM     15  N   UNL     1       2.389   7.535  18.665  0.00  0.00    +0.000 N 
ATOM     16  C   UNL     1       1.728   8.465  17.747  0.00  0.00    +0.000 C 
ATOM     17  C   UNL     1       1.515   9.824  18.422  0.00  0.00    +0.000 C 
ENDBRANCH   1  15
BRANCH   3  18
ATOM     18  S   UNL     1       7.137   7.764  17.395  0.00  0.00    +0.000 S 
ATOM     19  H   UNL     1       7.197   7.596  16.068  0.00  0.00    +0.000 HD
ENDBRANCH   3  18
BRANCH   4  20
ATOM     20  C   UNL     1       6.906   4.689  16.966  0.00  0.00    +0.000 C 
ATOM     21  N   UNL     1       7.901   4.181  16.646  0.00  0.00    +0.000 NA
ENDBRANCH   4  20
TORSDOF 3
ENDMDL
MODEL 4
REMARK VINA RESULT:      -6.2      2.878      6.286
REMARK  Name = 
REMARK  4 active torsions:
REMARK  status: ('A' for Active; 'I' for Inactive)
REMARK    1  A    between atoms: C_1  and  C_2
REMARK    2  A    between atoms: N_5  and  C_6
REMARK    3  A    between atoms: C_8  and  S_9
REMARK    4  A    between atoms: C_10  and  C_11
REMARK                            x       y       z     vdW  Elec       q    Type
REMARK                         _______ _______ _______ _____ _____    ______ ____
ROOT
ATOM      1  C   UNL     1       4.148   5.247  18.013  0.00  0.00    +0.000 A 
ATOM      2  N   UNL     1       3.762   6.528  17.807  0.00  0.00    +0.000 NA
ATOM      3  C   UNL     1       2.862   7.116  18.633  0.00  0.00    +0.000 A 
ATOM      4  C   UNL     1       2.296   6.464  19.720  0.00  0.00    +0.000 A 
ATOM      5  C   UNL     1       2.689   5.139  19.971  0.00  0.00    +0.000 A 
ATOM      6  C   UNL     1       3.658   4.532  19.129  0.00  0.00    +0.000 A 
ATOM      7  C   UNL     1       4.152   3.136  19.457  0.00  0.00    +0.000 C 
ATOM      8  C   UNL     1       3.850   2.654  20.869  0.00  0.00    +0.000 C 
ATOM      9  C   UNL     1       2.385   2.902  21.168  0.00  0.00    +0.000 C 
ATOM     10  C   UNL     1       2.122   4.403  21.174  0.00  0.00    +0.000 C 
ENDROOT
BRANCH   1  15
ATOM     11  C   UNL     1       7.412   4.938  13.523  0.00  0.00    +0.000 C 
ATOM     12  C   UNL     1       6.774   4.399  14.801  0.00  0.00    +0.000 C 
ATOM     13  C   UNL     1       5.255   4.387  14.644  0.00  0.00    +0.000 C 
ATOM     14  C   UNL     1       4.554   3.935  15.919  0.00  0.00    +0.000 C 
ATOM     15  N   UNL     1       4.996   4.727  17.059  0.00  0.00    +0.000 N 
ATOM     16  C   UNL     1       6.440   4.793  17.293  0.00  0.00    +0.000 C 
ATOM     17  C   UNL     1       7.172   5.240  16.023  0.00  0.00    +0.000 C 
ENDBRANCH   1  15
BRANCH   3  18
ATOM     18  S   UNL     1       2.469   8.795  18.185  0.00  0.00    +0.000 S 
ATOM     19  H   UNL     1       2.686   8.602  16.878  0.00  0.00    +0.000 HD
ENDBRANCH   3  18
BRANCH   4  20
ATOM     20  C   UNL     1       1.350   7.131  20.568  0.00  0.00    +0.000 C 
ATOM     21  N   UNL     1       0.612   7.709  21.254  0.00  0.00    +0.000 NA
ENDBRANCH   4  20
TORSDOF 3
ENDMDL
MODEL 5
REMARK VINA RESULT:      -5.7      8.281     10.564
REMARK  Name = 
REMARK  4 active torsions:
REMARK  status: ('A' for Active; 'I' for Inactive)
REMARK    1  A    between atoms: C_1  and  C_2
REMARK    2  A    between atoms: N_5  and  C_6
REMARK    3  A    between atoms: C_8  and  S_9
REMARK    4  A    between atoms: C_10  and  C_11
REMARK                            x       y       z     vdW  Elec       q    Type
REMARK                         _______ _______ _______ _____ _____    ______ ____
ROOT
ATOM      1  C   UNL     1      -0.378  10.598  19.753  0.00  0.00    +0.000 A 
ATOM      2  N   UNL     1      -0.370  11.339  20.886  0.00  0.00    +0.000 NA
ATOM      3  C   UNL     1      -1.369  12.219  21.139  0.00  0.00    +0.000 A 
ATOM      4  C   UNL     1      -2.442  12.411  20.280  0.00  0.00    +0.000 A 
ATOM      5  C   UNL     1      -2.489  11.644  19.104  0.00  0.00    +0.000 A 
ATOM      6  C   UNL     1      -1.462  10.696  18.853  0.00  0.00    +0.000 A 
ATOM      7  C   UNL     1      -1.564   9.802  17.631  0.00  0.00    +0.000 C 
ATOM      8  C   UNL     1      -2.941   9.737  16.985  0.00  0.00    +0.000 C 
ATOM      9  C   UNL     1      -3.459  11.147  16.793  0.00  0.00    +0.000 C 
ATOM     10  C   UNL     1      -3.667  11.796  18.155  0.00  0.00    +0.000 C 
ENDROOT
BRANCH   1  15
ATOM     11  C   UNL     1       2.780   6.327  18.110  0.00  0.00    +0.000 C 
ATOM     12  C   UNL     1       2.536   7.701  18.731  0.00  0.00    +0.000 C 
ATOM     13  C   UNL     1       1.624   7.553  19.947  0.00  0.00    +0.000 C 
ATOM     14  C   UNL     1       1.276   8.902  20.565  0.00  0.00    +0.000 C 
ATOM     15  N   UNL     1       0.733   9.805  19.559  0.00  0.00    +0.000 N 
ATOM     16  C   UNL     1       1.542  10.014  18.357  0.00  0.00    +0.000 C 
ATOM     17  C   UNL     1       1.912   8.671  17.718  0.00  0.00    +0.000 C 
ENDBRANCH   1  15
BRANCH   3  18
ATOM     18  S   UNL     1      -1.167  13.111  22.668  0.00  0.00    +0.000 S 
ATOM     19  H   UNL     1       0.051  12.611  22.914  0.00  0.00    +0.000 HD
ENDBRANCH   3  18
BRANCH   4  20
ATOM     20  C   UNL     1      -3.478  13.352  20.595  0.00  0.00    +0.000 C 
ATOM     21  N   UNL     1      -4.317  14.098  20.893  0.00  0.00    +0.000 NA
ENDBRANCH   4  20
TORSDOF 3
ENDMDL
MODEL 6
REMARK VINA RESULT:      -5.7      3.037      6.668
REMARK  Name = 
REMARK  4 active torsions:
REMARK  status: ('A' for Active; 'I' for Inactive)
REMARK    1  A    between atoms: C_1  and  C_2
REMARK    2  A    between atoms: N_5  and  C_6
REMARK    3  A    between atoms: C_8  and  S_9
REMARK    4  A    between atoms: C_10  and  C_11
REMARK                            x       y       z     vdW  Elec       q    Type
REMARK                         _______ _______ _______ _____ _____    ______ ____
ROOT
ATOM      1  C   UNL     1       4.835   4.989  19.077  0.00  0.00    +0.000 A 
ATOM      2  N   UNL     1       5.068   3.687  19.366  0.00  0.00    +0.000 NA
ATOM      3  C   UNL     1       4.189   2.982  20.119  0.00  0.00    +0.000 A 
ATOM      4  C   UNL     1       3.020   3.531  20.627  0.00  0.00    +0.000 A 
ATOM      5  C   UNL     1       2.740   4.875  20.330  0.00  0.00    +0.000 A 
ATOM      6  C   UNL     1       3.642   5.607  19.512  0.00  0.00    +0.000 A 
ATOM      7  C   UNL     1       3.292   7.028  19.114  0.00  0.00    +0.000 C 
ATOM      8  C   UNL     1       1.834   7.420  19.311  0.00  0.00    +0.000 C 
ATOM      9  C   UNL     1       1.405   7.021  20.709  0.00  0.00    +0.000 C 
ATOM     10  C   UNL     1       1.451   5.504  20.835  0.00  0.00    +0.000 C 
ENDROOT
BRANCH   1  15
ATOM     11  C   UNL     1       8.440   8.928  17.527  0.00  0.00    +0.000 C 
ATOM     12  C   UNL     1       7.819   7.533  17.479  0.00  0.00    +0.000 C 
ATOM     13  C   UNL     1       6.348   7.645  17.085  0.00  0.00    +0.000 C 
ATOM     14  C   UNL     1       5.650   6.291  17.099  0.00  0.00    +0.000 C 
ATOM     15  N   UNL     1       5.841   5.627  18.381  0.00  0.00    +0.000 N 
ATOM     16  C   UNL     1       7.222   5.468  18.841  0.00  0.00    +0.000 C 
ATOM     17  C   UNL     1       7.950   6.816  18.831  0.00  0.00    +0.000 C 
ENDBRANCH   1  15
BRANCH   3  18
ATOM     18  S   UNL     1       4.682   1.294  20.404  0.00  0.00    +0.000 S 
ATOM     19  H   UNL     1       3.598   0.997  21.132  0.00  0.00    +0.000 HD
ENDBRANCH   3  18
BRANCH   4  20
ATOM     20  C   UNL     1       2.118   2.743  21.417  0.00  0.00    +0.000 C 
ATOM     21  N   UNL     1       1.387   2.138  22.088  0.00  0.00    +0.000 NA
ENDBRANCH   4  20
TORSDOF 3
ENDMDL
MODEL 7
REMARK VINA RESULT:      -5.7      4.275      5.930
REMARK  Name = 
REMARK  4 active torsions:
REMARK  status: ('A' for Active; 'I' for Inactive)
REMARK    1  A    between atoms: C_1  and  C_2
REMARK    2  A    between atoms: N_5  and  C_6
REMARK    3  A    between atoms: C_8  and  S_9
REMARK    4  A    between atoms: C_10  and  C_11
REMARK                            x       y       z     vdW  Elec       q    Type
REMARK                         _______ _______ _______ _____ _____    ______ ____
ROOT
ATOM      1  C   UNL     1       2.634   6.519  19.292  0.00  0.00    +0.000 A 
ATOM      2  N   UNL     1       2.193   5.645  20.227  0.00  0.00    +0.000 NA
ATOM      3  C   UNL     1       2.769   4.425  20.354  0.00  0.00    +0.000 A 
ATOM      4  C   UNL     1       3.825   4.002  19.559  0.00  0.00    +0.000 A 
ATOM      5  C   UNL     1       4.318   4.893  18.591  0.00  0.00    +0.000 A 
ATOM      6  C   UNL     1       3.740   6.185  18.478  0.00  0.00    +0.000 A 
ATOM      7  C   UNL     1       4.334   7.178  17.498  0.00  0.00    +0.000 C 
ATOM      8  C   UNL     1       5.729   6.838  16.992  0.00  0.00    +0.000 C 
ATOM      9  C   UNL     1       5.744   5.395  16.530  0.00  0.00    +0.000 C 
ATOM     10  C   UNL     1       5.499   4.483  17.726  0.00  0.00    +0.000 C 
ENDROOT
BRANCH   1  15
ATOM     11  C   UNL     1       1.494  11.956  19.077  0.00  0.00    +0.000 C 
ATOM     12  C   UNL     1       1.144  10.472  19.002  0.00  0.00    +0.000 C 
ATOM     13  C   UNL     1       1.455   9.809  20.342  0.00  0.00    +0.000 C 
ATOM     14  C   UNL     1       1.204   8.306  20.307  0.00  0.00    +0.000 C 
ATOM     15  N   UNL     1       1.914   7.691  19.194  0.00  0.00    +0.000 N 
ATOM     16  C   UNL     1       1.674   8.257  17.865  0.00  0.00    +0.000 C 
ATOM     17  C   UNL     1       1.915   9.771  17.874  0.00  0.00    +0.000 C 
ENDBRANCH   1  15
BRANCH   3  18
ATOM     18  S   UNL     1       2.036   3.416  21.625  0.00  0.00    +0.000 S 
ATOM     19  H   UNL     1       2.442   4.207  22.626  0.00  0.00    +0.000 HD
ENDBRANCH   3  18
BRANCH   4  20
ATOM     20  C   UNL     1       4.405   2.702  19.735  0.00  0.00    +0.000 C 
ATOM     21  N   UNL     1       4.888   1.662  19.921  0.00  0.00    +0.000 NA
ENDBRANCH   4  20
TORSDOF 3
ENDMDL
MODEL 8
REMARK VINA RESULT:      -5.6      2.817      6.279
REMARK  Name = 
REMARK  4 active torsions:
REMARK  status: ('A' for Active; 'I' for Inactive)
REMARK    1  A    between atoms: C_1  and  C_2
REMARK    2  A    between atoms: N_5  and  C_6
REMARK    3  A    between atoms: C_8  and  S_9
REMARK    4  A    between atoms: C_10  and  C_11
REMARK                            x       y       z     vdW  Elec       q    Type
REMARK                         _______ _______ _______ _____ _____    ______ ____
ROOT
ATOM      1  C   UNL     1       4.582   4.854  18.206  0.00  0.00    +0.000 A 
ATOM      2  N   UNL     1       4.731   3.586  18.657  0.00  0.00    +0.000 NA
ATOM      3  C   UNL     1       3.985   3.133  19.693  0.00  0.00    +0.000 A 
ATOM      4  C   UNL     1       3.038   3.914  20.341  0.00  0.00    +0.000 A 
ATOM      5  C   UNL     1       2.847   5.230  19.886  0.00  0.00    +0.000 A 
ATOM      6  C   UNL     1       3.603   5.697  18.778  0.00  0.00    +0.000 A 
ATOM      7  C   UNL     1       3.328   7.084  18.227  0.00  0.00    +0.000 C 
ATOM      8  C   UNL     1       2.012   7.710  18.667  0.00  0.00    +0.000 C 
ATOM      9  C   UNL     1       1.887   7.581  20.172  0.00  0.00    +0.000 C 
ATOM     10  C   UNL     1       1.794   6.106  20.543  0.00  0.00    +0.000 C 
ENDROOT
BRANCH   1  15
ATOM     11  C   UNL     1       7.413   4.776  13.421  0.00  0.00    +0.000 C 
ATOM     12  C   UNL     1       6.969   5.386  14.749  0.00  0.00    +0.000 C 
ATOM     13  C   UNL     1       7.378   4.463  15.894  0.00  0.00    +0.000 C 
ATOM     14  C   UNL     1       6.891   4.978  17.243  0.00  0.00    +0.000 C 
ATOM     15  N   UNL     1       5.457   5.232  17.209  0.00  0.00    +0.000 N 
ATOM     16  C   UNL     1       4.969   6.113  16.146  0.00  0.00    +0.000 C 
ATOM     17  C   UNL     1       5.451   5.621  14.777  0.00  0.00    +0.000 C 
ENDBRANCH   1  15
BRANCH   3  18
ATOM     18  S   UNL     1       4.341   1.449  20.149  0.00  0.00    +0.000 S 
ATOM     19  H   UNL     1       4.638   1.751  21.420  0.00  0.00    +0.000 HD
ENDBRANCH   3  18
BRANCH   4  20
ATOM     20  C   UNL     1       2.269   3.388  21.431  0.00  0.00    +0.000 C 
ATOM     21  N   UNL     1       1.661   2.918  22.303  0.00  0.00    +0.000 NA
ENDBRANCH   4  20
TORSDOF 3
ENDMDL
MODEL 9
REMARK VINA RESULT:      -5.4      0.769      1.404
REMARK  Name = 
REMARK  4 active torsions:
REMARK  status: ('A' for Active; 'I' for Inactive)
REMARK    1  A    between atoms: C_1  and  C_2
REMARK    2  A    between atoms: N_5  and  C_6
REMARK    3  A    between atoms: C_8  and  S_9
REMARK    4  A    between atoms: C_10  and  C_11
REMARK                            x       y       z     vdW  Elec       q    Type
REMARK                         _______ _______ _______ _____ _____    ______ ____
ROOT
ATOM      1  C   UNL     1       4.898   4.359  17.007  0.00  0.00    +0.000 A 
ATOM      2  N   UNL     1       4.791   3.878  15.746  0.00  0.00    +0.000 NA
ATOM      3  C   UNL     1       5.667   4.262  14.786  0.00  0.00    +0.000 A 
ATOM      4  C   UNL     1       6.710   5.146  15.027  0.00  0.00    +0.000 A 
ATOM      5  C   UNL     1       6.860   5.650  16.330  0.00  0.00    +0.000 A 
ATOM      6  C   UNL     1       5.964   5.222  17.345  0.00  0.00    +0.000 A 
ATOM      7  C   UNL     1       6.184   5.692  18.771  0.00  0.00    +0.000 C 
ATOM      8  C   UNL     1       7.560   6.276  19.059  0.00  0.00    +0.000 C 
ATOM      9  C   UNL     1       7.893   7.295  17.989  0.00  0.00    +0.000 C 
ATOM     10  C   UNL     1       8.011   6.591  16.644  0.00  0.00    +0.000 C 
ENDROOT
BRANCH   1  15
ATOM     11  C   UNL     1       0.290   1.902  18.914  0.00  0.00    +0.000 C 
ATOM     12  C   UNL     1       1.571   2.721  19.051  0.00  0.00    +0.000 C 
ATOM     13  C   UNL     1       1.467   3.976  18.188  0.00  0.00    +0.000 C 
ATOM     14  C   UNL     1       2.750   4.797  18.217  0.00  0.00    +0.000 C 
ATOM     15  N   UNL     1       3.898   3.969  17.873  0.00  0.00    +0.000 N 
ATOM     16  C   UNL     1       4.085   2.744  18.653  0.00  0.00    +0.000 C 
ATOM     17  C   UNL     1       2.805   1.902  18.645  0.00  0.00    +0.000 C 
ENDBRANCH   1  15
BRANCH   3  18
ATOM     18  S   UNL     1       5.348   3.536  13.192  0.00  0.00    +0.000 S 
ATOM     19  H   UNL     1       6.628   3.588  12.801  0.00  0.00    +0.000 HD
ENDBRANCH   3  18
BRANCH   4  20
ATOM     20  C   UNL     1       7.616   5.520  13.979  0.00  0.00    +0.000 C 
ATOM     21  N   UNL     1       8.384   5.801  13.154  0.00  0.00    +0.000 NA
ENDBRANCH   4  20
TORSDOF 3
ENDMDL
