MODEL 1
REMARK VINA RESULT:      -8.5      0.000      0.000
REMARK  Name = 
REMARK  6 active torsions:
REMARK  status: ('A' for Active; 'I' for Inactive)
REMARK    1  A    between atoms: C_1  and  N_2
REMARK    2  A    between atoms: C_3  and  C_5
REMARK    3  A    between atoms: C_7  and  C_8
REMARK    4  A    between atoms: C_18  and  C_19
REMARK    5  A    between atoms: C_33  and  O_34
REMARK    6  A    between atoms: O_34  and  C_35
REMARK                            x       y       z     vdW  Elec       q    Type
REMARK                         _______ _______ _______ _____ _____    ______ ____
ROOT
ATOM      1  C   UNL     1       2.024   8.754  17.885  0.00  0.00    +0.000 A 
ATOM      2  C   UNL     1       0.690   8.527  18.145  0.00  0.00    +0.000 A 
ATOM      3  C   UNL     1      -0.085   9.601  18.526  0.00  0.00    +0.000 A 
ATOM      4  C   UNL     1       0.437  10.913  18.577  0.00  0.00    +0.000 A 
ATOM      5  C   UNL     1      -0.249  12.094  18.920  0.00  0.00    +0.000 A 
ATOM      6  N   UNL     1      -1.617  12.200  19.162  0.00  0.00    +0.000 N 
ATOM      7  C   UNL     1      -2.567  11.250  18.560  0.00  0.00    +0.000 C 
ATOM      8  C   UNL     1      -3.963  11.858  18.453  0.00  0.00    +0.000 C 
ATOM      9  O   UNL     1      -4.431  12.248  19.750  0.00  0.00    +0.000 OA
ATOM     10  C   UNL     1      -3.552  13.240  20.304  0.00  0.00    +0.000 C 
ATOM     11  C   UNL     1      -2.097  12.722  20.477  0.00  0.00    +0.000 C 
ATOM     12  C   UNL     1      -1.277  13.847  21.104  0.00  0.00    +0.000 C 
ATOM     13  N   UNL     1       0.419  13.257  18.956  0.00  0.00    +0.000 NA
ATOM     14  C   UNL     1       1.724  13.306  18.672  0.00  0.00    +0.000 A 
ATOM     15  N   UNL     1       2.368  14.512  18.732  0.00  0.00    +0.000 N 
ATOM     16  C   UNL     1       1.680  15.747  19.095  0.00  0.00    +0.000 C 
ATOM     17  C   UNL     1       1.983  16.831  18.048  0.00  0.00    +0.000 C 
ATOM     18  O   UNL     1       3.398  16.998  17.842  0.00  0.00    +0.000 OA
ATOM     19  C   UNL     1       3.990  15.759  17.409  0.00  0.00    +0.000 C 
ATOM     20  C   UNL     1       3.794  14.649  18.453  0.00  0.00    +0.000 C 
ATOM     21  N   UNL     1       2.411  12.221  18.320  0.00  0.00    +0.000 NA
ATOM     22  C   UNL     1       1.794  11.053  18.273  0.00  0.00    +0.000 A 
ATOM     23  N   UNL     1       2.556  10.001  17.935  0.00  0.00    +0.000 NA
ENDROOT
BRANCH   1  26
ATOM     24  C   UNL     1       3.399   5.211  17.521  0.00  0.00    +0.000 A 
ATOM     25  C   UNL     1       2.562   6.306  17.850  0.00  0.00    +0.000 A 
ATOM     26  C   UNL     1       2.950   7.636  17.648  0.00  0.00    +0.000 A 
ATOM     27  C   UNL     1       4.247   7.860  17.175  0.00  0.00    +0.000 A 
ATOM     28  C   UNL     1       5.099   6.798  16.891  0.00  0.00    +0.000 A 
ATOM     29  C   UNL     1       4.691   5.464  17.029  0.00  0.00    +0.000 A 
BRANCH  24  32
ATOM     30  C   UNL     1       3.252   1.564  18.545  0.00  0.00    +0.000 C 
ATOM     31  N   UNL     1       3.692   2.881  18.161  0.00  0.00    +0.000 N 
ATOM     32  C   UNL     1       2.802   3.862  17.758  0.00  0.00    +0.000 C 
ATOM     33  O   UNL     1       1.610   3.646  17.588  0.00  0.00    +0.000 OA
ATOM     34  H   UNL     1       4.659   3.120  18.341  0.00  0.00    +0.000 HD
ENDBRANCH  24  32
BRANCH  29  35
ATOM     35  O   UNL     1       5.696   4.647  16.605  0.00  0.00    +0.000 OA
ATOM     36  C   UNL     1       6.985   4.692  17.182  0.00  0.00    +0.000 C 
ENDBRANCH  29  35
ENDBRANCH   1  26
TORSDOF 3
ENDMDL
MODEL 2
REMARK VINA RESULT:      -8.3      1.541      1.728
REMARK  Name = 
REMARK  6 active torsions:
REMARK  status: ('A' for Active; 'I' for Inactive)
REMARK    1  A    between atoms: C_1  and  N_2
REMARK    2  A    between atoms: C_3  and  C_5
REMARK    3  A    between atoms: C_7  and  C_8
REMARK    4  A    between atoms: C_18  and  C_19
REMARK    5  A    between atoms: C_33  and  O_34
REMARK    6  A    between atoms: O_34  and  C_35
REMARK                            x       y       z     vdW  Elec       q    Type
REMARK                         _______ _______ _______ _____ _____    ______ ____
ROOT
ATOM      1  C   UNL     1       1.275   9.535  18.911  0.00  0.00    +0.000 A 
ATOM      2  C   UNL     1       0.019   9.436  19.471  0.00  0.00    +0.000 A 
ATOM      3  C   UNL     1      -0.624  10.602  19.824  0.00  0.00    +0.000 A 
ATOM      4  C   UNL     1      -0.061  11.870  19.556  0.00  0.00    +0.000 A 
ATOM      5  C   UNL     1      -0.622  13.132  19.839  0.00  0.00    +0.000 A 
ATOM      6  N   UNL     1      -1.903  13.361  20.334  0.00  0.00    +0.000 N 
ATOM      7  C   UNL     1      -2.989  12.394  20.099  0.00  0.00    +0.000 C 
ATOM      8  C   UNL     1      -4.356  13.067  20.184  0.00  0.00    +0.000 C 
ATOM      9  O   UNL     1      -4.526  13.678  21.469  0.00  0.00    +0.000 OA
ATOM     10  C   UNL     1      -3.519  14.683  21.665  0.00  0.00    +0.000 C 
ATOM     11  C   UNL     1      -2.078  14.104  21.618  0.00  0.00    +0.000 C 
ATOM     12  C   UNL     1      -1.108  15.255  21.876  0.00  0.00    +0.000 C 
ATOM     13  N   UNL     1       0.075  14.242  19.550  0.00  0.00    +0.000 NA
ATOM     14  C   UNL     1       1.291  14.162  19.001  0.00  0.00    +0.000 A 
ATOM     15  N   UNL     1       1.971  15.320  18.734  0.00  0.00    +0.000 N 
ATOM     16  C   UNL     1       1.415  16.637  19.027  0.00  0.00    +0.000 C 
ATOM     17  C   UNL     1       1.523  17.529  17.780  0.00  0.00    +0.000 C 
ATOM     18  O   UNL     1       2.867  17.573  17.266  0.00  0.00    +0.000 OA
ATOM     19  C   UNL     1       3.315  16.247  16.926  0.00  0.00    +0.000 C 
ATOM     20  C   UNL     1       3.309  15.321  18.152  0.00  0.00    +0.000 C 
ATOM     21  N   UNL     1       1.854  12.996  18.696  0.00  0.00    +0.000 NA
ATOM     22  C   UNL     1       1.204  11.876  18.963  0.00  0.00    +0.000 A 
ATOM     23  N   UNL     1       1.843  10.738  18.650  0.00  0.00    +0.000 NA
ENDROOT
BRANCH   1  26
ATOM     24  C   UNL     1       2.635   5.976  19.154  0.00  0.00    +0.000 A 
ATOM     25  C   UNL     1       1.937   7.176  19.440  0.00  0.00    +0.000 A 
ATOM     26  C   UNL     1       2.093   8.336  18.672  0.00  0.00    +0.000 A 
ATOM     27  C   UNL     1       3.038   8.300  17.641  0.00  0.00    +0.000 A 
ATOM     28  C   UNL     1       3.765   7.144  17.377  0.00  0.00    +0.000 A 
ATOM     29  C   UNL     1       3.564   5.961  18.101  0.00  0.00    +0.000 A 
BRANCH  24  32
ATOM     30  C   UNL     1       1.846   2.398  20.129  0.00  0.00    +0.000 C 
ATOM     31  N   UNL     1       2.056   3.624  19.403  0.00  0.00    +0.000 N 
ATOM     32  C   UNL     1       2.307   4.823  20.048  0.00  0.00    +0.000 C 
ATOM     33  O   UNL     1       2.251   4.946  21.263  0.00  0.00    +0.000 OA
ATOM     34  H   UNL     1       2.167   3.558  18.399  0.00  0.00    +0.000 HD
ENDBRANCH  24  32
BRANCH  29  35
ATOM     35  O   UNL     1       4.350   4.980  17.572  0.00  0.00    +0.000 OA
ATOM     36  C   UNL     1       5.547   4.568  18.199  0.00  0.00    +0.000 C 
ENDBRANCH  29  35
ENDBRANCH   1  26
TORSDOF 3
ENDMDL
MODEL 3
REMARK VINA RESULT:      -8.3      2.187      2.695
REMARK  Name = 
REMARK  6 active torsions:
REMARK  status: ('A' for Active; 'I' for Inactive)
REMARK    1  A    between atoms: C_1  and  N_2
REMARK    2  A    between atoms: C_3  and  C_5
REMARK    3  A    between atoms: C_7  and  C_8
REMARK    4  A    between atoms: C_18  and  C_19
REMARK    5  A    between atoms: C_33  and  O_34
REMARK    6  A    between atoms: O_34  and  C_35
REMARK                            x       y       z     vdW  Elec       q    Type
REMARK                         _______ _______ _______ _____ _____    ______ ____
ROOT
ATOM      1  C   UNL     1       1.047   9.801  19.745  0.00  0.00    +0.000 A 
ATOM      2  C   UNL     1      -0.036   9.590  20.572  0.00  0.00    +0.000 A 
ATOM      3  C   UNL     1      -0.606  10.687  21.181  0.00  0.00    +0.000 A 
ATOM      4  C   UNL     1      -0.157  12.000  20.916  0.00  0.00    +0.000 A 
ATOM      5  C   UNL     1      -0.666  13.202  21.446  0.00  0.00    +0.000 A 
ATOM      6  N   UNL     1      -1.798  13.322  22.249  0.00  0.00    +0.000 N 
ATOM      7  C   UNL     1      -2.882  12.328  22.182  0.00  0.00    +0.000 C 
ATOM      8  C   UNL     1      -4.207  12.923  22.652  0.00  0.00    +0.000 C 
ATOM      9  O   UNL     1      -4.081  13.406  23.996  0.00  0.00    +0.000 OA
ATOM     10  C   UNL     1      -3.083  14.438  24.048  0.00  0.00    +0.000 C 
ATOM     11  C   UNL     1      -1.680  13.937  23.606  0.00  0.00    +0.000 C 
ATOM     12  C   UNL     1      -0.707  15.106  23.741  0.00  0.00    +0.000 C 
ATOM     13  N   UNL     1      -0.088  14.366  21.113  0.00  0.00    +0.000 NA
ATOM     14  C   UNL     1       0.963  14.397  20.288  0.00  0.00    +0.000 A 
ATOM     15  N   UNL     1       1.528  15.606  19.985  0.00  0.00    +0.000 N 
ATOM     16  C   UNL     1       1.024  16.862  20.530  0.00  0.00    +0.000 C 
ATOM     17  C   UNL     1       0.808  17.867  19.387  0.00  0.00    +0.000 C 
ATOM     18  O   UNL     1       1.988  18.023  18.578  0.00  0.00    +0.000 OA
ATOM     19  C   UNL     1       2.376  16.757  18.012  0.00  0.00    +0.000 C 
ATOM     20  C   UNL     1       2.688  15.725  19.107  0.00  0.00    +0.000 C 
ATOM     21  N   UNL     1       1.466  13.291  19.744  0.00  0.00    +0.000 NA
ATOM     22  C   UNL     1       0.929  12.121  20.044  0.00  0.00    +0.000 A 
ATOM     23  N   UNL     1       1.505  11.049  19.478  0.00  0.00    +0.000 NA
ENDROOT
BRANCH   1  26
ATOM     24  C   UNL     1       2.558   6.319  19.334  0.00  0.00    +0.000 A 
ATOM     25  C   UNL     1       1.918   7.455  19.889  0.00  0.00    +0.000 A 
ATOM     26  C   UNL     1       1.816   8.670  19.202  0.00  0.00    +0.000 A 
ATOM     27  C   UNL     1       2.446   8.757  17.957  0.00  0.00    +0.000 A 
ATOM     28  C   UNL     1       3.119   7.666  17.417  0.00  0.00    +0.000 A 
ATOM     29  C   UNL     1       3.167   6.427  18.073  0.00  0.00    +0.000 A 
BRANCH  24  32
ATOM     30  C   UNL     1       3.350   2.775  20.423  0.00  0.00    +0.000 C 
ATOM     31  N   UNL     1       3.185   3.990  19.668  0.00  0.00    +0.000 N 
ATOM     32  C   UNL     1       2.529   5.093  20.189  0.00  0.00    +0.000 C 
ATOM     33  O   UNL     1       1.949   5.072  21.265  0.00  0.00    +0.000 OA
ATOM     34  H   UNL     1       3.696   4.072  18.798  0.00  0.00    +0.000 HD
ENDBRANCH  24  32
BRANCH  29  35
ATOM     35  O   UNL     1       3.817   5.531  17.278  0.00  0.00    +0.000 OA
ATOM     36  C   UNL     1       4.970   5.888  16.543  0.00  0.00    +0.000 C 
ENDBRANCH  29  35
ENDBRANCH   1  26
TORSDOF 3
ENDMDL
MODEL 4
REMARK VINA RESULT:      -7.9      1.410      2.122
REMARK  Name = 
REMARK  6 active torsions:
REMARK  status: ('A' for Active; 'I' for Inactive)
REMARK    1  A    between atoms: C_1  and  N_2
REMARK    2  A    between atoms: C_3  and  C_5
REMARK    3  A    between atoms: C_7  and  C_8
REMARK    4  A    between atoms: C_18  and  C_19
REMARK    5  A    between atoms: C_33  and  O_34
REMARK    6  A    between atoms: O_34  and  C_35
REMARK                            x       y       z     vdW  Elec       q    Type
REMARK                         _______ _______ _______ _____ _____    ______ ____
ROOT
ATOM      1  C   UNL     1       1.538   8.995  18.791  0.00  0.00    +0.000 A 
ATOM      2  C   UNL     1       0.207   8.891  19.135  0.00  0.00    +0.000 A 
ATOM      3  C   UNL     1      -0.486  10.054  19.391  0.00  0.00    +0.000 A 
ATOM      4  C   UNL     1       0.112  11.324  19.236  0.00  0.00    +0.000 A 
ATOM      5  C   UNL     1      -0.488  12.583  19.437  0.00  0.00    +0.000 A 
ATOM      6  N   UNL     1      -1.833  12.808  19.717  0.00  0.00    +0.000 N 
ATOM      7  C   UNL     1      -2.865  11.846  19.295  0.00  0.00    +0.000 C 
ATOM      8  C   UNL     1      -4.228  12.520  19.161  0.00  0.00    +0.000 C 
ATOM      9  O   UNL     1      -4.608  13.115  20.408  0.00  0.00    +0.000 OA
ATOM     10  C   UNL     1      -3.647  14.116  20.779  0.00  0.00    +0.000 C 
ATOM     11  C   UNL     1      -2.218  13.536  20.964  0.00  0.00    +0.000 C 
ATOM     12  C   UNL     1      -1.304  14.682  21.393  0.00  0.00    +0.000 C 
ATOM     13  N   UNL     1       0.247  13.695  19.281  0.00  0.00    +0.000 NA
ATOM     14  C   UNL     1       1.537  13.621  18.939  0.00  0.00    +0.000 A 
ATOM     15  N   UNL     1       2.250  14.781  18.802  0.00  0.00    +0.000 N 
ATOM     16  C   UNL     1       1.653  16.095  19.016  0.00  0.00    +0.000 C 
ATOM     17  C   UNL     1       1.966  17.002  17.815  0.00  0.00    +0.000 C 
ATOM     18  O   UNL     1       3.375  17.050  17.530  0.00  0.00    +0.000 OA
ATOM     19  C   UNL     1       3.874  15.728  17.252  0.00  0.00    +0.000 C 
ATOM     20  C   UNL     1       3.667  14.787  18.449  0.00  0.00    +0.000 C 
ATOM     21  N   UNL     1       2.143  12.457  18.716  0.00  0.00    +0.000 NA
ATOM     22  C   UNL     1       1.458  11.335  18.859  0.00  0.00    +0.000 A 
ATOM     23  N   UNL     1       2.141  10.200  18.642  0.00  0.00    +0.000 NA
ENDROOT
BRANCH   1  26
ATOM     24  C   UNL     1       4.114   6.497  17.485  0.00  0.00    +0.000 A 
ATOM     25  C   UNL     1       3.208   7.584  17.563  0.00  0.00    +0.000 A 
ATOM     26  C   UNL     1       2.385   7.798  18.676  0.00  0.00    +0.000 A 
ATOM     27  C   UNL     1       2.426   6.842  19.696  0.00  0.00    +0.000 A 
ATOM     28  C   UNL     1       3.276   5.743  19.615  0.00  0.00    +0.000 A 
ATOM     29  C   UNL     1       4.149   5.562  18.533  0.00  0.00    +0.000 A 
BRANCH  24  32
ATOM     30  C   UNL     1       6.573   5.119  14.951  0.00  0.00    +0.000 C 
ATOM     31  N   UNL     1       5.796   5.366  16.139  0.00  0.00    +0.000 N 
ATOM     32  C   UNL     1       4.948   6.454  16.246  0.00  0.00    +0.000 C 
ATOM     33  O   UNL     1       4.889   7.335  15.399  0.00  0.00    +0.000 OA
ATOM     34  H   UNL     1       5.771   4.635  16.839  0.00  0.00    +0.000 HD
ENDBRANCH  24  32
BRANCH  29  35
ATOM     35  O   UNL     1       4.911   4.454  18.761  0.00  0.00    +0.000 OA
ATOM     36  C   UNL     1       4.367   3.282  19.332  0.00  0.00    +0.000 C 
ENDBRANCH  29  35
ENDBRANCH   1  26
TORSDOF 3
ENDMDL
MODEL 5
REMARK VINA RESULT:      -7.9      3.133      5.370
REMARK  Name = 
REMARK  6 active torsions:
REMARK  status: ('A' for Active; 'I' for Inactive)
REMARK    1  A    between atoms: C_1  and  N_2
REMARK    2  A    between atoms: C_3  and  C_5
REMARK    3  A    between atoms: C_7  and  C_8
REMARK    4  A    between atoms: C_18  and  C_19
REMARK    5  A    between atoms: C_33  and  O_34
REMARK    6  A    between atoms: O_34  and  C_35
REMARK                            x       y       z     vdW  Elec       q    Type
REMARK                         _______ _______ _______ _____ _____    ______ ____
ROOT
ATOM      1  C   UNL     1       0.567  10.128  19.919  0.00  0.00    +0.000 A 
ATOM      2  C   UNL     1       1.048  10.992  20.879  0.00  0.00    +0.000 A 
ATOM      3  C   UNL     1       0.242  12.040  21.267  0.00  0.00    +0.000 A 
ATOM      4  C   UNL     1      -1.069  12.194  20.763  0.00  0.00    +0.000 A 
ATOM      5  C   UNL     1      -2.001  13.197  21.094  0.00  0.00    +0.000 A 
ATOM      6  N   UNL     1      -1.838  14.166  22.081  0.00  0.00    +0.000 N 
ATOM      7  C   UNL     1      -0.957  13.928  23.237  0.00  0.00    +0.000 C 
ATOM      8  C   UNL     1      -1.360  14.793  24.428  0.00  0.00    +0.000 C 
ATOM      9  O   UNL     1      -1.314  16.179  24.067  0.00  0.00    +0.000 OA
ATOM     10  C   UNL     1      -2.237  16.432  22.996  0.00  0.00    +0.000 C 
ATOM     11  C   UNL     1      -1.909  15.614  21.716  0.00  0.00    +0.000 C 
ATOM     12  C   UNL     1      -2.930  15.996  20.647  0.00  0.00    +0.000 C 
ATOM     13  N   UNL     1      -3.196  13.214  20.484  0.00  0.00    +0.000 NA
ATOM     14  C   UNL     1      -3.509  12.293  19.567  0.00  0.00    +0.000 A 
ATOM     15  N   UNL     1      -4.735  12.355  18.962  0.00  0.00    +0.000 N 
ATOM     16  C   UNL     1      -5.712  13.392  19.282  0.00  0.00    +0.000 C 
ATOM     17  C   UNL     1      -7.070  12.739  19.587  0.00  0.00    +0.000 C 
ATOM     18  O   UNL     1      -7.491  11.856  18.532  0.00  0.00    +0.000 OA
ATOM     19  C   UNL     1      -6.516  10.817  18.330  0.00  0.00    +0.000 C 
ATOM     20  C   UNL     1      -5.148  11.399  17.939  0.00  0.00    +0.000 C 
ATOM     21  N   UNL     1      -2.672  11.313  19.237  0.00  0.00    +0.000 NA
ATOM     22  C   UNL     1      -1.483  11.257  19.812  0.00  0.00    +0.000 A 
ATOM     23  N   UNL     1      -0.684  10.256  19.411  0.00  0.00    +0.000 NA
ENDROOT
BRANCH   1  26
ATOM     24  C   UNL     1       2.357   6.807  19.337  0.00  0.00    +0.000 A 
ATOM     25  C   UNL     1       1.620   7.853  19.944  0.00  0.00    +0.000 A 
ATOM     26  C   UNL     1       1.433   9.096  19.328  0.00  0.00    +0.000 A 
ATOM     27  C   UNL     1       2.075   9.308  18.104  0.00  0.00    +0.000 A 
ATOM     28  C   UNL     1       2.842   8.307  17.515  0.00  0.00    +0.000 A 
ATOM     29  C   UNL     1       2.977   7.039  18.098  0.00  0.00    +0.000 A 
BRANCH  24  32
ATOM     30  C   UNL     1       3.312   3.234  20.169  0.00  0.00    +0.000 C 
ATOM     31  N   UNL     1       3.070   4.485  19.498  0.00  0.00    +0.000 N 
ATOM     32  C   UNL     1       2.412   5.533  20.117  0.00  0.00    +0.000 C 
ATOM     33  O   UNL     1       1.892   5.431  21.220  0.00  0.00    +0.000 OA
ATOM     34  H   UNL     1       3.531   4.633  18.609  0.00  0.00    +0.000 HD
ENDBRANCH  24  32
BRANCH  29  35
ATOM     35  O   UNL     1       3.711   6.246  17.266  0.00  0.00    +0.000 OA
ATOM     36  C   UNL     1       4.928   6.686  16.702  0.00  0.00    +0.000 C 
ENDBRANCH  29  35
ENDBRANCH   1  26
TORSDOF 3
ENDMDL
MODEL 6
REMARK VINA RESULT:      -7.8      2.134      2.993
REMARK  Name = 
REMARK  6 active torsions:
REMARK  status: ('A' for Active; 'I' for Inactive)
REMARK    1  A    between atoms: C_1  and  N_2
REMARK    2  A    between atoms: C_3  and  C_5
REMARK    3  A    between atoms: C_7  and  C_8
REMARK    4  A    between atoms: C_18  and  C_19
REMARK    5  A    between atoms: C_33  and  O_34
REMARK    6  A    between atoms: O_34  and  C_35
REMARK                            x       y       z     vdW  Elec       q    Type
REMARK                         _______ _______ _______ _____ _____    ______ ____
ROOT
ATOM      1  C   UNL     1       0.991   9.028  20.309  0.00  0.00    +0.000 A 
ATOM      2  C   UNL     1      -0.151   9.123  21.074  0.00  0.00    +0.000 A 
ATOM      3  C   UNL     1      -0.595  10.381  21.418  0.00  0.00    +0.000 A 
ATOM      4  C   UNL     1       0.045  11.549  20.944  0.00  0.00    +0.000 A 
ATOM      5  C   UNL     1      -0.321  12.886  21.196  0.00  0.00    +0.000 A 
ATOM      6  N   UNL     1      -1.464  13.304  21.871  0.00  0.00    +0.000 N 
ATOM      7  C   UNL     1      -2.671  12.461  21.909  0.00  0.00    +0.000 C 
ATOM      8  C   UNL     1      -3.924  13.299  22.154  0.00  0.00    +0.000 C 
ATOM      9  O   UNL     1      -3.801  14.019  23.387  0.00  0.00    +0.000 OA
ATOM     10  C   UNL     1      -2.675  14.907  23.320  0.00  0.00    +0.000 C 
ATOM     11  C   UNL     1      -1.333  14.156  23.092  0.00  0.00    +0.000 C 
ATOM     12  C   UNL     1      -0.216  15.197  23.079  0.00  0.00    +0.000 C 
ATOM     13  N   UNL     1       0.430  13.879  20.694  0.00  0.00    +0.000 NA
ATOM     14  C   UNL     1       1.517  13.613  19.963  0.00  0.00    +0.000 A 
ATOM     15  N   UNL     1       2.259  14.657  19.481  0.00  0.00    +0.000 N 
ATOM     16  C   UNL     1       1.906  16.050  19.738  0.00  0.00    +0.000 C 
ATOM     17  C   UNL     1       1.891  16.828  18.412  0.00  0.00    +0.000 C 
ATOM     18  O   UNL     1       3.121  16.671  17.683  0.00  0.00    +0.000 OA
ATOM     19  C   UNL     1       3.359  15.279  17.398  0.00  0.00    +0.000 C 
ATOM     20  C   UNL     1       3.468  14.453  18.690  0.00  0.00    +0.000 C 
ATOM     21  N   UNL     1       1.890  12.368  19.680  0.00  0.00    +0.000 NA
ATOM     22  C   UNL     1       1.181  11.357  20.153  0.00  0.00    +0.000 A 
ATOM     23  N   UNL     1       1.631  10.131  19.847  0.00  0.00    +0.000 NA
ENDROOT
BRANCH   1  26
ATOM     24  C   UNL     1       3.174   6.309  18.752  0.00  0.00    +0.000 A 
ATOM     25  C   UNL     1       2.467   7.521  18.954  0.00  0.00    +0.000 A 
ATOM     26  C   UNL     1       1.623   7.725  20.052  0.00  0.00    +0.000 A 
ATOM     27  C   UNL     1       1.431   6.645  20.921  0.00  0.00    +0.000 A 
ATOM     28  C   UNL     1       2.080   5.433  20.712  0.00  0.00    +0.000 A 
ATOM     29  C   UNL     1       2.978   5.247  19.650  0.00  0.00    +0.000 A 
BRANCH  24  32
ATOM     30  C   UNL     1       5.189   4.839  15.898  0.00  0.00    +0.000 C 
ATOM     31  N   UNL     1       4.433   5.029  17.109  0.00  0.00    +0.000 N 
ATOM     32  C   UNL     1       4.067   6.287  17.554  0.00  0.00    +0.000 C 
ATOM     33  O   UNL     1       4.455   7.317  17.021  0.00  0.00    +0.000 OA
ATOM     34  H   UNL     1       4.044   4.204  17.550  0.00  0.00    +0.000 HD
ENDBRANCH  24  32
BRANCH  29  35
ATOM     35  O   UNL     1       3.519   3.999  19.742  0.00  0.00    +0.000 OA
ATOM     36  C   UNL     1       2.887   2.966  20.470  0.00  0.00    +0.000 C 
ENDBRANCH  29  35
ENDBRANCH   1  26
TORSDOF 3
ENDMDL
MODEL 7
REMARK VINA RESULT:      -7.6      2.775      3.580
REMARK  Name = 
REMARK  6 active torsions:
REMARK  status: ('A' for Active; 'I' for Inactive)
REMARK    1  A    between atoms: C_1  and  N_2
REMARK    2  A    between atoms: C_3  and  C_5
REMARK    3  A    between atoms: C_7  and  C_8
REMARK    4  A    between atoms: C_18  and  C_19
REMARK    5  A    between atoms: C_33  and  O_34
REMARK    6  A    between atoms: O_34  and  C_35
REMARK                            x       y       z     vdW  Elec       q    Type
REMARK                         _______ _______ _______ _____ _____    ______ ____
ROOT
ATOM      1  C   UNL     1       0.605  10.185  20.136  0.00  0.00    +0.000 A 
ATOM      2  C   UNL     1      -0.142   9.877  21.253  0.00  0.00    +0.000 A 
ATOM      3  C   UNL     1      -0.763  10.911  21.919  0.00  0.00    +0.000 A 
ATOM      4  C   UNL     1      -0.711  12.240  21.442  0.00  0.00    +0.000 A 
ATOM      5  C   UNL     1      -1.320  13.377  22.008  0.00  0.00    +0.000 A 
ATOM      6  N   UNL     1      -2.194  13.377  23.092  0.00  0.00    +0.000 N 
ATOM      7  C   UNL     1      -3.003  12.189  23.412  0.00  0.00    +0.000 C 
ATOM      8  C   UNL     1      -4.255  12.568  24.200  0.00  0.00    +0.000 C 
ATOM      9  O   UNL     1      -3.889  13.241  25.411  0.00  0.00    +0.000 OA
ATOM     10  C   UNL     1      -3.174  14.447  25.099  0.00  0.00    +0.000 C 
ATOM     11  C   UNL     1      -1.863  14.179  24.309  0.00  0.00    +0.000 C 
ATOM     12  C   UNL     1      -1.181  15.524  24.073  0.00  0.00    +0.000 C 
ATOM     13  N   UNL     1      -1.131  14.577  21.439  0.00  0.00    +0.000 NA
ATOM     14  C   UNL     1      -0.372  14.705  20.346  0.00  0.00    +0.000 A 
ATOM     15  N   UNL     1      -0.197  15.950  19.806  0.00  0.00    +0.000 N 
ATOM     16  C   UNL     1      -0.809  17.144  20.382  0.00  0.00    +0.000 C 
ATOM     17  C   UNL     1      -1.543  17.925  19.280  0.00  0.00    +0.000 C 
ATOM     18  O   UNL     1      -0.687  18.201  18.156  0.00  0.00    +0.000 OA
ATOM     19  C   UNL     1      -0.187  16.974  17.595  0.00  0.00    +0.000 C 
ATOM     20  C   UNL     1       0.630  16.178  18.626  0.00  0.00    +0.000 C 
ATOM     21  N   UNL     1       0.207  13.658  19.762  0.00  0.00    +0.000 NA
ATOM     22  C   UNL     1       0.048  12.455  20.288  0.00  0.00    +0.000 A 
ATOM     23  N   UNL     1       0.680  11.453  19.659  0.00  0.00    +0.000 NA
ENDROOT
BRANCH   1  26
ATOM     24  C   UNL     1       2.338   6.870  19.374  0.00  0.00    +0.000 A 
ATOM     25  C   UNL     1       1.634   7.901  20.043  0.00  0.00    +0.000 A 
ATOM     26  C   UNL     1       1.438   9.167  19.478  0.00  0.00    +0.000 A 
ATOM     27  C   UNL     1       2.039   9.416  18.240  0.00  0.00    +0.000 A 
ATOM     28  C   UNL     1       2.774   8.429  17.590  0.00  0.00    +0.000 A 
ATOM     29  C   UNL     1       2.916   7.140  18.122  0.00  0.00    +0.000 A 
BRANCH  24  32
ATOM     30  C   UNL     1       3.396   3.306  20.115  0.00  0.00    +0.000 C 
ATOM     31  N   UNL     1       3.137   4.573  19.481  0.00  0.00    +0.000 N 
ATOM     32  C   UNL     1       2.406   5.569  20.106  0.00  0.00    +0.000 C 
ATOM     33  O   UNL     1       1.837   5.401  21.176  0.00  0.00    +0.000 OA
ATOM     34  H   UNL     1       3.634   4.775  18.622  0.00  0.00    +0.000 HD
ENDBRANCH  24  32
BRANCH  29  35
ATOM     35  O   UNL     1       3.611   6.370  17.237  0.00  0.00    +0.000 OA
ATOM     36  C   UNL     1       5.001   6.530  17.043  0.00  0.00    +0.000 C 
ENDBRANCH  29  35
ENDBRANCH   1  26
TORSDOF 3
ENDMDL
MODEL 8
REMARK VINA RESULT:      -7.6      1.418      2.427
REMARK  Name = 
REMARK  6 active torsions:
REMARK  status: ('A' for Active; 'I' for Inactive)
REMARK    1  A    between atoms: C_1  and  N_2
REMARK    2  A    between atoms: C_3  and  C_5
REMARK    3  A    between atoms: C_7  and  C_8
REMARK    4  A    between atoms: C_18  and  C_19
REMARK    5  A    between atoms: C_33  and  O_34
REMARK    6  A    between atoms: O_34  and  C_35
REMARK                            x       y       z     vdW  Elec       q    Type
REMARK                         _______ _______ _______ _____ _____    ______ ____
ROOT
ATOM      1  C   UNL     1       1.561   8.943  18.267  0.00  0.00    +0.000 A 
ATOM      2  C   UNL     1       0.251   8.838  18.681  0.00  0.00    +0.000 A 
ATOM      3  C   UNL     1      -0.389   9.987  19.093  0.00  0.00    +0.000 A 
ATOM      4  C   UNL     1       0.238  11.251  19.027  0.00  0.00    +0.000 A 
ATOM      5  C   UNL     1      -0.309  12.498  19.388  0.00  0.00    +0.000 A 
ATOM      6  N   UNL     1      -1.628  12.727  19.772  0.00  0.00    +0.000 N 
ATOM      7  C   UNL     1      -2.713  11.839  19.322  0.00  0.00    +0.000 C 
ATOM      8  C   UNL     1      -4.059  12.557  19.339  0.00  0.00    +0.000 C 
ATOM      9  O   UNL     1      -4.346  13.033  20.660  0.00  0.00    +0.000 OA
ATOM     10  C   UNL     1      -3.334  13.968  21.069  0.00  0.00    +0.000 C 
ATOM     11  C   UNL     1      -1.915  13.336  21.106  0.00  0.00    +0.000 C 
ATOM     12  C   UNL     1      -0.942  14.410  21.588  0.00  0.00    +0.000 C 
ATOM     13  N   UNL     1       0.450  13.601  19.297  0.00  0.00    +0.000 NA
ATOM     14  C   UNL     1       1.714  13.529  18.871  0.00  0.00    +0.000 A 
ATOM     15  N   UNL     1       2.454  14.678  18.805  0.00  0.00    +0.000 N 
ATOM     16  C   UNL     1       1.911  15.979  19.184  0.00  0.00    +0.000 C 
ATOM     17  C   UNL     1       2.181  16.994  18.061  0.00  0.00    +0.000 C 
ATOM     18  O   UNL     1       3.572  17.034  17.695  0.00  0.00    +0.000 OA
ATOM     19  C   UNL     1       4.012  15.735  17.258  0.00  0.00    +0.000 C 
ATOM     20  C   UNL     1       3.846  14.684  18.367  0.00  0.00    +0.000 C 
ATOM     21  N   UNL     1       2.269  12.378  18.497  0.00  0.00    +0.000 NA
ATOM     22  C   UNL     1       1.559  11.265  18.571  0.00  0.00    +0.000 A 
ATOM     23  N   UNL     1       2.192  10.141  18.201  0.00  0.00    +0.000 NA
ENDROOT
BRANCH   1  26
ATOM     24  C   UNL     1       4.514   6.690  17.383  0.00  0.00    +0.000 A 
ATOM     25  C   UNL     1       3.692   7.831  17.554  0.00  0.00    +0.000 A 
ATOM     26  C   UNL     1       2.362   7.742  17.982  0.00  0.00    +0.000 A 
ATOM     27  C   UNL     1       1.832   6.461  18.164  0.00  0.00    +0.000 A 
ATOM     28  C   UNL     1       2.612   5.327  17.956  0.00  0.00    +0.000 A 
ATOM     29  C   UNL     1       3.963   5.414  17.592  0.00  0.00    +0.000 A 
BRANCH  24  32
ATOM     30  C   UNL     1       8.003   8.162  17.572  0.00  0.00    +0.000 C 
ATOM     31  N   UNL     1       6.605   7.876  17.769  0.00  0.00    +0.000 N 
ATOM     32  C   UNL     1       5.921   6.977  16.969  0.00  0.00    +0.000 C 
ATOM     33  O   UNL     1       6.419   6.460  15.978  0.00  0.00    +0.000 OA
ATOM     34  H   UNL     1       6.169   8.236  18.609  0.00  0.00    +0.000 HD
ENDBRANCH  24  32
BRANCH  29  35
ATOM     35  O   UNL     1       4.488   4.158  17.539  0.00  0.00    +0.000 OA
ATOM     36  C   UNL     1       4.110   3.154  18.458  0.00  0.00    +0.000 C 
ENDBRANCH  29  35
ENDBRANCH   1  26
TORSDOF 3
ENDMDL
MODEL 9
REMARK VINA RESULT:      -7.4      2.138      9.276
REMARK  Name = 
REMARK  6 active torsions:
REMARK  status: ('A' for Active; 'I' for Inactive)
REMARK    1  A    between atoms: C_1  and  N_2
REMARK    2  A    between atoms: C_3  and  C_5
REMARK    3  A    between atoms: C_7  and  C_8
REMARK    4  A    between atoms: C_18  and  C_19
REMARK    5  A    between atoms: C_33  and  O_34
REMARK    6  A    between atoms: O_34  and  C_35
REMARK                            x       y       z     vdW  Elec       q    Type
REMARK                         _______ _______ _______ _____ _____    ______ ____
ROOT
ATOM      1  C   UNL     1       1.689   9.307  19.016  0.00  0.00    +0.000 A 
ATOM      2  C   UNL     1       1.104   8.509  19.976  0.00  0.00    +0.000 A 
ATOM      3  C   UNL     1       1.399   7.164  19.964  0.00  0.00    +0.000 A 
ATOM      4  C   UNL     1       2.330   6.616  19.052  0.00  0.00    +0.000 A 
ATOM      5  C   UNL     1       2.739   5.272  18.952  0.00  0.00    +0.000 A 
ATOM      6  N   UNL     1       2.383   4.245  19.823  0.00  0.00    +0.000 N 
ATOM      7  C   UNL     1       2.012   4.531  21.219  0.00  0.00    +0.000 C 
ATOM      8  C   UNL     1       2.235   3.314  22.112  0.00  0.00    +0.000 C 
ATOM      9  O   UNL     1       1.469   2.203  21.630  0.00  0.00    +0.000 OA
ATOM     10  C   UNL     1       1.890   1.865  20.299  0.00  0.00    +0.000 C 
ATOM     11  C   UNL     1       1.689   3.033  19.293  0.00  0.00    +0.000 C 
ATOM     12  C   UNL     1       2.133   2.541  17.917  0.00  0.00    +0.000 C 
ATOM     13  N   UNL     1       3.610   4.918  17.994  0.00  0.00    +0.000 NA
ATOM     14  C   UNL     1       4.089   5.824  17.137  0.00  0.00    +0.000 A 
ATOM     15  N   UNL     1       4.966   5.417  16.168  0.00  0.00    +0.000 N 
ATOM     16  C   UNL     1       5.396   4.028  16.039  0.00  0.00    +0.000 C 
ATOM     17  C   UNL     1       6.931   3.972  15.966  0.00  0.00    +0.000 C 
ATOM     18  O   UNL     1       7.452   4.834  14.939  0.00  0.00    +0.000 OA
ATOM     19  C   UNL     1       7.052   6.196  15.179  0.00  0.00    +0.000 C 
ATOM     20  C   UNL     1       5.521   6.339  15.183  0.00  0.00    +0.000 C 
ATOM     21  N   UNL     1       3.749   7.109  17.205  0.00  0.00    +0.000 NA
ATOM     22  C   UNL     1       2.894   7.504  18.132  0.00  0.00    +0.000 A 
ATOM     23  N   UNL     1       2.580   8.808  18.124  0.00  0.00    +0.000 NA
ENDROOT
BRANCH   1  26
ATOM     24  C   UNL     1      -0.351  12.530  19.185  0.00  0.00    +0.000 A 
ATOM     25  C   UNL     1       0.016  11.162  19.227  0.00  0.00    +0.000 A 
ATOM     26  C   UNL     1       1.288  10.713  18.855  0.00  0.00    +0.000 A 
ATOM     27  C   UNL     1       2.182  11.666  18.353  0.00  0.00    +0.000 A 
ATOM     28  C   UNL     1       1.822  13.006  18.261  0.00  0.00    +0.000 A 
ATOM     29  C   UNL     1       0.572  13.469  18.695  0.00  0.00    +0.000 A 
BRANCH  24  32
ATOM     30  C   UNL     1      -4.131  12.314  19.375  0.00  0.00    +0.000 C 
ATOM     31  N   UNL     1      -2.755  12.219  18.960  0.00  0.00    +0.000 N 
ATOM     32  C   UNL     1      -1.733  12.832  19.666  0.00  0.00    +0.000 C 
ATOM     33  O   UNL     1      -1.938  13.583  20.609  0.00  0.00    +0.000 OA
ATOM     34  H   UNL     1      -2.535  11.563  18.221  0.00  0.00    +0.000 HD
ENDBRANCH  24  32
BRANCH  29  35
ATOM     35  O   UNL     1       0.531  14.825  18.560  0.00  0.00    +0.000 OA
ATOM     36  C   UNL     1       1.633  15.640  18.901  0.00  0.00    +0.000 C 
ENDBRANCH  29  35
ENDBRANCH   1  26
TORSDOF 3
ENDMDL
