MODEL 1
REMARK VINA RESULT:      -7.3      0.000      0.000
REMARK  Name = 
REMARK  12 active torsions:
REMARK  status: ('A' for Active; 'I' for Inactive)
REMARK    1  A    between atoms: C_1  and  C_2
REMARK    2  A    between atoms: C_2  and  O_3
REMARK    3  A    between atoms: O_3  and  C_4
REMARK    4  A    between atoms: C_4  and  C_6
REMARK    5  A    between atoms: C_6  and  C_7
REMARK    6  A    between atoms: N_9  and  C_10
REMARK    7  A    between atoms: C_13  and  O_14
REMARK    8  A    between atoms: O_14  and  C_15
REMARK    9  A    between atoms: C_18  and  O_19
REMARK   10  A    between atoms: C_20  and  C_21
REMARK   11  A    between atoms: C_21  and  C_22
REMARK   12  A    between atoms: C_21  and  C_23
REMARK                            x       y       z     vdW  Elec       q    Type
REMARK                         _______ _______ _______ _____ _____    ______ ____
ROOT
ATOM      1  C   UNL     1       1.675   9.145  19.248  0.00  0.00    +0.000 A 
ATOM      2  C   UNL     1       2.252   8.962  17.990  0.00  0.00    +0.000 A 
ATOM      3  C   UNL     1       2.687   7.708  17.580  0.00  0.00    +0.000 A 
ATOM      4  C   UNL     1       2.507   6.593  18.403  0.00  0.00    +0.000 A 
ATOM      5  C   UNL     1       2.040   6.787  19.709  0.00  0.00    +0.000 A 
ATOM      6 CL   UNL     1       1.917   5.472  20.820  0.00  0.00    +0.000 Cl
ATOM      7  C   UNL     1       1.634   8.061  20.133  0.00  0.00    +0.000 A 
ENDROOT
BRANCH   1  10
ATOM      8  C   UNL     1      -0.048  10.928  19.161  0.00  0.00    +0.000 C 
ATOM      9  O   UNL     1      -0.809  10.396  18.355  0.00  0.00    +0.000 OA
ATOM     10  N   UNL     1       1.131  10.384  19.653  0.00  0.00    +0.000 N 
ATOM     11  H   UNL     1       1.493  10.776  20.514  0.00  0.00    +0.000 HD
BRANCH   8  12
ATOM     12  C   UNL     1      -0.394  12.276  19.729  0.00  0.00    +0.000 C 
BRANCH  12  13
ATOM     13  C   UNL     1      -0.351  12.243  21.223  0.00  0.00    +0.000 C 
ATOM     14  O   UNL     1       0.257  13.045  21.908  0.00  0.00    +0.000 OA
BRANCH  13  15
ATOM     15  O   UNL     1      -1.086  11.193  21.691  0.00  0.00    +0.000 OA
BRANCH  15  17
ATOM     16  C   UNL     1      -0.265   9.390  23.026  0.00  0.00    +0.000 C 
ATOM     17  C   UNL     1      -0.811  10.807  23.046  0.00  0.00    +0.000 C 
ENDBRANCH  15  17
ENDBRANCH  13  15
ENDBRANCH  12  13
ENDBRANCH   8  12
ENDBRANCH   1  10
BRANCH   4  18
ATOM     18  O   UNL     1       2.792   5.315  17.962  0.00  0.00    +0.000 OA
BRANCH  18  19
ATOM     19  C   UNL     1       4.113   4.998  17.708  0.00  0.00    +0.000 A 
ATOM     20  C   UNL     1       4.966   4.945  18.807  0.00  0.00    +0.000 A 
ATOM     21  C   UNL     1       6.322   4.672  18.624  0.00  0.00    +0.000 A 
ATOM     22  C   UNL     1       6.821   4.437  17.338  0.00  0.00    +0.000 A 
ATOM     23  C   UNL     1       5.979   4.441  16.219  0.00  0.00    +0.000 A 
ATOM     24  C   UNL     1       4.613   4.709  16.431  0.00  0.00    +0.000 A 
BRANCH  23  25
ATOM     25  C   UNL     1       6.495   4.147  14.818  0.00  0.00    +0.000 C 
ATOM     26  C   UNL     1       5.336   3.880  13.851  0.00  0.00    +0.000 C 
ATOM     27  C   UNL     1       7.389   5.271  14.280  0.00  0.00    +0.000 C 
ENDBRANCH  23  25
BRANCH  22  28
ATOM     28  O   UNL     1       8.154   4.187  17.168  0.00  0.00    +0.000 OA
ATOM     29  H   UNL     1       8.425   3.490  17.788  0.00  0.00    +0.000 HD
ENDBRANCH  22  28
ENDBRANCH  18  19
ENDBRANCH   4  18
TORSDOF 9
ENDMDL
MODEL 2
REMARK VINA RESULT:      -7.2      1.387      2.544
REMARK  Name = 
REMARK  12 active torsions:
REMARK  status: ('A' for Active; 'I' for Inactive)
REMARK    1  A    between atoms: C_1  and  C_2
REMARK    2  A    between atoms: C_2  and  O_3
REMARK    3  A    between atoms: O_3  and  C_4
REMARK    4  A    between atoms: C_4  and  C_6
REMARK    5  A    between atoms: C_6  and  C_7
REMARK    6  A    between atoms: N_9  and  C_10
REMARK    7  A    between atoms: C_13  and  O_14
REMARK    8  A    between atoms: O_14  and  C_15
REMARK    9  A    between atoms: C_18  and  O_19
REMARK   10  A    between atoms: C_20  and  C_21
REMARK   11  A    between atoms: C_21  and  C_22
REMARK   12  A    between atoms: C_21  and  C_23
REMARK                            x       y       z     vdW  Elec       q    Type
REMARK                         _______ _______ _______ _____ _____    ______ ____
ROOT
ATOM      1  C   UNL     1       1.397   8.628  19.850  0.00  0.00    +0.000 A 
ATOM      2  C   UNL     1       1.871   8.621  18.537  0.00  0.00    +0.000 A 
ATOM      3  C   UNL     1       2.428   7.473  17.987  0.00  0.00    +0.000 A 
ATOM      4  C   UNL     1       2.477   6.287  18.723  0.00  0.00    +0.000 A 
ATOM      5  C   UNL     1       2.115   6.317  20.076  0.00  0.00    +0.000 A 
ATOM      6 CL   UNL     1       2.274   4.920  21.076  0.00  0.00    +0.000 Cl
ATOM      7  C   UNL     1       1.585   7.487  20.640  0.00  0.00    +0.000 A 
ENDROOT
BRANCH   1  10
ATOM      8  C   UNL     1      -0.396  10.342  19.863  0.00  0.00    +0.000 C 
ATOM      9  O   UNL     1      -1.010   9.961  18.868  0.00  0.00    +0.000 OA
ATOM     10  N   UNL     1       0.735   9.745  20.405  0.00  0.00    +0.000 N 
ATOM     11  H   UNL     1       0.954   9.968  21.368  0.00  0.00    +0.000 HD
BRANCH   8  12
ATOM     12  C   UNL     1      -0.891  11.540  20.624  0.00  0.00    +0.000 C 
BRANCH  12  13
ATOM     13  C   UNL     1      -0.127  11.705  21.899  0.00  0.00    +0.000 C 
ATOM     14  O   UNL     1      -0.419  11.160  22.947  0.00  0.00    +0.000 OA
BRANCH  13  15
ATOM     15  O   UNL     1       0.930  12.546  21.708  0.00  0.00    +0.000 OA
BRANCH  15  17
ATOM     16  C   UNL     1       0.766  14.922  21.909  0.00  0.00    +0.000 C 
ATOM     17  C   UNL     1       0.639  13.739  20.965  0.00  0.00    +0.000 C 
ENDBRANCH  15  17
ENDBRANCH  13  15
ENDBRANCH  12  13
ENDBRANCH   8  12
ENDBRANCH   1  10
BRANCH   4  18
ATOM     18  O   UNL     1       2.886   5.097  18.151  0.00  0.00    +0.000 OA
BRANCH  18  19
ATOM     19  C   UNL     1       4.110   5.075  17.510  0.00  0.00    +0.000 A 
ATOM     20  C   UNL     1       4.164   4.407  16.289  0.00  0.00    +0.000 A 
ATOM     21  C   UNL     1       5.375   4.307  15.603  0.00  0.00    +0.000 A 
ATOM     22  C   UNL     1       6.531   4.889  16.136  0.00  0.00    +0.000 A 
ATOM     23  C   UNL     1       6.498   5.603  17.340  0.00  0.00    +0.000 A 
ATOM     24  C   UNL     1       5.262   5.699  18.008  0.00  0.00    +0.000 A 
BRANCH  23  25
ATOM     25  C   UNL     1       7.735   6.278  17.914  0.00  0.00    +0.000 C 
ATOM     26  C   UNL     1       7.713   7.787  17.643  0.00  0.00    +0.000 C 
ATOM     27  C   UNL     1       7.901   6.009  19.414  0.00  0.00    +0.000 C 
ENDBRANCH  23  25
BRANCH  22  28
ATOM     28  O   UNL     1       7.715   4.770  15.464  0.00  0.00    +0.000 OA
ATOM     29  H   UNL     1       7.538   4.446  14.566  0.00  0.00    +0.000 HD
ENDBRANCH  22  28
ENDBRANCH  18  19
ENDBRANCH   4  18
TORSDOF 9
ENDMDL
MODEL 3
REMARK VINA RESULT:      -7.1      2.959      9.064
REMARK  Name = 
REMARK  12 active torsions:
REMARK  status: ('A' for Active; 'I' for Inactive)
REMARK    1  A    between atoms: C_1  and  C_2
REMARK    2  A    between atoms: C_2  and  O_3
REMARK    3  A    between atoms: O_3  and  C_4
REMARK    4  A    between atoms: C_4  and  C_6
REMARK    5  A    between atoms: C_6  and  C_7
REMARK    6  A    between atoms: N_9  and  C_10
REMARK    7  A    between atoms: C_13  and  O_14
REMARK    8  A    between atoms: O_14  and  C_15
REMARK    9  A    between atoms: C_18  and  O_19
REMARK   10  A    between atoms: C_20  and  C_21
REMARK   11  A    between atoms: C_21  and  C_22
REMARK   12  A    between atoms: C_21  and  C_23
REMARK                            x       y       z     vdW  Elec       q    Type
REMARK                         _______ _______ _______ _____ _____    ______ ____
ROOT
ATOM      1  C   UNL     1       2.530   6.680  18.728  0.00  0.00    +0.000 A 
ATOM      2  C   UNL     1       2.475   7.627  17.704  0.00  0.00    +0.000 A 
ATOM      3  C   UNL     1       1.967   8.900  17.937  0.00  0.00    +0.000 A 
ATOM      4  C   UNL     1       1.548   9.271  19.217  0.00  0.00    +0.000 A 
ATOM      5  C   UNL     1       1.488   8.292  20.218  0.00  0.00    +0.000 A 
ATOM      6 CL   UNL     1       0.857   8.652  21.784  0.00  0.00    +0.000 Cl
ATOM      7  C   UNL     1       1.969   6.998  19.971  0.00  0.00    +0.000 A 
ENDROOT
BRANCH   1  10
ATOM      8  C   UNL     1       2.536   4.337  17.912  0.00  0.00    +0.000 C 
ATOM      9  O   UNL     1       1.433   4.339  17.367  0.00  0.00    +0.000 OA
ATOM     10  N   UNL     1       3.133   5.415  18.551  0.00  0.00    +0.000 N 
ATOM     11  H   UNL     1       4.136   5.371  18.684  0.00  0.00    +0.000 HD
BRANCH   8  12
ATOM     12  C   UNL     1       3.373   3.089  17.885  0.00  0.00    +0.000 C 
BRANCH  12  13
ATOM     13  C   UNL     1       4.060   2.889  19.197  0.00  0.00    +0.000 C 
ATOM     14  O   UNL     1       5.155   3.343  19.473  0.00  0.00    +0.000 OA
BRANCH  13  15
ATOM     15  O   UNL     1       3.283   2.130  20.024  0.00  0.00    +0.000 OA
BRANCH  15  17
ATOM     16  C   UNL     1       1.335   2.846  21.208  0.00  0.00    +0.000 C 
ATOM     17  C   UNL     1       2.852   2.779  21.229  0.00  0.00    +0.000 C 
ENDBRANCH  15  17
ENDBRANCH  13  15
ENDBRANCH  12  13
ENDBRANCH   8  12
ENDBRANCH   1  10
BRANCH   4  18
ATOM     18  O   UNL     1       1.179  10.570  19.509  0.00  0.00    +0.000 OA
BRANCH  18  19
ATOM     19  C   UNL     1      -0.131  10.940  19.273  0.00  0.00    +0.000 A 
ATOM     20  C   UNL     1      -0.771  10.325  18.201  0.00  0.00    +0.000 A 
ATOM     21  C   UNL     1      -2.082  10.678  17.876  0.00  0.00    +0.000 A 
ATOM     22  C   UNL     1      -2.756  11.639  18.636  0.00  0.00    +0.000 A 
ATOM     23  C   UNL     1      -2.153  12.243  19.746  0.00  0.00    +0.000 A 
ATOM     24  C   UNL     1      -0.834  11.863  20.060  0.00  0.00    +0.000 A 
BRANCH  23  25
ATOM     25  C   UNL     1      -2.884  13.261  20.610  0.00  0.00    +0.000 C 
ATOM     26  C   UNL     1      -3.196  12.681  21.995  0.00  0.00    +0.000 C 
ATOM     27  C   UNL     1      -2.106  14.575  20.746  0.00  0.00    +0.000 C 
ENDBRANCH  23  25
BRANCH  22  28
ATOM     28  O   UNL     1      -4.034  11.990  18.299  0.00  0.00    +0.000 OA
ATOM     29  H   UNL     1      -4.018  12.462  17.451  0.00  0.00    +0.000 HD
ENDBRANCH  22  28
ENDBRANCH  18  19
ENDBRANCH   4  18
TORSDOF 9
ENDMDL
MODEL 4
REMARK VINA RESULT:      -7.1      1.530      2.753
REMARK  Name = 
REMARK  12 active torsions:
REMARK  status: ('A' for Active; 'I' for Inactive)
REMARK    1  A    between atoms: C_1  and  C_2
REMARK    2  A    between atoms: C_2  and  O_3
REMARK    3  A    between atoms: O_3  and  C_4
REMARK    4  A    between atoms: C_4  and  C_6
REMARK    5  A    between atoms: C_6  and  C_7
REMARK    6  A    between atoms: N_9  and  C_10
REMARK    7  A    between atoms: C_13  and  O_14
REMARK    8  A    between atoms: O_14  and  C_15
REMARK    9  A    between atoms: C_18  and  O_19
REMARK   10  A    between atoms: C_20  and  C_21
REMARK   11  A    between atoms: C_21  and  C_22
REMARK   12  A    between atoms: C_21  and  C_23
REMARK                            x       y       z     vdW  Elec       q    Type
REMARK                         _______ _______ _______ _____ _____    ______ ____
ROOT
ATOM      1  C   UNL     1       1.525   8.756  19.790  0.00  0.00    +0.000 A 
ATOM      2  C   UNL     1       1.967   8.754  18.466  0.00  0.00    +0.000 A 
ATOM      3  C   UNL     1       2.469   7.597  17.883  0.00  0.00    +0.000 A 
ATOM      4  C   UNL     1       2.492   6.398  18.598  0.00  0.00    +0.000 A 
ATOM      5  C   UNL     1       2.164   6.417  19.960  0.00  0.00    +0.000 A 
ATOM      6 CL   UNL     1       2.297   4.998  20.933  0.00  0.00    +0.000 Cl
ATOM      7  C   UNL     1       1.691   7.595  20.556  0.00  0.00    +0.000 A 
ENDROOT
BRANCH   1  10
ATOM      8  C   UNL     1      -0.327  10.390  20.020  0.00  0.00    +0.000 C 
ATOM      9  O   UNL     1      -1.093   9.904  19.191  0.00  0.00    +0.000 OA
ATOM     10  N   UNL     1       0.916   9.886  20.379  0.00  0.00    +0.000 N 
ATOM     11  H   UNL     1       1.298  10.195  21.264  0.00  0.00    +0.000 HD
BRANCH   8  12
ATOM     12  C   UNL     1      -0.737  11.624  20.774  0.00  0.00    +0.000 C 
BRANCH  12  13
ATOM     13  C   UNL     1      -0.204  12.850  20.103  0.00  0.00    +0.000 C 
ATOM     14  O   UNL     1      -0.900  13.744  19.657  0.00  0.00    +0.000 OA
BRANCH  13  15
ATOM     15  O   UNL     1       1.159  12.811  20.067  0.00  0.00    +0.000 OA
BRANCH  15  17
ATOM     16  C   UNL     1       2.526  12.536  18.127  0.00  0.00    +0.000 C 
ATOM     17  C   UNL     1       1.766  13.532  18.985  0.00  0.00    +0.000 C 
ENDBRANCH  15  17
ENDBRANCH  13  15
ENDBRANCH  12  13
ENDBRANCH   8  12
ENDBRANCH   1  10
BRANCH   4  18
ATOM     18  O   UNL     1       2.845   5.204  17.997  0.00  0.00    +0.000 OA
BRANCH  18  19
ATOM     19  C   UNL     1       4.105   5.109  17.438  0.00  0.00    +0.000 A 
ATOM     20  C   UNL     1       4.221   4.335  16.286  0.00  0.00    +0.000 A 
ATOM     21  C   UNL     1       5.469   4.158  15.688  0.00  0.00    +0.000 A 
ATOM     22  C   UNL     1       6.601   4.770  16.238  0.00  0.00    +0.000 A 
ATOM     23  C   UNL     1       6.508   5.589  17.370  0.00  0.00    +0.000 A 
ATOM     24  C   UNL     1       5.236   5.760  17.949  0.00  0.00    +0.000 A 
BRANCH  23  25
ATOM     25  C   UNL     1       7.721   6.296  17.958  0.00  0.00    +0.000 C 
ATOM     26  C   UNL     1       7.627   7.812  17.748  0.00  0.00    +0.000 C 
ATOM     27  C   UNL     1       7.916   5.976  19.445  0.00  0.00    +0.000 C 
ENDBRANCH  23  25
BRANCH  22  28
ATOM     28  O   UNL     1       7.822   4.576  15.654  0.00  0.00    +0.000 OA
ATOM     29  H   UNL     1       7.953   3.626  15.504  0.00  0.00    +0.000 HD
ENDBRANCH  22  28
ENDBRANCH  18  19
ENDBRANCH   4  18
TORSDOF 9
ENDMDL
MODEL 5
REMARK VINA RESULT:      -7.0      2.769      8.638
REMARK  Name = 
REMARK  12 active torsions:
REMARK  status: ('A' for Active; 'I' for Inactive)
REMARK    1  A    between atoms: C_1  and  C_2
REMARK    2  A    between atoms: C_2  and  O_3
REMARK    3  A    between atoms: O_3  and  C_4
REMARK    4  A    between atoms: C_4  and  C_6
REMARK    5  A    between atoms: C_6  and  C_7
REMARK    6  A    between atoms: N_9  and  C_10
REMARK    7  A    between atoms: C_13  and  O_14
REMARK    8  A    between atoms: O_14  and  C_15
REMARK    9  A    between atoms: C_18  and  O_19
REMARK   10  A    between atoms: C_20  and  C_21
REMARK   11  A    between atoms: C_21  and  C_22
REMARK   12  A    between atoms: C_21  and  C_23
REMARK                            x       y       z     vdW  Elec       q    Type
REMARK                         _______ _______ _______ _____ _____    ______ ____
ROOT
ATOM      1  C   UNL     1       2.449   6.836  18.605  0.00  0.00    +0.000 A 
ATOM      2  C   UNL     1       2.406   7.816  17.611  0.00  0.00    +0.000 A 
ATOM      3  C   UNL     1       1.969   9.104  17.897  0.00  0.00    +0.000 A 
ATOM      4  C   UNL     1       1.612   9.456  19.200  0.00  0.00    +0.000 A 
ATOM      5  C   UNL     1       1.537   8.453  20.175  0.00  0.00    +0.000 A 
ATOM      6 CL   UNL     1       0.978   8.795  21.771  0.00  0.00    +0.000 Cl
ATOM      7  C   UNL     1       1.946   7.145  19.875  0.00  0.00    +0.000 A 
ENDROOT
BRANCH   1  10
ATOM      8  C   UNL     1       4.246   5.135  18.770  0.00  0.00    +0.000 C 
ATOM      9  O   UNL     1       5.052   5.795  19.423  0.00  0.00    +0.000 OA
ATOM     10  N   UNL     1       2.983   5.550  18.371  0.00  0.00    +0.000 N 
ATOM     11  H   UNL     1       2.323   4.827  18.114  0.00  0.00    +0.000 HD
BRANCH   8  12
ATOM     12  C   UNL     1       4.593   3.729  18.371  0.00  0.00    +0.000 C 
BRANCH  12  13
ATOM     13  C   UNL     1       4.102   2.756  19.395  0.00  0.00    +0.000 C 
ATOM     14  O   UNL     1       4.820   2.182  20.193  0.00  0.00    +0.000 OA
BRANCH  13  15
ATOM     15  O   UNL     1       2.749   2.613  19.297  0.00  0.00    +0.000 OA
BRANCH  15  17
ATOM     16  C   UNL     1       1.135   3.617  20.744  0.00  0.00    +0.000 C 
ATOM     17  C   UNL     1       2.059   2.428  20.541  0.00  0.00    +0.000 C 
ENDBRANCH  15  17
ENDBRANCH  13  15
ENDBRANCH  12  13
ENDBRANCH   8  12
ENDBRANCH   1  10
BRANCH   4  18
ATOM     18  O   UNL     1       1.318  10.763  19.541  0.00  0.00    +0.000 OA
BRANCH  18  19
ATOM     19  C   UNL     1       0.009  11.188  19.408  0.00  0.00    +0.000 A 
ATOM     20  C   UNL     1      -0.416  12.184  20.283  0.00  0.00    +0.000 A 
ATOM     21  C   UNL     1      -1.736  12.634  20.237  0.00  0.00    +0.000 A 
ATOM     22  C   UNL     1      -2.627  12.095  19.302  0.00  0.00    +0.000 A 
ATOM     23  C   UNL     1      -2.216  11.123  18.382  0.00  0.00    +0.000 A 
ATOM     24  C   UNL     1      -0.876  10.692  18.442  0.00  0.00    +0.000 A 
BRANCH  23  25
ATOM     25  C   UNL     1      -3.159  10.554  17.331  0.00  0.00    +0.000 C 
ATOM     26  C   UNL     1      -2.423  10.311  16.008  0.00  0.00    +0.000 C 
ATOM     27  C   UNL     1      -3.846   9.267  17.802  0.00  0.00    +0.000 C 
ENDBRANCH  23  25
BRANCH  22  28
ATOM     28  O   UNL     1      -3.922  12.532  19.277  0.00  0.00    +0.000 OA
ATOM     29  H   UNL     1      -4.513  11.775  19.421  0.00  0.00    +0.000 HD
ENDBRANCH  22  28
ENDBRANCH  18  19
ENDBRANCH   4  18
TORSDOF 9
ENDMDL
MODEL 6
REMARK VINA RESULT:      -6.9      2.309      9.494
REMARK  Name = 
REMARK  12 active torsions:
REMARK  status: ('A' for Active; 'I' for Inactive)
REMARK    1  A    between atoms: C_1  and  C_2
REMARK    2  A    between atoms: C_2  and  O_3
REMARK    3  A    between atoms: O_3  and  C_4
REMARK    4  A    between atoms: C_4  and  C_6
REMARK    5  A    between atoms: C_6  and  C_7
REMARK    6  A    between atoms: N_9  and  C_10
REMARK    7  A    between atoms: C_13  and  O_14
REMARK    8  A    between atoms: O_14  and  C_15
REMARK    9  A    between atoms: C_18  and  O_19
REMARK   10  A    between atoms: C_20  and  C_21
REMARK   11  A    between atoms: C_21  and  C_22
REMARK   12  A    between atoms: C_21  and  C_23
REMARK                            x       y       z     vdW  Elec       q    Type
REMARK                         _______ _______ _______ _____ _____    ______ ____
ROOT
ATOM      1  C   UNL     1       2.554   7.174  18.749  0.00  0.00    +0.000 A 
ATOM      2  C   UNL     1       2.454   8.170  17.776  0.00  0.00    +0.000 A 
ATOM      3  C   UNL     1       1.848   9.387  18.061  0.00  0.00    +0.000 A 
ATOM      4  C   UNL     1       1.372   9.657  19.346  0.00  0.00    +0.000 A 
ATOM      5  C   UNL     1       1.360   8.624  20.292  0.00  0.00    +0.000 A 
ATOM      6 CL   UNL     1       0.668   8.851  21.857  0.00  0.00    +0.000 Cl
ATOM      7  C   UNL     1       1.941   7.384  19.992  0.00  0.00    +0.000 A 
ENDROOT
BRANCH   1  10
ATOM      8  C   UNL     1       2.687   4.814  18.001  0.00  0.00    +0.000 C 
ATOM      9  O   UNL     1       1.527   4.687  17.612  0.00  0.00    +0.000 OA
ATOM     10  N   UNL     1       3.253   5.968  18.523  0.00  0.00    +0.000 N 
ATOM     11  H   UNL     1       4.264   6.026  18.517  0.00  0.00    +0.000 HD
BRANCH   8  12
ATOM     12  C   UNL     1       3.635   3.652  17.889  0.00  0.00    +0.000 C 
BRANCH  12  13
ATOM     13  C   UNL     1       5.044   4.103  18.105  0.00  0.00    +0.000 C 
ATOM     14  O   UNL     1       5.660   3.952  19.145  0.00  0.00    +0.000 OA
BRANCH  13  15
ATOM     15  O   UNL     1       5.525   4.701  16.977  0.00  0.00    +0.000 OA
BRANCH  15  17
ATOM     16  C   UNL     1       6.306   4.648  14.720  0.00  0.00    +0.000 C 
ATOM     17  C   UNL     1       5.711   3.829  15.852  0.00  0.00    +0.000 C 
ENDBRANCH  15  17
ENDBRANCH  13  15
ENDBRANCH  12  13
ENDBRANCH   8  12
ENDBRANCH   1  10
BRANCH   4  18
ATOM     18  O   UNL     1       0.902  10.909  19.695  0.00  0.00    +0.000 OA
BRANCH  18  19
ATOM     19  C   UNL     1      -0.420  11.203  19.422  0.00  0.00    +0.000 A 
ATOM     20  C   UNL     1      -0.971  10.610  18.289  0.00  0.00    +0.000 A 
ATOM     21  C   UNL     1      -2.289  10.893  17.926  0.00  0.00    +0.000 A 
ATOM     22  C   UNL     1      -3.059  11.762  18.707  0.00  0.00    +0.000 A 
ATOM     23  C   UNL     1      -2.545  12.339  19.876  0.00  0.00    +0.000 A 
ATOM     24  C   UNL     1      -1.217  12.029  20.226  0.00  0.00    +0.000 A 
BRANCH  23  25
ATOM     25  C   UNL     1      -3.380  13.253  20.761  0.00  0.00    +0.000 C 
ATOM     26  C   UNL     1      -3.583  12.635  22.149  0.00  0.00    +0.000 C 
ATOM     27  C   UNL     1      -2.773  14.655  20.885  0.00  0.00    +0.000 C 
ENDBRANCH  23  25
BRANCH  22  28
ATOM     28  O   UNL     1      -4.343  12.045  18.333  0.00  0.00    +0.000 OA
ATOM     29  H   UNL     1      -4.334  12.797  17.719  0.00  0.00    +0.000 HD
ENDBRANCH  22  28
ENDBRANCH  18  19
ENDBRANCH   4  18
TORSDOF 9
ENDMDL
MODEL 7
REMARK VINA RESULT:      -6.9      2.652      9.142
REMARK  Name = 
REMARK  12 active torsions:
REMARK  status: ('A' for Active; 'I' for Inactive)
REMARK    1  A    between atoms: C_1  and  C_2
REMARK    2  A    between atoms: C_2  and  O_3
REMARK    3  A    between atoms: O_3  and  C_4
REMARK    4  A    between atoms: C_4  and  C_6
REMARK    5  A    between atoms: C_6  and  C_7
REMARK    6  A    between atoms: N_9  and  C_10
REMARK    7  A    between atoms: C_13  and  O_14
REMARK    8  A    between atoms: O_14  and  C_15
REMARK    9  A    between atoms: C_18  and  O_19
REMARK   10  A    between atoms: C_20  and  C_21
REMARK   11  A    between atoms: C_21  and  C_22
REMARK   12  A    between atoms: C_21  and  C_23
REMARK                            x       y       z     vdW  Elec       q    Type
REMARK                         _______ _______ _______ _____ _____    ______ ____
ROOT
ATOM      1  C   UNL     1       3.983   6.385  17.864  0.00  0.00    +0.000 A 
ATOM      2  C   UNL     1       3.616   7.645  17.388  0.00  0.00    +0.000 A 
ATOM      3  C   UNL     1       2.636   8.393  18.030  0.00  0.00    +0.000 A 
ATOM      4  C   UNL     1       2.036   7.917  19.198  0.00  0.00    +0.000 A 
ATOM      5  C   UNL     1       2.311   6.608  19.614  0.00  0.00    +0.000 A 
ATOM      6 CL   UNL     1       1.506   5.913  20.973  0.00  0.00    +0.000 Cl
ATOM      7  C   UNL     1       3.275   5.841  18.944  0.00  0.00    +0.000 A 
ENDROOT
BRANCH   1  10
ATOM      8  C   UNL     1       5.580   5.874  16.036  0.00  0.00    +0.000 C 
ATOM      9  O   UNL     1       5.254   6.773  15.263  0.00  0.00    +0.000 OA
ATOM     10  N   UNL     1       5.044   5.646  17.296  0.00  0.00    +0.000 N 
ATOM     11  H   UNL     1       5.594   5.083  17.933  0.00  0.00    +0.000 HD
BRANCH   8  12
ATOM     12  C   UNL     1       6.680   4.927  15.648  0.00  0.00    +0.000 C 
BRANCH  12  13
ATOM     13  C   UNL     1       6.749   4.783  14.161  0.00  0.00    +0.000 C 
ATOM     14  O   UNL     1       7.537   5.381  13.452  0.00  0.00    +0.000 OA
BRANCH  13  15
ATOM     15  O   UNL     1       5.808   3.895  13.731  0.00  0.00    +0.000 OA
BRANCH  15  17
ATOM     16  C   UNL     1       4.660   3.323  11.715  0.00  0.00    +0.000 C 
ATOM     17  C   UNL     1       6.010   3.379  12.407  0.00  0.00    +0.000 C 
ENDBRANCH  15  17
ENDBRANCH  13  15
ENDBRANCH  12  13
ENDBRANCH   8  12
ENDBRANCH   1  10
BRANCH   4  18
ATOM     18  O   UNL     1       1.171   8.701  19.938  0.00  0.00    +0.000 OA
BRANCH  18  19
ATOM     19  C   UNL     1       0.643   9.827  19.336  0.00  0.00    +0.000 A 
ATOM     20  C   UNL     1       1.357  11.012  19.490  0.00  0.00    +0.000 A 
ATOM     21  C   UNL     1       0.865  12.199  18.946  0.00  0.00    +0.000 A 
ATOM     22  C   UNL     1      -0.340  12.194  18.233  0.00  0.00    +0.000 A 
ATOM     23  C   UNL     1      -1.058  11.010  18.025  0.00  0.00    +0.000 A 
ATOM     24  C   UNL     1      -0.534   9.824  18.575  0.00  0.00    +0.000 A 
BRANCH  23  25
ATOM     25  C   UNL     1      -2.347  10.978  17.218  0.00  0.00    +0.000 C 
ATOM     26  C   UNL     1      -2.543   9.612  16.550  0.00  0.00    +0.000 C 
ATOM     27  C   UNL     1      -3.573  11.337  18.066  0.00  0.00    +0.000 C 
ENDBRANCH  23  25
BRANCH  22  28
ATOM     28  O   UNL     1      -0.821  13.365  17.718  0.00  0.00    +0.000 OA
ATOM     29  H   UNL     1      -0.140  13.766  17.153  0.00  0.00    +0.000 HD
ENDBRANCH  22  28
ENDBRANCH  18  19
ENDBRANCH   4  18
TORSDOF 9
ENDMDL
MODEL 8
REMARK VINA RESULT:      -6.8      2.296      9.024
REMARK  Name = 
REMARK  12 active torsions:
REMARK  status: ('A' for Active; 'I' for Inactive)
REMARK    1  A    between atoms: C_1  and  C_2
REMARK    2  A    between atoms: C_2  and  O_3
REMARK    3  A    between atoms: O_3  and  C_4
REMARK    4  A    between atoms: C_4  and  C_6
REMARK    5  A    between atoms: C_6  and  C_7
REMARK    6  A    between atoms: N_9  and  C_10
REMARK    7  A    between atoms: C_13  and  O_14
REMARK    8  A    between atoms: O_14  and  C_15
REMARK    9  A    between atoms: C_18  and  O_19
REMARK   10  A    between atoms: C_20  and  C_21
REMARK   11  A    between atoms: C_21  and  C_22
REMARK   12  A    between atoms: C_21  and  C_23
REMARK                            x       y       z     vdW  Elec       q    Type
REMARK                         _______ _______ _______ _____ _____    ______ ____
ROOT
ATOM      1  C   UNL     1       3.803   6.697  17.687  0.00  0.00    +0.000 A 
ATOM      2  C   UNL     1       3.352   7.942  17.245  0.00  0.00    +0.000 A 
ATOM      3  C   UNL     1       2.395   8.649  17.963  0.00  0.00    +0.000 A 
ATOM      4  C   UNL     1       1.903   8.149  19.170  0.00  0.00    +0.000 A 
ATOM      5  C   UNL     1       2.260   6.851  19.558  0.00  0.00    +0.000 A 
ATOM      6 CL   UNL     1       1.587   6.123  20.971  0.00  0.00    +0.000 Cl
ATOM      7  C   UNL     1       3.199   6.124  18.814  0.00  0.00    +0.000 A 
ENDROOT
BRANCH   1  10
ATOM      8  C   UNL     1       5.153   4.663  17.247  0.00  0.00    +0.000 C 
ATOM      9  O   UNL     1       4.539   3.884  17.975  0.00  0.00    +0.000 OA
ATOM     10  N   UNL     1       4.846   6.000  17.038  0.00  0.00    +0.000 N 
ATOM     11  H   UNL     1       5.230   6.434  16.207  0.00  0.00    +0.000 HD
BRANCH   8  12
ATOM     12  C   UNL     1       6.332   4.165  16.459  0.00  0.00    +0.000 C 
BRANCH  12  13
ATOM     13  C   UNL     1       6.976   5.289  15.712  0.00  0.00    +0.000 C 
ATOM     14  O   UNL     1       7.554   6.221  16.242  0.00  0.00    +0.000 OA
BRANCH  13  15
ATOM     15  O   UNL     1       6.817   5.113  14.369  0.00  0.00    +0.000 OA
BRANCH  15  17
ATOM     16  C   UNL     1       6.423   3.691  12.490  0.00  0.00    +0.000 C 
ATOM     17  C   UNL     1       6.200   3.877  13.980  0.00  0.00    +0.000 C 
ENDBRANCH  15  17
ENDBRANCH  13  15
ENDBRANCH  12  13
ENDBRANCH   8  12
ENDBRANCH   1  10
BRANCH   4  18
ATOM     18  O   UNL     1       1.066   8.897  19.976  0.00  0.00    +0.000 OA
BRANCH  18  19
ATOM     19  C   UNL     1       0.521  10.052  19.448  0.00  0.00    +0.000 A 
ATOM     20  C   UNL     1       1.183  11.243  19.734  0.00  0.00    +0.000 A 
ATOM     21  C   UNL     1       0.669  12.455  19.270  0.00  0.00    +0.000 A 
ATOM     22  C   UNL     1      -0.503  12.470  18.505  0.00  0.00    +0.000 A 
ATOM     23  C   UNL     1      -1.166  11.284  18.165  0.00  0.00    +0.000 A 
ATOM     24  C   UNL     1      -0.621  10.074  18.636  0.00  0.00    +0.000 A 
BRANCH  23  25
ATOM     25  C   UNL     1      -2.418  11.277  17.300  0.00  0.00    +0.000 C 
ATOM     26  C   UNL     1      -2.446  10.046  16.386  0.00  0.00    +0.000 C 
ATOM     27  C   UNL     1      -3.702  11.350  18.135  0.00  0.00    +0.000 C 
ENDBRANCH  23  25
BRANCH  22  28
ATOM     28  O   UNL     1      -1.007  13.664  18.069  0.00  0.00    +0.000 OA
ATOM     29  H   UNL     1      -1.953  13.556  17.877  0.00  0.00    +0.000 HD
ENDBRANCH  22  28
ENDBRANCH  18  19
ENDBRANCH   4  18
TORSDOF 9
ENDMDL
MODEL 9
REMARK VINA RESULT:      -6.8      2.449      8.951
REMARK  Name = 
REMARK  12 active torsions:
REMARK  status: ('A' for Active; 'I' for Inactive)
REMARK    1  A    between atoms: C_1  and  C_2
REMARK    2  A    between atoms: C_2  and  O_3
REMARK    3  A    between atoms: O_3  and  C_4
REMARK    4  A    between atoms: C_4  and  C_6
REMARK    5  A    between atoms: C_6  and  C_7
REMARK    6  A    between atoms: N_9  and  C_10
REMARK    7  A    between atoms: C_13  and  O_14
REMARK    8  A    between atoms: O_14  and  C_15
REMARK    9  A    between atoms: C_18  and  O_19
REMARK   10  A    between atoms: C_20  and  C_21
REMARK   11  A    between atoms: C_21  and  C_22
REMARK   12  A    between atoms: C_21  and  C_23
REMARK                            x       y       z     vdW  Elec       q    Type
REMARK                         _______ _______ _______ _____ _____    ______ ____
ROOT
ATOM      1  C   UNL     1       2.451   7.359  18.785  0.00  0.00    +0.000 A 
ATOM      2  C   UNL     1       2.308   8.389  17.854  0.00  0.00    +0.000 A 
ATOM      3  C   UNL     1       1.745   9.606  18.217  0.00  0.00    +0.000 A 
ATOM      4  C   UNL     1       1.357   9.839  19.539  0.00  0.00    +0.000 A 
ATOM      5  C   UNL     1       1.386   8.775  20.449  0.00  0.00    +0.000 A 
ATOM      6 CL   UNL     1       0.799   8.959  22.061  0.00  0.00    +0.000 Cl
ATOM      7  C   UNL     1       1.923   7.536  20.070  0.00  0.00    +0.000 A 
ENDROOT
BRANCH   1  10
ATOM      8  C   UNL     1       2.492   5.024  17.950  0.00  0.00    +0.000 C 
ATOM      9  O   UNL     1       1.308   4.931  17.632  0.00  0.00    +0.000 OA
ATOM     10  N   UNL     1       3.112   6.150  18.474  0.00  0.00    +0.000 N 
ATOM     11  H   UNL     1       4.121   6.191  18.407  0.00  0.00    +0.000 HD
BRANCH   8  12
ATOM     12  C   UNL     1       3.409   3.852  17.740  0.00  0.00    +0.000 C 
BRANCH  12  13
ATOM     13  C   UNL     1       4.830   4.246  17.986  0.00  0.00    +0.000 C 
ATOM     14  O   UNL     1       5.480   3.898  18.954  0.00  0.00    +0.000 OA
BRANCH  13  15
ATOM     15  O   UNL     1       5.278   5.045  16.974  0.00  0.00    +0.000 OA
BRANCH  15  17
ATOM     16  C   UNL     1       6.612   4.272  15.148  0.00  0.00    +0.000 C 
ATOM     17  C   UNL     1       5.196   4.475  15.659  0.00  0.00    +0.000 C 
ENDBRANCH  15  17
ENDBRANCH  13  15
ENDBRANCH  12  13
ENDBRANCH   8  12
ENDBRANCH   1  10
BRANCH   4  18
ATOM     18  O   UNL     1       0.933  11.086  19.959  0.00  0.00    +0.000 OA
BRANCH  18  19
ATOM     19  C   UNL     1      -0.376  11.446  19.702  0.00  0.00    +0.000 A 
ATOM     20  C   UNL     1      -0.934  12.412  20.535  0.00  0.00    +0.000 A 
ATOM     21  C   UNL     1      -2.264  12.796  20.362  0.00  0.00    +0.000 A 
ATOM     22  C   UNL     1      -3.032  12.221  19.343  0.00  0.00    +0.000 A 
ATOM     23  C   UNL     1      -2.485  11.279  18.463  0.00  0.00    +0.000 A 
ATOM     24  C   UNL     1      -1.137  10.915  18.651  0.00  0.00    +0.000 A 
BRANCH  23  25
ATOM     25  C   UNL     1      -3.291  10.672  17.324  0.00  0.00    +0.000 C 
ATOM     26  C   UNL     1      -2.558  10.831  15.987  0.00  0.00    +0.000 C 
ATOM     27  C   UNL     1      -3.632   9.198  17.573  0.00  0.00    +0.000 C 
ENDBRANCH  23  25
BRANCH  22  28
ATOM     28  O   UNL     1      -4.339  12.593  19.194  0.00  0.00    +0.000 OA
ATOM     29  H   UNL     1      -4.371  13.498  18.843  0.00  0.00    +0.000 HD
ENDBRANCH  22  28
ENDBRANCH  18  19
ENDBRANCH   4  18
TORSDOF 9
ENDMDL
