MODEL 1
REMARK VINA RESULT:      -8.9      0.000      0.000
REMARK  Name = 
REMARK  6 active torsions:
REMARK  status: ('A' for Active; 'I' for Inactive)
REMARK    1  A    between atoms: O5*_1  and  C5*_2
REMARK    2  A    between atoms: C5*_2  and  C4*_3
REMARK    3  A    between atoms: C1*_5  and  N_6
REMARK    4  A    between atoms: C_10  and  C_11
REMARK    5  A    between atoms: C2*_29  and  O2*_30
REMARK    6  A    between atoms: C3*_31  and  O3*_32
REMARK                            x       y       z     vdW  Elec       q    Type
REMARK                         _______ _______ _______ _____ _____    ______ ____
ROOT
ATOM      1  N   UNL     1       0.463  10.471  20.861  0.00  0.00    +0.000 N 
ATOM      2  C   UNL     1       0.493   9.711  22.009  0.00  0.00    +0.000 A 
ATOM      3  C   UNL     1       1.152   8.543  21.725  0.00  0.00    +0.000 A 
ATOM      4  C   UNL     1       1.456   8.535  20.335  0.00  0.00    +0.000 A 
ATOM      5  C   UNL     1       2.038   7.630  19.424  0.00  0.00    +0.000 A 
ATOM      6  N   UNL     1       2.152   8.010  18.122  0.00  0.00    +0.000 NA
ATOM      7  C   UNL     1       1.709   9.231  17.767  0.00  0.00    +0.000 A 
ATOM      8  N   UNL     1       1.127  10.165  18.547  0.00  0.00    +0.000 NA
ATOM      9  C   UNL     1       1.019   9.757  19.825  0.00  0.00    +0.000 A 
ENDROOT
BRANCH   5  10
ATOM     10  C   UNL     1       2.358   6.233  19.784  0.00  0.00    +0.000 A 
ATOM     11  C   UNL     1       1.545   5.566  20.729  0.00  0.00    +0.000 A 
ATOM     12  C   UNL     1       1.756   4.242  21.098  0.00  0.00    +0.000 A 
ATOM     13  C   UNL     1       2.721   3.502  20.433  0.00  0.00    +0.000 A 
ATOM     14  C   UNL     1       3.496   4.098  19.434  0.00  0.00    +0.000 A 
ATOM     15  C   UNL     1       3.381   5.474  19.163  0.00  0.00    +0.000 A 
ATOM     16  O   UNL     1       4.294   6.141  18.364  0.00  0.00    +0.000 OA
ATOM     17  C   UNL     1       4.858   5.487  17.292  0.00  0.00    +0.000 A 
ATOM     18  C   UNL     1       5.443   6.305  16.320  0.00  0.00    +0.000 A 
ATOM     19  C   UNL     1       5.903   5.755  15.122  0.00  0.00    +0.000 A 
ATOM     20  C   UNL     1       5.758   4.390  14.884  0.00  0.00    +0.000 A 
ATOM     21  C   UNL     1       5.261   3.563  15.889  0.00  0.00    +0.000 A 
ATOM     22  C   UNL     1       4.867   4.104  17.118  0.00  0.00    +0.000 A 
ATOM     23  S   UNL     1       4.510   3.014  18.465  0.00  0.00    +0.000 S 
ENDBRANCH   5  10
BRANCH   1  26
ATOM     24  C4* UNL     1      -1.212  13.314  22.173  0.00  0.00    +0.000 C 
ATOM     25  O4* UNL     1      -0.111  12.375  22.187  0.00  0.00    +0.000 OA
ATOM     26  C1* UNL     1       0.035  11.860  20.848  0.00  0.00    +0.000 C 
ATOM     27  C2* UNL     1      -1.271  12.112  20.105  0.00  0.00    +0.000 C 
ATOM     28  C3* UNL     1      -1.687  13.436  20.718  0.00  0.00    +0.000 C 
BRANCH  27  29
ATOM     29  O2* UNL     1      -1.090  12.225  18.691  0.00  0.00    +0.000 OA
ATOM     30  H2* UNL     1      -1.945  12.556  18.342  0.00  0.00    +0.000 HD
ENDBRANCH  27  29
BRANCH  28  31
ATOM     31  O3* UNL     1      -0.985  14.472  19.995  0.00  0.00    +0.000 OA
ATOM     32  H3* UNL     1      -0.520  15.045  20.630  0.00  0.00    +0.000 HD
ENDBRANCH  28  31
BRANCH  24  33
ATOM     33  C5* UNL     1      -2.305  12.826  23.124  0.00  0.00    +0.000 C 
BRANCH  33  34
ATOM     34  O5* UNL     1      -2.119  11.446  23.415  0.00  0.00    +0.000 OA
ATOM     35  H5* UNL     1      -2.542  10.941  22.699  0.00  0.00    +0.000 HD
ENDBRANCH  33  34
ENDBRANCH  24  33
ENDBRANCH   1  26
TORSDOF 6
ENDMDL
MODEL 2
REMARK VINA RESULT:      -8.9      1.193      1.876
REMARK  Name = 
REMARK  6 active torsions:
REMARK  status: ('A' for Active; 'I' for Inactive)
REMARK    1  A    between atoms: O5*_1  and  C5*_2
REMARK    2  A    between atoms: C5*_2  and  C4*_3
REMARK    3  A    between atoms: C1*_5  and  N_6
REMARK    4  A    between atoms: C_10  and  C_11
REMARK    5  A    between atoms: C2*_29  and  O2*_30
REMARK    6  A    between atoms: C3*_31  and  O3*_32
REMARK                            x       y       z     vdW  Elec       q    Type
REMARK                         _______ _______ _______ _____ _____    ______ ____
ROOT
ATOM      1  N   UNL     1       0.693  10.451  20.944  0.00  0.00    +0.000 N 
ATOM      2  C   UNL     1       0.756   9.686  22.087  0.00  0.00    +0.000 A 
ATOM      3  C   UNL     1       1.344   8.490  21.763  0.00  0.00    +0.000 A 
ATOM      4  C   UNL     1       1.565   8.474  20.357  0.00  0.00    +0.000 A 
ATOM      5  C   UNL     1       2.051   7.548  19.412  0.00  0.00    +0.000 A 
ATOM      6  N   UNL     1       2.105   7.928  18.106  0.00  0.00    +0.000 NA
ATOM      7  C   UNL     1       1.696   9.169  17.781  0.00  0.00    +0.000 A 
ATOM      8  N   UNL     1       1.205  10.126  18.595  0.00  0.00    +0.000 NA
ATOM      9  C   UNL     1       1.153   9.717  19.877  0.00  0.00    +0.000 A 
ENDROOT
BRANCH   5  10
ATOM     10  C   UNL     1       2.327   6.137  19.751  0.00  0.00    +0.000 A 
ATOM     11  C   UNL     1       1.473   5.470  20.658  0.00  0.00    +0.000 A 
ATOM     12  C   UNL     1       1.642   4.133  21.003  0.00  0.00    +0.000 A 
ATOM     13  C   UNL     1       2.608   3.385  20.350  0.00  0.00    +0.000 A 
ATOM     14  C   UNL     1       3.426   3.984  19.386  0.00  0.00    +0.000 A 
ATOM     15  C   UNL     1       3.350   5.368  19.143  0.00  0.00    +0.000 A 
ATOM     16  O   UNL     1       4.301   6.029  18.385  0.00  0.00    +0.000 OA
ATOM     17  C   UNL     1       4.881   5.385  17.315  0.00  0.00    +0.000 A 
ATOM     18  C   UNL     1       5.512   6.209  16.378  0.00  0.00    +0.000 A 
ATOM     19  C   UNL     1       5.993   5.674  15.181  0.00  0.00    +0.000 A 
ATOM     20  C   UNL     1       5.824   4.318  14.910  0.00  0.00    +0.000 A 
ATOM     21  C   UNL     1       5.279   3.482  15.882  0.00  0.00    +0.000 A 
ATOM     22  C   UNL     1       4.863   4.006  17.111  0.00  0.00    +0.000 A 
ATOM     23  S   UNL     1       4.442   2.896  18.423  0.00  0.00    +0.000 S 
ENDBRANCH   5  10
BRANCH   1  26
ATOM     24  C4* UNL     1      -0.727  13.402  19.570  0.00  0.00    +0.000 C 
ATOM     25  O4* UNL     1      -0.863  12.099  20.183  0.00  0.00    +0.000 OA
ATOM     26  C1* UNL     1       0.328  11.858  20.959  0.00  0.00    +0.000 C 
ATOM     27  C2* UNL     1       1.415  12.798  20.449  0.00  0.00    +0.000 C 
ATOM     28  C3* UNL     1       0.581  14.015  20.090  0.00  0.00    +0.000 C 
BRANCH  27  29
ATOM     29  O2* UNL     1       2.389  13.109  21.449  0.00  0.00    +0.000 OA
ATOM     30  H2* UNL     1       3.252  13.113  20.983  0.00  0.00    +0.000 HD
ENDBRANCH  27  29
BRANCH  28  31
ATOM     31  O3* UNL     1       0.391  14.768  21.308  0.00  0.00    +0.000 OA
ATOM     32  H3* UNL     1      -0.469  14.530  21.699  0.00  0.00    +0.000 HD
ENDBRANCH  28  31
BRANCH  24  33
ATOM     33  C5* UNL     1      -0.759  13.252  18.049  0.00  0.00    +0.000 C 
BRANCH  33  34
ATOM     34  O5* UNL     1      -0.991  11.894  17.697  0.00  0.00    +0.000 OA
ATOM     35  H5* UNL     1      -0.293  11.635  17.070  0.00  0.00    +0.000 HD
ENDBRANCH  33  34
ENDBRANCH  24  33
ENDBRANCH   1  26
TORSDOF 6
ENDMDL
MODEL 3
REMARK VINA RESULT:      -8.3      0.979      1.973
REMARK  Name = 
REMARK  6 active torsions:
REMARK  status: ('A' for Active; 'I' for Inactive)
REMARK    1  A    between atoms: O5*_1  and  C5*_2
REMARK    2  A    between atoms: C5*_2  and  C4*_3
REMARK    3  A    between atoms: C1*_5  and  N_6
REMARK    4  A    between atoms: C_10  and  C_11
REMARK    5  A    between atoms: C2*_29  and  O2*_30
REMARK    6  A    between atoms: C3*_31  and  O3*_32
REMARK                            x       y       z     vdW  Elec       q    Type
REMARK                         _______ _______ _______ _____ _____    ______ ____
ROOT
ATOM      1  N   UNL     1      -0.049  10.309  20.658  0.00  0.00    +0.000 N 
ATOM      2  C   UNL     1      -0.181   9.493  21.760  0.00  0.00    +0.000 A 
ATOM      3  C   UNL     1       0.616   8.393  21.569  0.00  0.00    +0.000 A 
ATOM      4  C   UNL     1       1.185   8.482  20.268  0.00  0.00    +0.000 A 
ATOM      5  C   UNL     1       2.007   7.672  19.458  0.00  0.00    +0.000 A 
ATOM      6  N   UNL     1       2.341   8.128  18.220  0.00  0.00    +0.000 NA
ATOM      7  C   UNL     1       1.875   9.330  17.830  0.00  0.00    +0.000 A 
ATOM      8  N   UNL     1       1.077  10.176  18.513  0.00  0.00    +0.000 NA
ATOM      9  C   UNL     1       0.755   9.693  19.728  0.00  0.00    +0.000 A 
ENDROOT
BRANCH   5  10
ATOM     10  C   UNL     1       2.365   6.285  19.823  0.00  0.00    +0.000 A 
ATOM     11  C   UNL     1       1.585   5.608  20.788  0.00  0.00    +0.000 A 
ATOM     12  C   UNL     1       1.833   4.292  21.162  0.00  0.00    +0.000 A 
ATOM     13  C   UNL     1       2.802   3.569  20.484  0.00  0.00    +0.000 A 
ATOM     14  C   UNL     1       3.544   4.174  19.465  0.00  0.00    +0.000 A 
ATOM     15  C   UNL     1       3.393   5.545  19.188  0.00  0.00    +0.000 A 
ATOM     16  O   UNL     1       4.275   6.226  18.366  0.00  0.00    +0.000 OA
ATOM     17  C   UNL     1       4.833   5.577  17.288  0.00  0.00    +0.000 A 
ATOM     18  C   UNL     1       5.380   6.400  16.299  0.00  0.00    +0.000 A 
ATOM     19  C   UNL     1       5.829   5.851  15.096  0.00  0.00    +0.000 A 
ATOM     20  C   UNL     1       5.711   4.482  14.871  0.00  0.00    +0.000 A 
ATOM     21  C   UNL     1       5.252   3.651  15.891  0.00  0.00    +0.000 A 
ATOM     22  C   UNL     1       4.870   4.193  17.123  0.00  0.00    +0.000 A 
ATOM     23  S   UNL     1       4.563   3.105  18.485  0.00  0.00    +0.000 S 
ENDBRANCH   5  10
BRANCH   1  26
ATOM     24  C4* UNL     1      -0.248  13.626  19.408  0.00  0.00    +0.000 C 
ATOM     25  O4* UNL     1      -0.505  12.208  19.281  0.00  0.00    +0.000 OA
ATOM     26  C1* UNL     1      -0.580  11.661  20.613  0.00  0.00    +0.000 C 
ATOM     27  C2* UNL     1       0.103  12.640  21.559  0.00  0.00    +0.000 C 
ATOM     28  C3* UNL     1      -0.267  13.960  20.907  0.00  0.00    +0.000 C 
BRANCH  27  29
ATOM     29  O2* UNL     1      -0.401  12.560  22.895  0.00  0.00    +0.000 OA
ATOM     30  H2* UNL     1       0.310  12.133  23.420  0.00  0.00    +0.000 HD
ENDBRANCH  27  29
BRANCH  28  31
ATOM     31  O3* UNL     1      -1.589  14.305  21.377  0.00  0.00    +0.000 OA
ATOM     32  H3* UNL     1      -2.196  13.565  21.194  0.00  0.00    +0.000 HD
ENDBRANCH  28  31
BRANCH  24  33
ATOM     33  C5* UNL     1       1.082  13.962  18.734  0.00  0.00    +0.000 C 
BRANCH  33  34
ATOM     34  O5* UNL     1       1.463  12.911  17.854  0.00  0.00    +0.000 OA
ATOM     35  H5* UNL     1       1.814  12.189  18.403  0.00  0.00    +0.000 HD
ENDBRANCH  33  34
ENDBRANCH  24  33
ENDBRANCH   1  26
TORSDOF 6
ENDMDL
MODEL 4
REMARK VINA RESULT:      -8.2      1.083      1.669
REMARK  Name = 
REMARK  6 active torsions:
REMARK  status: ('A' for Active; 'I' for Inactive)
REMARK    1  A    between atoms: O5*_1  and  C5*_2
REMARK    2  A    between atoms: C5*_2  and  C4*_3
REMARK    3  A    between atoms: C1*_5  and  N_6
REMARK    4  A    between atoms: C_10  and  C_11
REMARK    5  A    between atoms: C2*_29  and  O2*_30
REMARK    6  A    between atoms: C3*_31  and  O3*_32
REMARK                            x       y       z     vdW  Elec       q    Type
REMARK                         _______ _______ _______ _____ _____    ______ ____
ROOT
ATOM      1  N   UNL     1       0.307  10.470  20.792  0.00  0.00    +0.000 N 
ATOM      2  C   UNL     1       0.401   9.753  21.965  0.00  0.00    +0.000 A 
ATOM      3  C   UNL     1       1.104   8.605  21.703  0.00  0.00    +0.000 A 
ATOM      4  C   UNL     1       1.371   8.561  20.306  0.00  0.00    +0.000 A 
ATOM      5  C   UNL     1       1.969   7.650  19.410  0.00  0.00    +0.000 A 
ATOM      6  N   UNL     1       2.031   7.989  18.093  0.00  0.00    +0.000 NA
ATOM      7  C   UNL     1       1.524   9.176  17.710  0.00  0.00    +0.000 A 
ATOM      8  N   UNL     1       0.922  10.111  18.473  0.00  0.00    +0.000 NA
ATOM      9  C   UNL     1       0.866   9.744  19.767  0.00  0.00    +0.000 A 
ENDROOT
BRANCH   5  10
ATOM     10  C   UNL     1       2.360   6.283  19.809  0.00  0.00    +0.000 A 
ATOM     11  C   UNL     1       1.608   5.618  20.805  0.00  0.00    +0.000 A 
ATOM     12  C   UNL     1       1.887   4.318  21.213  0.00  0.00    +0.000 A 
ATOM     13  C   UNL     1       2.861   3.596  20.543  0.00  0.00    +0.000 A 
ATOM     14  C   UNL     1       3.577   4.186  19.497  0.00  0.00    +0.000 A 
ATOM     15  C   UNL     1       3.394   5.545  19.182  0.00  0.00    +0.000 A 
ATOM     16  O   UNL     1       4.251   6.220  18.329  0.00  0.00    +0.000 OA
ATOM     17  C   UNL     1       4.808   5.550  17.262  0.00  0.00    +0.000 A 
ATOM     18  C   UNL     1       5.325   6.355  16.242  0.00  0.00    +0.000 A 
ATOM     19  C   UNL     1       5.770   5.781  15.049  0.00  0.00    +0.000 A 
ATOM     20  C   UNL     1       5.677   4.404  14.865  0.00  0.00    +0.000 A 
ATOM     21  C   UNL     1       5.248   3.594  15.916  0.00  0.00    +0.000 A 
ATOM     22  C   UNL     1       4.872   4.164  17.137  0.00  0.00    +0.000 A 
ATOM     23  S   UNL     1       4.606   3.110  18.534  0.00  0.00    +0.000 S 
ENDBRANCH   5  10
BRANCH   1  26
ATOM     24  C4* UNL     1       0.678  14.001  20.781  0.00  0.00    +0.000 C 
ATOM     25  O4* UNL     1       0.778  12.716  20.124  0.00  0.00    +0.000 OA
ATOM     26  C1* UNL     1      -0.183  11.837  20.744  0.00  0.00    +0.000 C 
ATOM     27  C2* UNL     1      -0.546  12.426  22.102  0.00  0.00    +0.000 C 
ATOM     28  C3* UNL     1      -0.478  13.909  21.787  0.00  0.00    +0.000 C 
BRANCH  27  29
ATOM     29  O2* UNL     1      -1.854  12.044  22.537  0.00  0.00    +0.000 OA
ATOM     30  H2* UNL     1      -1.755  11.142  22.908  0.00  0.00    +0.000 HD
ENDBRANCH  27  29
BRANCH  28  31
ATOM     31  O3* UNL     1      -1.749  14.273  21.201  0.00  0.00    +0.000 OA
ATOM     32  H3* UNL     1      -1.946  15.201  21.418  0.00  0.00    +0.000 HD
ENDBRANCH  28  31
BRANCH  24  33
ATOM     33  C5* UNL     1       2.017  14.342  21.433  0.00  0.00    +0.000 C 
BRANCH  33  34
ATOM     34  O5* UNL     1       1.802  15.023  22.663  0.00  0.00    +0.000 OA
ATOM     35  H5* UNL     1       2.187  14.474  23.368  0.00  0.00    +0.000 HD
ENDBRANCH  33  34
ENDBRANCH  24  33
ENDBRANCH   1  26
TORSDOF 6
ENDMDL
MODEL 5
REMARK VINA RESULT:      -8.2      3.244      9.068
REMARK  Name = 
REMARK  6 active torsions:
REMARK  status: ('A' for Active; 'I' for Inactive)
REMARK    1  A    between atoms: O5*_1  and  C5*_2
REMARK    2  A    between atoms: C5*_2  and  C4*_3
REMARK    3  A    between atoms: C1*_5  and  N_6
REMARK    4  A    between atoms: C_10  and  C_11
REMARK    5  A    between atoms: C2*_29  and  O2*_30
REMARK    6  A    between atoms: C3*_31  and  O3*_32
REMARK                            x       y       z     vdW  Elec       q    Type
REMARK                         _______ _______ _______ _____ _____    ______ ____
ROOT
ATOM      1  N   UNL     1       3.087   6.790  18.683  0.00  0.00    +0.000 N 
ATOM      2  C   UNL     1       3.090   7.430  17.464  0.00  0.00    +0.000 A 
ATOM      3  C   UNL     1       2.326   8.563  17.580  0.00  0.00    +0.000 A 
ATOM      4  C   UNL     1       1.753   8.577  18.882  0.00  0.00    +0.000 A 
ATOM      5  C   UNL     1       0.847   9.394  19.588  0.00  0.00    +0.000 A 
ATOM      6  N   UNL     1       0.537   9.055  20.869  0.00  0.00    +0.000 NA
ATOM      7  C   UNL     1       1.111   7.959  21.401  0.00  0.00    +0.000 A 
ATOM      8  N   UNL     1       1.974   7.103  20.817  0.00  0.00    +0.000 NA
ATOM      9  C   UNL     1       2.254   7.459  19.548  0.00  0.00    +0.000 A 
ENDROOT
BRANCH   5  10
ATOM     10  C   UNL     1       0.090  10.486  18.942  0.00  0.00    +0.000 A 
ATOM     11  C   UNL     1      -1.129  10.184  18.293  0.00  0.00    +0.000 A 
ATOM     12  C   UNL     1      -1.918  11.158  17.691  0.00  0.00    +0.000 A 
ATOM     13  C   UNL     1      -1.568  12.491  17.828  0.00  0.00    +0.000 A 
ATOM     14  C   UNL     1      -0.412  12.843  18.531  0.00  0.00    +0.000 A 
ATOM     15  C   UNL     1       0.462  11.852  19.015  0.00  0.00    +0.000 A 
ATOM     16  O   UNL     1       1.725  12.160  19.492  0.00  0.00    +0.000 OA
ATOM     17  C   UNL     1       1.922  13.344  20.166  0.00  0.00    +0.000 A 
ATOM     18  C   UNL     1       3.080  13.413  20.947  0.00  0.00    +0.000 A 
ATOM     19  C   UNL     1       3.295  14.504  21.791  0.00  0.00    +0.000 A 
ATOM     20  C   UNL     1       2.343  15.517  21.873  0.00  0.00    +0.000 A 
ATOM     21  C   UNL     1       1.235  15.494  21.027  0.00  0.00    +0.000 A 
ATOM     22  C   UNL     1       1.057  14.436  20.129  0.00  0.00    +0.000 A 
ATOM     23  S   UNL     1      -0.190  14.567  18.880  0.00  0.00    +0.000 S 
ENDBRANCH   5  10
BRANCH   1  26
ATOM     24  C4* UNL     1       5.876   4.668  18.112  0.00  0.00    +0.000 C 
ATOM     25  O4* UNL     1       5.313   5.930  18.540  0.00  0.00    +0.000 OA
ATOM     26  C1* UNL     1       3.966   5.674  18.987  0.00  0.00    +0.000 C 
ATOM     27  C2* UNL     1       3.523   4.341  18.395  0.00  0.00    +0.000 C 
ATOM     28  C3* UNL     1       4.836   3.580  18.414  0.00  0.00    +0.000 C 
BRANCH  27  29
ATOM     29  O2* UNL     1       2.529   3.687  19.188  0.00  0.00    +0.000 OA
ATOM     30  H2* UNL     1       2.840   2.762  19.289  0.00  0.00    +0.000 HD
ENDBRANCH  27  29
BRANCH  28  31
ATOM     31  O3* UNL     1       4.983   3.030  19.742  0.00  0.00    +0.000 OA
ATOM     32  H3* UNL     1       4.454   3.558  20.366  0.00  0.00    +0.000 HD
ENDBRANCH  28  31
BRANCH  24  33
ATOM     33  C5* UNL     1       6.246   4.754  16.632  0.00  0.00    +0.000 C 
BRANCH  33  34
ATOM     34  O5* UNL     1       7.657   4.667  16.475  0.00  0.00    +0.000 OA
ATOM     35  H5* UNL     1       8.013   5.567  16.568  0.00  0.00    +0.000 HD
ENDBRANCH  33  34
ENDBRANCH  24  33
ENDBRANCH   1  26
TORSDOF 6
ENDMDL
MODEL 6
REMARK VINA RESULT:      -8.1      3.066      8.740
REMARK  Name = 
REMARK  6 active torsions:
REMARK  status: ('A' for Active; 'I' for Inactive)
REMARK    1  A    between atoms: O5*_1  and  C5*_2
REMARK    2  A    between atoms: C5*_2  and  C4*_3
REMARK    3  A    between atoms: C1*_5  and  N_6
REMARK    4  A    between atoms: C_10  and  C_11
REMARK    5  A    between atoms: C2*_29  and  O2*_30
REMARK    6  A    between atoms: C3*_31  and  O3*_32
REMARK                            x       y       z     vdW  Elec       q    Type
REMARK                         _______ _______ _______ _____ _____    ______ ____
ROOT
ATOM      1  N   UNL     1       2.765   6.378  19.143  0.00  0.00    +0.000 N 
ATOM      2  C   UNL     1       2.246   6.007  20.363  0.00  0.00    +0.000 A 
ATOM      3  C   UNL     1       1.419   7.013  20.794  0.00  0.00    +0.000 A 
ATOM      4  C   UNL     1       1.503   8.083  19.860  0.00  0.00    +0.000 A 
ATOM      5  C   UNL     1       0.979   9.387  19.754  0.00  0.00    +0.000 A 
ATOM      6  N   UNL     1       1.312  10.129  18.662  0.00  0.00    +0.000 NA
ATOM      7  C   UNL     1       2.119   9.581  17.734  0.00  0.00    +0.000 A 
ATOM      8  N   UNL     1       2.684   8.356  17.740  0.00  0.00    +0.000 NA
ATOM      9  C   UNL     1       2.346   7.651  18.836  0.00  0.00    +0.000 A 
ENDROOT
BRANCH   5  10
ATOM     10  C   UNL     1       0.243  10.041  20.856  0.00  0.00    +0.000 A 
ATOM     11  C   UNL     1      -0.134   9.270  21.980  0.00  0.00    +0.000 A 
ATOM     12  C   UNL     1      -0.798   9.814  23.073  0.00  0.00    +0.000 A 
ATOM     13  C   UNL     1      -0.998  11.184  23.128  0.00  0.00    +0.000 A 
ATOM     14  C   UNL     1      -0.569  11.998  22.075  0.00  0.00    +0.000 A 
ATOM     15  C   UNL     1      -0.029  11.430  20.906  0.00  0.00    +0.000 A 
ATOM     16  O   UNL     1       0.174  12.177  19.758  0.00  0.00    +0.000 OA
ATOM     17  C   UNL     1       0.548  13.497  19.867  0.00  0.00    +0.000 A 
ATOM     18  C   UNL     1       1.111  14.067  18.720  0.00  0.00    +0.000 A 
ATOM     19  C   UNL     1       1.665  15.347  18.770  0.00  0.00    +0.000 A 
ATOM     20  C   UNL     1       1.678  16.052  19.971  0.00  0.00    +0.000 A 
ATOM     21  C   UNL     1       1.035  15.522  21.089  0.00  0.00    +0.000 A 
ATOM     22  C   UNL     1       0.416  14.269  21.019  0.00  0.00    +0.000 A 
ATOM     23  S   UNL     1      -0.627  13.748  22.351  0.00  0.00    +0.000 S 
ENDBRANCH   5  10
BRANCH   1  26
ATOM     24  C4* UNL     1       3.234   3.356  17.339  0.00  0.00    +0.000 C 
ATOM     25  O4* UNL     1       2.623   4.658  17.489  0.00  0.00    +0.000 OA
ATOM     26  C1* UNL     1       3.508   5.463  18.294  0.00  0.00    +0.000 C 
ATOM     27  C2* UNL     1       4.441   4.521  19.045  0.00  0.00    +0.000 C 
ATOM     28  C3* UNL     1       4.612   3.419  18.014  0.00  0.00    +0.000 C 
BRANCH  27  29
ATOM     29  O2* UNL     1       5.694   5.128  19.372  0.00  0.00    +0.000 OA
ATOM     30  H2* UNL     1       5.563   6.091  19.237  0.00  0.00    +0.000 HD
ENDBRANCH  27  29
BRANCH  28  31
ATOM     31  O3* UNL     1       5.651   3.852  17.107  0.00  0.00    +0.000 OA
ATOM     32  H3* UNL     1       5.326   4.609  16.588  0.00  0.00    +0.000 HD
ENDBRANCH  28  31
BRANCH  24  33
ATOM     33  C5* UNL     1       2.317   2.292  17.943  0.00  0.00    +0.000 C 
BRANCH  33  34
ATOM     34  O5* UNL     1       1.024   2.838  18.175  0.00  0.00    +0.000 OA
ATOM     35  H5* UNL     1       0.447   2.527  17.456  0.00  0.00    +0.000 HD
ENDBRANCH  33  34
ENDBRANCH  24  33
ENDBRANCH   1  26
TORSDOF 6
ENDMDL
MODEL 7
REMARK VINA RESULT:      -8.1      3.220      8.553
REMARK  Name = 
REMARK  6 active torsions:
REMARK  status: ('A' for Active; 'I' for Inactive)
REMARK    1  A    between atoms: O5*_1  and  C5*_2
REMARK    2  A    between atoms: C5*_2  and  C4*_3
REMARK    3  A    between atoms: C1*_5  and  N_6
REMARK    4  A    between atoms: C_10  and  C_11
REMARK    5  A    between atoms: C2*_29  and  O2*_30
REMARK    6  A    between atoms: C3*_31  and  O3*_32
REMARK                            x       y       z     vdW  Elec       q    Type
REMARK                         _______ _______ _______ _____ _____    ______ ____
ROOT
ATOM      1  N   UNL     1       2.747   6.028  19.710  0.00  0.00    +0.000 N 
ATOM      2  C   UNL     1       1.943   6.028  20.828  0.00  0.00    +0.000 A 
ATOM      3  C   UNL     1       1.186   7.171  20.803  0.00  0.00    +0.000 A 
ATOM      4  C   UNL     1       1.602   7.952  19.689  0.00  0.00    +0.000 A 
ATOM      5  C   UNL     1       1.289   9.220  19.159  0.00  0.00    +0.000 A 
ATOM      6  N   UNL     1       1.935   9.624  18.031  0.00  0.00    +0.000 NA
ATOM      7  C   UNL     1       2.837   8.794  17.474  0.00  0.00    +0.000 A 
ATOM      8  N   UNL     1       3.221   7.573  17.901  0.00  0.00    +0.000 NA
ATOM      9  C   UNL     1       2.573   7.206  19.022  0.00  0.00    +0.000 A 
ENDROOT
BRANCH   5  10
ATOM     10  C   UNL     1       0.434  10.191  19.872  0.00  0.00    +0.000 A 
ATOM     11  C   UNL     1       0.996  10.964  20.913  0.00  0.00    +0.000 A 
ATOM     12  C   UNL     1       0.270  11.924  21.610  0.00  0.00    +0.000 A 
ATOM     13  C   UNL     1      -1.018  12.226  21.199  0.00  0.00    +0.000 A 
ATOM     14  C   UNL     1      -1.588  11.543  20.120  0.00  0.00    +0.000 A 
ATOM     15  C   UNL     1      -0.907  10.473  19.510  0.00  0.00    +0.000 A 
ATOM     16  O   UNL     1      -1.534   9.624  18.614  0.00  0.00    +0.000 OA
ATOM     17  C   UNL     1      -2.497  10.125  17.768  0.00  0.00    +0.000 A 
ATOM     18  C   UNL     1      -2.796   9.337  16.652  0.00  0.00    +0.000 A 
ATOM     19  C   UNL     1      -3.640   9.824  15.652  0.00  0.00    +0.000 A 
ATOM     20  C   UNL     1      -4.170  11.108  15.756  0.00  0.00    +0.000 A 
ATOM     21  C   UNL     1      -3.948  11.856  16.911  0.00  0.00    +0.000 A 
ATOM     22  C   UNL     1      -3.160  11.338  17.945  0.00  0.00    +0.000 A 
ATOM     23  S   UNL     1      -3.124  12.176  19.503  0.00  0.00    +0.000 S 
ENDBRANCH   5  10
BRANCH   1  26
ATOM     24  C4* UNL     1       5.504   4.408  18.166  0.00  0.00    +0.000 C 
ATOM     25  O4* UNL     1       4.931   5.171  19.254  0.00  0.00    +0.000 OA
ATOM     26  C1* UNL     1       3.522   4.869  19.299  0.00  0.00    +0.000 C 
ATOM     27  C2* UNL     1       3.125   4.291  17.947  0.00  0.00    +0.000 C 
ATOM     28  C3* UNL     1       4.387   3.526  17.591  0.00  0.00    +0.000 C 
BRANCH  27  29
ATOM     29  O2* UNL     1       1.993   3.421  18.028  0.00  0.00    +0.000 OA
ATOM     30  H2* UNL     1       2.315   2.611  18.478  0.00  0.00    +0.000 HD
ENDBRANCH  27  29
BRANCH  28  31
ATOM     31  O3* UNL     1       4.301   2.244  18.253  0.00  0.00    +0.000 OA
ATOM     32  H3* UNL     1       4.134   2.386  19.202  0.00  0.00    +0.000 HD
ENDBRANCH  28  31
BRANCH  24  33
ATOM     33  C5* UNL     1       6.105   5.366  17.137  0.00  0.00    +0.000 C 
BRANCH  33  34
ATOM     34  O5* UNL     1       6.020   6.705  17.610  0.00  0.00    +0.000 OA
ATOM     35  H5* UNL     1       6.860   6.905  18.058  0.00  0.00    +0.000 HD
ENDBRANCH  33  34
ENDBRANCH  24  33
ENDBRANCH   1  26
TORSDOF 6
ENDMDL
MODEL 8
REMARK VINA RESULT:      -8.1      0.955      1.251
REMARK  Name = 
REMARK  6 active torsions:
REMARK  status: ('A' for Active; 'I' for Inactive)
REMARK    1  A    between atoms: O5*_1  and  C5*_2
REMARK    2  A    between atoms: C5*_2  and  C4*_3
REMARK    3  A    between atoms: C1*_5  and  N_6
REMARK    4  A    between atoms: C_10  and  C_11
REMARK    5  A    between atoms: C2*_29  and  O2*_30
REMARK    6  A    between atoms: C3*_31  and  O3*_32
REMARK                            x       y       z     vdW  Elec       q    Type
REMARK                         _______ _______ _______ _____ _____    ______ ____
ROOT
ATOM      1  N   UNL     1       0.476  10.469  20.945  0.00  0.00    +0.000 N 
ATOM      2  C   UNL     1       0.554   9.713  22.093  0.00  0.00    +0.000 A 
ATOM      3  C   UNL     1       1.209   8.547  21.788  0.00  0.00    +0.000 A 
ATOM      4  C   UNL     1       1.459   8.536  20.387  0.00  0.00    +0.000 A 
ATOM      5  C   UNL     1       2.010   7.631  19.457  0.00  0.00    +0.000 A 
ATOM      6  N   UNL     1       2.072   8.008  18.150  0.00  0.00    +0.000 NA
ATOM      7  C   UNL     1       1.608   9.225  17.810  0.00  0.00    +0.000 A 
ATOM      8  N   UNL     1       1.052  10.159  18.608  0.00  0.00    +0.000 NA
ATOM      9  C   UNL     1       0.995   9.754  19.891  0.00  0.00    +0.000 A 
ENDROOT
BRANCH   5  10
ATOM     10  C   UNL     1       2.351   6.237  19.809  0.00  0.00    +0.000 A 
ATOM     11  C   UNL     1       1.559   5.558  20.762  0.00  0.00    +0.000 A 
ATOM     12  C   UNL     1       1.790   4.235  21.124  0.00  0.00    +0.000 A 
ATOM     13  C   UNL     1       2.756   3.509  20.445  0.00  0.00    +0.000 A 
ATOM     14  C   UNL     1       3.511   4.118  19.437  0.00  0.00    +0.000 A 
ATOM     15  C   UNL     1       3.376   5.493  19.173  0.00  0.00    +0.000 A 
ATOM     16  O   UNL     1       4.270   6.174  18.364  0.00  0.00    +0.000 OA
ATOM     17  C   UNL     1       4.829   5.530  17.283  0.00  0.00    +0.000 A 
ATOM     18  C   UNL     1       5.392   6.357  16.306  0.00  0.00    +0.000 A 
ATOM     19  C   UNL     1       5.843   5.817  15.101  0.00  0.00    +0.000 A 
ATOM     20  C   UNL     1       5.712   4.451  14.860  0.00  0.00    +0.000 A 
ATOM     21  C   UNL     1       5.238   3.615  15.869  0.00  0.00    +0.000 A 
ATOM     22  C   UNL     1       4.853   4.148  17.104  0.00  0.00    +0.000 A 
ATOM     23  S   UNL     1       4.526   3.049  18.453  0.00  0.00    +0.000 S 
ENDBRANCH   5  10
BRANCH   1  26
ATOM     24  C4* UNL     1      -1.934  13.063  20.686  0.00  0.00    +0.000 C 
ATOM     25  O4* UNL     1      -1.317  11.978  21.417  0.00  0.00    +0.000 OA
ATOM     26  C1* UNL     1       0.040  11.855  20.945  0.00  0.00    +0.000 C 
ATOM     27  C2* UNL     1       0.127  12.544  19.588  0.00  0.00    +0.000 C 
ATOM     28  C3* UNL     1      -0.851  13.687  19.795  0.00  0.00    +0.000 C 
BRANCH  27  29
ATOM     29  O2* UNL     1       1.441  13.028  19.297  0.00  0.00    +0.000 OA
ATOM     30  H2* UNL     1       1.347  13.572  18.486  0.00  0.00    +0.000 HD
ENDBRANCH  27  29
BRANCH  28  31
ATOM     31  O3* UNL     1      -0.126  14.743  20.466  0.00  0.00    +0.000 OA
ATOM     32  H3* UNL     1      -0.253  14.655  21.428  0.00  0.00    +0.000 HD
ENDBRANCH  28  31
BRANCH  24  33
ATOM     33  C5* UNL     1      -3.128  12.528  19.896  0.00  0.00    +0.000 C 
BRANCH  33  34
ATOM     34  O5* UNL     1      -4.149  13.515  19.826  0.00  0.00    +0.000 OA
ATOM     35  H5* UNL     1      -4.716  13.400  20.608  0.00  0.00    +0.000 HD
ENDBRANCH  33  34
ENDBRANCH  24  33
ENDBRANCH   1  26
TORSDOF 6
ENDMDL
MODEL 9
REMARK VINA RESULT:      -8.1      3.079      8.760
REMARK  Name = 
REMARK  6 active torsions:
REMARK  status: ('A' for Active; 'I' for Inactive)
REMARK    1  A    between atoms: O5*_1  and  C5*_2
REMARK    2  A    between atoms: C5*_2  and  C4*_3
REMARK    3  A    between atoms: C1*_5  and  N_6
REMARK    4  A    between atoms: C_10  and  C_11
REMARK    5  A    between atoms: C2*_29  and  O2*_30
REMARK    6  A    between atoms: C3*_31  and  O3*_32
REMARK                            x       y       z     vdW  Elec       q    Type
REMARK                         _______ _______ _______ _____ _____    ______ ____
ROOT
ATOM      1  N   UNL     1       2.770   6.231  19.249  0.00  0.00    +0.000 N 
ATOM      2  C   UNL     1       2.230   5.914  20.475  0.00  0.00    +0.000 A 
ATOM      3  C   UNL     1       1.421   6.951  20.862  0.00  0.00    +0.000 A 
ATOM      4  C   UNL     1       1.539   7.987  19.893  0.00  0.00    +0.000 A 
ATOM      5  C   UNL     1       1.046   9.299  19.738  0.00  0.00    +0.000 A 
ATOM      6  N   UNL     1       1.408   9.995  18.625  0.00  0.00    +0.000 NA
ATOM      7  C   UNL     1       2.213   9.398  17.727  0.00  0.00    +0.000 A 
ATOM      8  N   UNL     1       2.750   8.162  17.780  0.00  0.00    +0.000 NA
ATOM      9  C   UNL     1       2.384   7.502  18.895  0.00  0.00    +0.000 A 
ENDROOT
BRANCH   5  10
ATOM     10  C   UNL     1       0.312  10.005  20.808  0.00  0.00    +0.000 A 
ATOM     11  C   UNL     1      -0.122   9.274  21.938  0.00  0.00    +0.000 A 
ATOM     12  C   UNL     1      -0.788   9.869  23.004  0.00  0.00    +0.000 A 
ATOM     13  C   UNL     1      -0.931  11.247  23.027  0.00  0.00    +0.000 A 
ATOM     14  C   UNL     1      -0.445  12.019  21.967  0.00  0.00    +0.000 A 
ATOM     15  C   UNL     1       0.097  11.405  20.823  0.00  0.00    +0.000 A 
ATOM     16  O   UNL     1       0.357  12.118  19.665  0.00  0.00    +0.000 OA
ATOM     17  C   UNL     1       0.783  13.424  19.756  0.00  0.00    +0.000 A 
ATOM     18  C   UNL     1       1.395  13.945  18.612  0.00  0.00    +0.000 A 
ATOM     19  C   UNL     1       2.001  15.203  18.648  0.00  0.00    +0.000 A 
ATOM     20  C   UNL     1       2.015  15.932  19.835  0.00  0.00    +0.000 A 
ATOM     21  C   UNL     1       1.326  15.453  20.948  0.00  0.00    +0.000 A 
ATOM     22  C   UNL     1       0.657  14.226  20.889  0.00  0.00    +0.000 A 
ATOM     23  S   UNL     1      -0.437  13.776  22.206  0.00  0.00    +0.000 S 
ENDBRANCH   5  10
BRANCH   1  26
ATOM     24  C4* UNL     1       3.943   2.984  18.418  0.00  0.00    +0.000 C 
ATOM     25  O4* UNL     1       2.885   3.969  18.486  0.00  0.00    +0.000 OA
ATOM     26  C1* UNL     1       3.502   5.271  18.440  0.00  0.00    +0.000 C 
ATOM     27  C2* UNL     1       4.967   5.108  18.826  0.00  0.00    +0.000 C 
ATOM     28  C3* UNL     1       5.262   3.746  18.223  0.00  0.00    +0.000 C 
BRANCH  27  29
ATOM     29  O2* UNL     1       5.804   6.120  18.261  0.00  0.00    +0.000 OA
ATOM     30  H2* UNL     1       5.494   6.234  17.337  0.00  0.00    +0.000 HD
ENDBRANCH  27  29
BRANCH  28  31
ATOM     31  O3* UNL     1       5.572   3.963  16.828  0.00  0.00    +0.000 OA
ATOM     32  H3* UNL     1       4.800   3.715  16.288  0.00  0.00    +0.000 HD
ENDBRANCH  28  31
BRANCH  24  33
ATOM     33  C5* UNL     1       3.923   2.131  19.686  0.00  0.00    +0.000 C 
BRANCH  33  34
ATOM     34  O5* UNL     1       5.252   1.830  20.092  0.00  0.00    +0.000 OA
ATOM     35  H5* UNL     1       5.539   1.051  19.584  0.00  0.00    +0.000 HD
ENDBRANCH  33  34
ENDBRANCH  24  33
ENDBRANCH   1  26
TORSDOF 6
ENDMDL
