MODEL 1
REMARK VINA RESULT:      -7.6      0.000      0.000
REMARK  Name = 
REMARK  4 active torsions:
REMARK  status: ('A' for Active; 'I' for Inactive)
REMARK    1  A    between atoms: C_1  and  C_2
REMARK    2  A    between atoms: C_10  and  S_11
REMARK    3  A    between atoms: S_11  and  C_12
REMARK    4  A    between atoms: C_12  and  C_13
REMARK                            x       y       z     vdW  Elec       q    Type
REMARK                         _______ _______ _______ _____ _____    ______ ____
ROOT
ATOM      1  C   UNL     1       1.236   4.473  18.069  0.00  0.00    +0.000 C 
ATOM      2  C   UNL     1       1.832   3.747  19.234  0.00  0.00    +0.000 A 
ATOM      3  C   UNL     1       1.044   3.436  20.292  0.00  0.00    +0.000 A 
ATOM      4  C   UNL     1       1.580   2.722  21.486  0.00  0.00    +0.000 A 
ATOM      5  O   UNL     1       0.845   2.445  22.427  0.00  0.00    +0.000 OA
ATOM      6  N   UNL     1       2.911   2.405  21.468  0.00  0.00    +0.000 N 
ATOM      7  C   UNL     1       3.701   2.721  20.394  0.00  0.00    +0.000 A 
ATOM      8  N   UNL     1       4.976   2.468  20.258  0.00  0.00    +0.000 NA
ATOM      9  N   UNL     1       5.351   2.937  19.031  0.00  0.00    +0.000 NA
ATOM     10  C   UNL     1       4.297   3.460  18.437  0.00  0.00    +0.000 A 
ATOM     11  N   UNL     1       3.189   3.371  19.273  0.00  0.00    +0.000 N 
ATOM     12  H   UNL     1       3.319   1.925  22.256  0.00  0.00    +0.000 HD
ENDROOT
BRANCH  10  13
ATOM     13  S   UNL     1       4.365   4.116  16.823  0.00  0.00    +0.000 S 
BRANCH  13  14
ATOM     14  C   UNL     1       6.184   4.111  16.579  0.00  0.00    +0.000 C 
BRANCH  14  15
ATOM     15  C   UNL     1       6.929   5.295  17.167  0.00  0.00    +0.000 A 
ATOM     16  C   UNL     1       6.827   6.574  16.593  0.00  0.00    +0.000 A 
ATOM     17  C   UNL     1       7.428   7.682  17.203  0.00  0.00    +0.000 A 
ATOM     18  C   UNL     1       8.131   7.518  18.390  0.00  0.00    +0.000 A 
ATOM     19  F   UNL     1       8.696   8.581  18.979  0.00  0.00    +0.000 F 
ATOM     20  C   UNL     1       8.240   6.267  18.982  0.00  0.00    +0.000 A 
ATOM     21  C   UNL     1       7.640   5.159  18.374  0.00  0.00    +0.000 A 
ENDBRANCH  14  15
ENDBRANCH  13  14
ENDBRANCH  10  13
TORSDOF 3
ENDMDL
MODEL 2
REMARK VINA RESULT:      -7.5      1.382      1.721
REMARK  Name = 
REMARK  4 active torsions:
REMARK  status: ('A' for Active; 'I' for Inactive)
REMARK    1  A    between atoms: C_1  and  C_2
REMARK    2  A    between atoms: C_10  and  S_11
REMARK    3  A    between atoms: S_11  and  C_12
REMARK    4  A    between atoms: C_12  and  C_13
REMARK                            x       y       z     vdW  Elec       q    Type
REMARK                         _______ _______ _______ _____ _____    ______ ____
ROOT
ATOM      1  C   UNL     1       2.754   1.825  17.842  0.00  0.00    +0.000 C 
ATOM      2  C   UNL     1       2.567   2.741  19.011  0.00  0.00    +0.000 A 
ATOM      3  C   UNL     1       2.007   2.257  20.146  0.00  0.00    +0.000 A 
ATOM      4  C   UNL     1       1.786   3.122  21.341  0.00  0.00    +0.000 A 
ATOM      5  O   UNL     1       1.285   2.659  22.359  0.00  0.00    +0.000 OA
ATOM      6  N   UNL     1       2.166   4.431  21.232  0.00  0.00    +0.000 N 
ATOM      7  C   UNL     1       2.734   4.912  20.081  0.00  0.00    +0.000 A 
ATOM      8  N   UNL     1       3.139   6.135  19.859  0.00  0.00    +0.000 NA
ATOM      9  N   UNL     1       3.655   6.165  18.595  0.00  0.00    +0.000 NA
ATOM     10  C   UNL     1       3.562   4.960  18.071  0.00  0.00    +0.000 A 
ATOM     11  N   UNL     1       2.955   4.095  18.975  0.00  0.00    +0.000 N 
ATOM     12  H   UNL     1       2.031   5.055  22.014  0.00  0.00    +0.000 HD
ENDROOT
BRANCH  10  13
ATOM     13  S   UNL     1       4.168   4.584  16.479  0.00  0.00    +0.000 S 
BRANCH  13  14
ATOM     14  C   UNL     1       5.895   4.144  16.918  0.00  0.00    +0.000 C 
BRANCH  14  15
ATOM     15  C   UNL     1       6.759   5.288  17.416  0.00  0.00    +0.000 A 
ATOM     16  C   UNL     1       6.790   6.521  16.740  0.00  0.00    +0.000 A 
ATOM     17  C   UNL     1       7.503   7.606  17.264  0.00  0.00    +0.000 A 
ATOM     18  C   UNL     1       8.185   7.466  18.467  0.00  0.00    +0.000 A 
ATOM     19  F   UNL     1       8.857   8.509  18.974  0.00  0.00    +0.000 F 
ATOM     20  C   UNL     1       8.163   6.262  19.158  0.00  0.00    +0.000 A 
ATOM     21  C   UNL     1       7.452   5.176  18.636  0.00  0.00    +0.000 A 
ENDBRANCH  14  15
ENDBRANCH  13  14
ENDBRANCH  10  13
TORSDOF 3
ENDMDL
MODEL 3
REMARK VINA RESULT:      -7.5      3.387      5.774
REMARK  Name = 
REMARK  4 active torsions:
REMARK  status: ('A' for Active; 'I' for Inactive)
REMARK    1  A    between atoms: C_1  and  C_2
REMARK    2  A    between atoms: C_10  and  S_11
REMARK    3  A    between atoms: S_11  and  C_12
REMARK    4  A    between atoms: C_12  and  C_13
REMARK                            x       y       z     vdW  Elec       q    Type
REMARK                         _______ _______ _______ _____ _____    ______ ____
ROOT
ATOM      1  C   UNL     1       5.211   4.083  15.176  0.00  0.00    +0.000 C 
ATOM      2  C   UNL     1       5.849   4.823  16.309  0.00  0.00    +0.000 A 
ATOM      3  C   UNL     1       6.673   5.864  16.037  0.00  0.00    +0.000 A 
ATOM      4  C   UNL     1       7.347   6.635  17.121  0.00  0.00    +0.000 A 
ATOM      5  O   UNL     1       8.082   7.578  16.849  0.00  0.00    +0.000 OA
ATOM      6  N   UNL     1       7.102   6.233  18.405  0.00  0.00    +0.000 N 
ATOM      7  C   UNL     1       6.265   5.181  18.673  0.00  0.00    +0.000 A 
ATOM      8  N   UNL     1       5.951   4.710  19.851  0.00  0.00    +0.000 NA
ATOM      9  N   UNL     1       5.078   3.678  19.652  0.00  0.00    +0.000 NA
ATOM     10  C   UNL     1       4.870   3.544  18.358  0.00  0.00    +0.000 A 
ATOM     11  N   UNL     1       5.625   4.477  17.656  0.00  0.00    +0.000 N 
ATOM     12  H   UNL     1       7.539   6.723  19.172  0.00  0.00    +0.000 HD
ENDROOT
BRANCH  10  13
ATOM     13  S   UNL     1       3.765   2.360  17.708  0.00  0.00    +0.000 S 
BRANCH  13  14
ATOM     14  C   UNL     1       2.332   3.453  17.366  0.00  0.00    +0.000 C 
BRANCH  14  15
ATOM     15  C   UNL     1       2.060   4.526  18.404  0.00  0.00    +0.000 A 
ATOM     16  C   UNL     1       1.517   4.201  19.659  0.00  0.00    +0.000 A 
ATOM     17  C   UNL     1       1.371   5.179  20.651  0.00  0.00    +0.000 A 
ATOM     18  C   UNL     1       1.770   6.485  20.394  0.00  0.00    +0.000 A 
ATOM     19  F   UNL     1       1.641   7.417  21.348  0.00  0.00    +0.000 F 
ATOM     20  C   UNL     1       2.317   6.830  19.165  0.00  0.00    +0.000 A 
ATOM     21  C   UNL     1       2.463   5.855  18.174  0.00  0.00    +0.000 A 
ENDBRANCH  14  15
ENDBRANCH  13  14
ENDBRANCH  10  13
TORSDOF 3
ENDMDL
MODEL 4
REMARK VINA RESULT:      -7.5      1.432      2.127
REMARK  Name = 
REMARK  4 active torsions:
REMARK  status: ('A' for Active; 'I' for Inactive)
REMARK    1  A    between atoms: C_1  and  C_2
REMARK    2  A    between atoms: C_10  and  S_11
REMARK    3  A    between atoms: S_11  and  C_12
REMARK    4  A    between atoms: C_12  and  C_13
REMARK                            x       y       z     vdW  Elec       q    Type
REMARK                         _______ _______ _______ _____ _____    ______ ____
ROOT
ATOM      1  C   UNL     1       2.972   1.848  17.880  0.00  0.00    +0.000 C 
ATOM      2  C   UNL     1       2.631   2.788  18.993  0.00  0.00    +0.000 A 
ATOM      3  C   UNL     1       2.053   2.299  20.117  0.00  0.00    +0.000 A 
ATOM      4  C   UNL     1       1.681   3.186  21.257  0.00  0.00    +0.000 A 
ATOM      5  O   UNL     1       1.166   2.718  22.266  0.00  0.00    +0.000 OA
ATOM      6  N   UNL     1       1.941   4.520  21.109  0.00  0.00    +0.000 N 
ATOM      7  C   UNL     1       2.528   5.007  19.970  0.00  0.00    +0.000 A 
ATOM      8  N   UNL     1       2.829   6.253  19.715  0.00  0.00    +0.000 NA
ATOM      9  N   UNL     1       3.414   6.282  18.481  0.00  0.00    +0.000 NA
ATOM     10  C   UNL     1       3.465   5.053  18.009  0.00  0.00    +0.000 A 
ATOM     11  N   UNL     1       2.890   4.171  18.917  0.00  0.00    +0.000 N 
ATOM     12  H   UNL     1       1.702   5.159  21.853  0.00  0.00    +0.000 HD
ENDROOT
BRANCH  10  13
ATOM     13  S   UNL     1       4.198   4.674  16.472  0.00  0.00    +0.000 S 
BRANCH  13  14
ATOM     14  C   UNL     1       5.907   4.323  17.038  0.00  0.00    +0.000 C 
BRANCH  14  15
ATOM     15  C   UNL     1       6.668   5.507  17.606  0.00  0.00    +0.000 A 
ATOM     16  C   UNL     1       7.480   5.368  18.745  0.00  0.00    +0.000 A 
ATOM     17  C   UNL     1       8.264   6.436  19.199  0.00  0.00    +0.000 A 
ATOM     18  C   UNL     1       8.244   7.645  18.515  0.00  0.00    +0.000 A 
ATOM     19  F   UNL     1       9.004   8.663  18.942  0.00  0.00    +0.000 F 
ATOM     20  C   UNL     1       7.456   7.805  17.382  0.00  0.00    +0.000 A 
ATOM     21  C   UNL     1       6.672   6.740  16.927  0.00  0.00    +0.000 A 
ENDBRANCH  14  15
ENDBRANCH  13  14
ENDBRANCH  10  13
TORSDOF 3
ENDMDL
MODEL 5
REMARK VINA RESULT:      -7.5      2.779      3.526
REMARK  Name = 
REMARK  4 active torsions:
REMARK  status: ('A' for Active; 'I' for Inactive)
REMARK    1  A    between atoms: C_1  and  C_2
REMARK    2  A    between atoms: C_10  and  S_11
REMARK    3  A    between atoms: S_11  and  C_12
REMARK    4  A    between atoms: C_12  and  C_13
REMARK                            x       y       z     vdW  Elec       q    Type
REMARK                         _______ _______ _______ _____ _____    ______ ____
ROOT
ATOM      1  C   UNL     1       2.944   6.011  17.688  0.00  0.00    +0.000 C 
ATOM      2  C   UNL     1       2.738   4.631  18.229  0.00  0.00    +0.000 A 
ATOM      3  C   UNL     1       1.533   4.032  18.072  0.00  0.00    +0.000 A 
ATOM      4  C   UNL     1       1.263   2.663  18.597  0.00  0.00    +0.000 A 
ATOM      5  O   UNL     1       0.166   2.140  18.436  0.00  0.00    +0.000 OA
ATOM      6  N   UNL     1       2.289   2.043  19.255  0.00  0.00    +0.000 N 
ATOM      7  C   UNL     1       3.507   2.653  19.407  0.00  0.00    +0.000 A 
ATOM      8  N   UNL     1       4.559   2.164  20.008  0.00  0.00    +0.000 NA
ATOM      9  N   UNL     1       5.551   3.097  19.907  0.00  0.00    +0.000 NA
ATOM     10  C   UNL     1       5.089   4.136  19.240  0.00  0.00    +0.000 A 
ATOM     11  N   UNL     1       3.758   3.925  18.898  0.00  0.00    +0.000 N 
ATOM     12  H   UNL     1       2.152   1.116  19.631  0.00  0.00    +0.000 HD
ENDROOT
BRANCH  10  13
ATOM     13  S   UNL     1       6.083   5.517  18.858  0.00  0.00    +0.000 S 
BRANCH  13  14
ATOM     14  C   UNL     1       7.261   4.720  17.699  0.00  0.00    +0.000 C 
BRANCH  14  15
ATOM     15  C   UNL     1       6.766   4.544  16.276  0.00  0.00    +0.000 A 
ATOM     16  C   UNL     1       7.486   5.067  15.187  0.00  0.00    +0.000 A 
ATOM     17  C   UNL     1       7.082   4.808  13.871  0.00  0.00    +0.000 A 
ATOM     18  C   UNL     1       5.960   4.024  13.637  0.00  0.00    +0.000 A 
ATOM     19  F   UNL     1       5.581   3.766  12.378  0.00  0.00    +0.000 F 
ATOM     20  C   UNL     1       5.235   3.489  14.695  0.00  0.00    +0.000 A 
ATOM     21  C   UNL     1       5.637   3.747  16.009  0.00  0.00    +0.000 A 
ENDBRANCH  14  15
ENDBRANCH  13  14
ENDBRANCH  10  13
TORSDOF 3
ENDMDL
MODEL 6
REMARK VINA RESULT:      -7.5      3.409      5.569
REMARK  Name = 
REMARK  4 active torsions:
REMARK  status: ('A' for Active; 'I' for Inactive)
REMARK    1  A    between atoms: C_1  and  C_2
REMARK    2  A    between atoms: C_10  and  S_11
REMARK    3  A    between atoms: S_11  and  C_12
REMARK    4  A    between atoms: C_12  and  C_13
REMARK                            x       y       z     vdW  Elec       q    Type
REMARK                         _______ _______ _______ _____ _____    ______ ____
ROOT
ATOM      1  C   UNL     1       4.954   4.175  15.302  0.00  0.00    +0.000 C 
ATOM      2  C   UNL     1       5.696   4.864  16.403  0.00  0.00    +0.000 A 
ATOM      3  C   UNL     1       6.541   5.879  16.098  0.00  0.00    +0.000 A 
ATOM      4  C   UNL     1       7.315   6.598  17.150  0.00  0.00    +0.000 A 
ATOM      5  O   UNL     1       8.067   7.518  16.849  0.00  0.00    +0.000 OA
ATOM      6  N   UNL     1       7.140   6.177  18.439  0.00  0.00    +0.000 N 
ATOM      7  C   UNL     1       6.282   5.152  18.741  0.00  0.00    +0.000 A 
ATOM      8  N   UNL     1       6.028   4.666  19.927  0.00  0.00    +0.000 NA
ATOM      9  N   UNL     1       5.103   3.674  19.767  0.00  0.00    +0.000 NA
ATOM     10  C   UNL     1       4.804   3.577  18.487  0.00  0.00    +0.000 A 
ATOM     11  N   UNL     1       5.547   4.497  17.755  0.00  0.00    +0.000 N 
ATOM     12  H   UNL     1       7.647   6.631  19.184  0.00  0.00    +0.000 HD
ENDROOT
BRANCH  10  13
ATOM     13  S   UNL     1       3.612   2.452  17.890  0.00  0.00    +0.000 S 
BRANCH  13  14
ATOM     14  C   UNL     1       2.206   3.608  17.661  0.00  0.00    +0.000 C 
BRANCH  14  15
ATOM     15  C   UNL     1       2.199   4.824  18.568  0.00  0.00    +0.000 A 
ATOM     16  C   UNL     1       2.525   6.099  18.074  0.00  0.00    +0.000 A 
ATOM     17  C   UNL     1       2.411   7.232  18.889  0.00  0.00    +0.000 A 
ATOM     18  C   UNL     1       1.969   7.098  20.199  0.00  0.00    +0.000 A 
ATOM     19  F   UNL     1       1.849   8.184  20.974  0.00  0.00    +0.000 F 
ATOM     20  C   UNL     1       1.634   5.850  20.709  0.00  0.00    +0.000 A 
ATOM     21  C   UNL     1       1.747   4.717  19.897  0.00  0.00    +0.000 A 
ENDBRANCH  14  15
ENDBRANCH  13  14
ENDBRANCH  10  13
TORSDOF 3
ENDMDL
MODEL 7
REMARK VINA RESULT:      -7.4      0.339      1.132
REMARK  Name = 
REMARK  4 active torsions:
REMARK  status: ('A' for Active; 'I' for Inactive)
REMARK    1  A    between atoms: C_1  and  C_2
REMARK    2  A    between atoms: C_10  and  S_11
REMARK    3  A    between atoms: S_11  and  C_12
REMARK    4  A    between atoms: C_12  and  C_13
REMARK                            x       y       z     vdW  Elec       q    Type
REMARK                         _______ _______ _______ _____ _____    ______ ____
ROOT
ATOM      1  C   UNL     1       1.421   4.967  18.383  0.00  0.00    +0.000 C 
ATOM      2  C   UNL     1       1.947   4.055  19.447  0.00  0.00    +0.000 A 
ATOM      3  C   UNL     1       1.156   3.745  20.502  0.00  0.00    +0.000 A 
ATOM      4  C   UNL     1       1.626   2.850  21.599  0.00  0.00    +0.000 A 
ATOM      5  O   UNL     1       0.887   2.578  22.538  0.00  0.00    +0.000 OA
ATOM      6  N   UNL     1       2.900   2.366  21.494  0.00  0.00    +0.000 N 
ATOM      7  C   UNL     1       3.694   2.683  20.423  0.00  0.00    +0.000 A 
ATOM      8  N   UNL     1       4.920   2.281  20.211  0.00  0.00    +0.000 NA
ATOM      9  N   UNL     1       5.319   2.818  19.020  0.00  0.00    +0.000 NA
ATOM     10  C   UNL     1       4.328   3.531  18.524  0.00  0.00    +0.000 A 
ATOM     11  N   UNL     1       3.243   3.504  19.393  0.00  0.00    +0.000 N 
ATOM     12  H   UNL     1       3.263   1.760  22.215  0.00  0.00    +0.000 HD
ENDROOT
BRANCH  10  13
ATOM     13  S   UNL     1       4.437   4.332  16.978  0.00  0.00    +0.000 S 
BRANCH  13  14
ATOM     14  C   UNL     1       6.263   4.428  16.824  0.00  0.00    +0.000 C 
BRANCH  14  15
ATOM     15  C   UNL     1       6.916   5.632  17.477  0.00  0.00    +0.000 A 
ATOM     16  C   UNL     1       7.655   5.501  18.666  0.00  0.00    +0.000 A 
ATOM     17  C   UNL     1       8.345   6.595  19.203  0.00  0.00    +0.000 A 
ATOM     18  C   UNL     1       8.303   7.823  18.554  0.00  0.00    +0.000 A 
ATOM     19  F   UNL     1       8.974   8.865  19.063  0.00  0.00    +0.000 F 
ATOM     20  C   UNL     1       7.586   7.976  17.374  0.00  0.00    +0.000 A 
ATOM     21  C   UNL     1       6.896   6.885  16.836  0.00  0.00    +0.000 A 
ENDBRANCH  14  15
ENDBRANCH  13  14
ENDBRANCH  10  13
TORSDOF 3
ENDMDL
MODEL 8
REMARK VINA RESULT:      -7.4      4.362      6.746
REMARK  Name = 
REMARK  4 active torsions:
REMARK  status: ('A' for Active; 'I' for Inactive)
REMARK    1  A    between atoms: C_1  and  C_2
REMARK    2  A    between atoms: C_10  and  S_11
REMARK    3  A    between atoms: S_11  and  C_12
REMARK    4  A    between atoms: C_12  and  C_13
REMARK                            x       y       z     vdW  Elec       q    Type
REMARK                         _______ _______ _______ _____ _____    ______ ____
ROOT
ATOM      1  C   UNL     1       4.881   2.984  17.096  0.00  0.00    +0.000 C 
ATOM      2  C   UNL     1       5.707   3.875  16.222  0.00  0.00    +0.000 A 
ATOM      3  C   UNL     1       5.818   3.589  14.903  0.00  0.00    +0.000 A 
ATOM      4  C   UNL     1       6.633   4.433  13.983  0.00  0.00    +0.000 A 
ATOM      5  O   UNL     1       6.712   4.156  12.791  0.00  0.00    +0.000 OA
ATOM      6  N   UNL     1       7.274   5.506  14.538  0.00  0.00    +0.000 N 
ATOM      7  C   UNL     1       7.155   5.791  15.873  0.00  0.00    +0.000 A 
ATOM      8  N   UNL     1       7.712   6.784  16.515  0.00  0.00    +0.000 NA
ATOM      9  N   UNL     1       7.309   6.699  17.817  0.00  0.00    +0.000 NA
ATOM     10  C   UNL     1       6.509   5.660  17.945  0.00  0.00    +0.000 A 
ATOM     11  N   UNL     1       6.377   5.009  16.723  0.00  0.00    +0.000 N 
ATOM     12  H   UNL     1       7.841   6.103  13.954  0.00  0.00    +0.000 HD
ENDROOT
BRANCH  10  13
ATOM     13  S   UNL     1       5.744   5.252  19.459  0.00  0.00    +0.000 S 
BRANCH  13  14
ATOM     14  C   UNL     1       4.084   5.972  19.152  0.00  0.00    +0.000 C 
BRANCH  14  15
ATOM     15  C   UNL     1       2.944   4.975  19.050  0.00  0.00    +0.000 A 
ATOM     16  C   UNL     1       2.144   4.904  17.896  0.00  0.00    +0.000 A 
ATOM     17  C   UNL     1       1.166   3.911  17.763  0.00  0.00    +0.000 A 
ATOM     18  C   UNL     1       0.984   2.983  18.781  0.00  0.00    +0.000 A 
ATOM     19  F   UNL     1       0.055   2.026  18.648  0.00  0.00    +0.000 F 
ATOM     20  C   UNL     1       1.766   3.027  19.928  0.00  0.00    +0.000 A 
ATOM     21  C   UNL     1       2.744   4.018  20.062  0.00  0.00    +0.000 A 
ENDBRANCH  14  15
ENDBRANCH  13  14
ENDBRANCH  10  13
TORSDOF 3
ENDMDL
MODEL 9
REMARK VINA RESULT:      -7.3      3.907      6.582
REMARK  Name = 
REMARK  4 active torsions:
REMARK  status: ('A' for Active; 'I' for Inactive)
REMARK    1  A    between atoms: C_1  and  C_2
REMARK    2  A    between atoms: C_10  and  S_11
REMARK    3  A    between atoms: S_11  and  C_12
REMARK    4  A    between atoms: C_12  and  C_13
REMARK                            x       y       z     vdW  Elec       q    Type
REMARK                         _______ _______ _______ _____ _____    ______ ____
ROOT
ATOM      1  C   UNL     1       5.358   4.111  19.434  0.00  0.00    +0.000 C 
ATOM      2  C   UNL     1       6.099   5.029  18.513  0.00  0.00    +0.000 A 
ATOM      3  C   UNL     1       6.989   5.909  19.033  0.00  0.00    +0.000 A 
ATOM      4  C   UNL     1       7.752   6.855  18.169  0.00  0.00    +0.000 A 
ATOM      5  O   UNL     1       8.557   7.636  18.662  0.00  0.00    +0.000 OA
ATOM      6  N   UNL     1       7.500   6.801  16.825  0.00  0.00    +0.000 N 
ATOM      7  C   UNL     1       6.601   5.907  16.307  0.00  0.00    +0.000 A 
ATOM      8  N   UNL     1       6.281   5.757  15.049  0.00  0.00    +0.000 NA
ATOM      9  N   UNL     1       5.366   4.745  14.983  0.00  0.00    +0.000 NA
ATOM     10  C   UNL     1       5.149   4.291  16.201  0.00  0.00    +0.000 A 
ATOM     11  N   UNL     1       5.906   5.012  17.118  0.00  0.00    +0.000 N 
ATOM     12  H   UNL     1       7.990   7.426  16.202  0.00  0.00    +0.000 HD
ENDROOT
BRANCH  10  13
ATOM     13  S   UNL     1       4.077   2.953  16.521  0.00  0.00    +0.000 S 
BRANCH  13  14
ATOM     14  C   UNL     1       2.587   3.888  17.041  0.00  0.00    +0.000 C 
BRANCH  14  15
ATOM     15  C   UNL     1       2.048   3.552  18.420  0.00  0.00    +0.000 A 
ATOM     16  C   UNL     1       2.034   2.227  18.890  0.00  0.00    +0.000 A 
ATOM     17  C   UNL     1       1.638   1.937  20.202  0.00  0.00    +0.000 A 
ATOM     18  C   UNL     1       1.257   2.969  21.050  0.00  0.00    +0.000 A 
ATOM     19  F   UNL     1       0.890   2.692  22.309  0.00  0.00    +0.000 F 
ATOM     20  C   UNL     1       1.269   4.287  20.612  0.00  0.00    +0.000 A 
ATOM     21  C   UNL     1       1.664   4.579  19.302  0.00  0.00    +0.000 A 
ENDBRANCH  14  15
ENDBRANCH  13  14
ENDBRANCH  10  13
TORSDOF 3
ENDMDL
