MODEL 1
REMARK VINA RESULT:      -6.9      0.000      0.000
REMARK  Name = 
REMARK  4 active torsions:
REMARK  status: ('A' for Active; 'I' for Inactive)
REMARK    1  A    between atoms: C_2  and  C_21
REMARK    2  A    between atoms: N_3  and  C_4
REMARK    3  A    between atoms: C_4  and  C_5
REMARK    4  A    between atoms: C_13  and  C_15
REMARK                            x       y       z     vdW  Elec       q    Type
REMARK                         _______ _______ _______ _____ _____    ______ ____
ROOT
ATOM      1  C   UNL     1       4.818   4.492  19.226  0.00  0.00    +0.000 C 
ATOM      2  C   UNL     1       4.238   3.277  19.444  0.00  0.00    +0.000 C 
ATOM      3 BR   UNL     1       5.012   1.584  19.138  0.00  0.00    +0.000 Br
ENDROOT
BRANCH   1   4
ATOM      4  C   UNL     1       6.158   4.613  18.492  0.00  0.00    +0.000 C 
ATOM      5  O   UNL     1       7.166   4.901  19.148  0.00  0.00    +0.000 OA
ATOM      6  N   UNL     1       6.284   4.375  17.113  0.00  0.00    +0.000 N 
ATOM      7  C   UNL     1       7.617   4.581  16.527  0.00  0.00    +0.000 C 
ATOM      8  C   UNL     1       7.545   5.284  15.170  0.00  0.00    +0.000 C 
ATOM      9  C   UNL     1       6.614   4.557  14.207  0.00  0.00    +0.000 C 
ATOM     10  C   UNL     1       5.248   4.373  14.845  0.00  0.00    +0.000 C 
ATOM     11  C   UNL     1       5.362   3.695  16.203  0.00  0.00    +0.000 C 
ENDBRANCH   1   4
BRANCH   2  12
ATOM     12  C   UNL     1       2.813   3.162  19.863  0.00  0.00    +0.000 A 
ATOM     13  C   UNL     1       2.482   3.078  21.226  0.00  0.00    +0.000 A 
ATOM     14  C   UNL     1       1.144   2.954  21.618  0.00  0.00    +0.000 A 
ATOM     15  C   UNL     1       0.135   2.900  20.661  0.00  0.00    +0.000 A 
ATOM     16  C   UNL     1       0.457   2.986  19.303  0.00  0.00    +0.000 A 
ATOM     17  C   UNL     1       1.790   3.127  18.906  0.00  0.00    +0.000 A 
ENDBRANCH   2  12
BRANCH   1  20
ATOM     18  O   UNL     1       3.308   5.916  17.380  0.00  0.00    +0.000 OA
ATOM     19  C   UNL     1       3.361   6.295  18.550  0.00  0.00    +0.000 C 
ATOM     20  N   UNL     1       4.118   5.653  19.528  0.00  0.00    +0.000 N 
ATOM     21  H   UNL     1       3.771   5.692  20.478  0.00  0.00    +0.000 HD
BRANCH  19  22
ATOM     22  C   UNL     1       2.455   7.405  18.979  0.00  0.00    +0.000 A 
ATOM     23  C   UNL     1       2.115   8.490  18.157  0.00  0.00    +0.000 A 
ATOM     24  C   UNL     1       1.322   9.529  18.656  0.00  0.00    +0.000 A 
ATOM     25  C   UNL     1       0.862   9.487  19.970  0.00  0.00    +0.000 A 
ATOM     26 BR   UNL     1      -0.193  10.904  20.639  0.00  0.00    +0.000 Br
ATOM     27  C   UNL     1       1.184   8.415  20.796  0.00  0.00    +0.000 A 
ATOM     28  C   UNL     1       1.984   7.380  20.302  0.00  0.00    +0.000 A 
ENDBRANCH  19  22
ENDBRANCH   1  20
TORSDOF 4
ENDMDL
MODEL 2
REMARK VINA RESULT:      -6.9      2.155      5.361
REMARK  Name = 
REMARK  4 active torsions:
REMARK  status: ('A' for Active; 'I' for Inactive)
REMARK    1  A    between atoms: C_2  and  C_21
REMARK    2  A    between atoms: N_3  and  C_4
REMARK    3  A    between atoms: C_4  and  C_5
REMARK    4  A    between atoms: C_13  and  C_15
REMARK                            x       y       z     vdW  Elec       q    Type
REMARK                         _______ _______ _______ _____ _____    ______ ____
ROOT
ATOM      1  C   UNL     1       4.502   5.360  17.757  0.00  0.00    +0.000 C 
ATOM      2  C   UNL     1       5.790   5.421  17.312  0.00  0.00    +0.000 C 
ATOM      3 BR   UNL     1       6.701   4.113  16.303  0.00  0.00    +0.000 Br
ENDROOT
BRANCH   1   4
ATOM      4  C   UNL     1       3.681   4.071  17.638  0.00  0.00    +0.000 C 
ATOM      5  O   UNL     1       3.617   3.511  16.537  0.00  0.00    +0.000 OA
ATOM      6  N   UNL     1       3.030   3.490  18.739  0.00  0.00    +0.000 N 
ATOM      7  C   UNL     1       2.231   2.284  18.473  0.00  0.00    +0.000 C 
ATOM      8  C   UNL     1       0.903   2.295  19.234  0.00  0.00    +0.000 C 
ATOM      9  C   UNL     1       1.112   2.513  20.728  0.00  0.00    +0.000 C 
ATOM     10  C   UNL     1       1.931   3.770  20.960  0.00  0.00    +0.000 C 
ATOM     11  C   UNL     1       3.231   3.734  20.167  0.00  0.00    +0.000 C 
ENDBRANCH   1   4
BRANCH   2  12
ATOM     12  C   UNL     1       6.691   6.542  17.701  0.00  0.00    +0.000 A 
ATOM     13  C   UNL     1       6.567   7.795  17.077  0.00  0.00    +0.000 A 
ATOM     14  C   UNL     1       7.425   8.843  17.431  0.00  0.00    +0.000 A 
ATOM     15  C   UNL     1       8.413   8.648  18.391  0.00  0.00    +0.000 A 
ATOM     16  C   UNL     1       8.539   7.405  19.017  0.00  0.00    +0.000 A 
ATOM     17  C   UNL     1       7.675   6.358  18.680  0.00  0.00    +0.000 A 
ENDBRANCH   2  12
BRANCH   1  20
ATOM     18  O   UNL     1       1.938   6.357  17.374  0.00  0.00    +0.000 OA
ATOM     19  C   UNL     1       2.663   6.848  18.239  0.00  0.00    +0.000 C 
ATOM     20  N   UNL     1       3.969   6.424  18.472  0.00  0.00    +0.000 N 
ATOM     21  H   UNL     1       4.315   6.500  19.420  0.00  0.00    +0.000 HD
BRANCH  19  22
ATOM     22  C   UNL     1       2.068   7.844  19.183  0.00  0.00    +0.000 A 
ATOM     23  C   UNL     1       1.853   7.589  20.545  0.00  0.00    +0.000 A 
ATOM     24  C   UNL     1       1.222   8.544  21.349  0.00  0.00    +0.000 A 
ATOM     25  C   UNL     1       0.810   9.755  20.800  0.00  0.00    +0.000 A 
ATOM     26 BR   UNL     1      -0.059  11.031  21.890  0.00  0.00    +0.000 Br
ATOM     27  C   UNL     1       1.022  10.027  19.452  0.00  0.00    +0.000 A 
ATOM     28  C   UNL     1       1.644   9.070  18.645  0.00  0.00    +0.000 A 
ENDBRANCH  19  22
ENDBRANCH   1  20
TORSDOF 4
ENDMDL
MODEL 3
REMARK VINA RESULT:      -6.6      4.819      9.003
REMARK  Name = 
REMARK  4 active torsions:
REMARK  status: ('A' for Active; 'I' for Inactive)
REMARK    1  A    between atoms: C_2  and  C_21
REMARK    2  A    between atoms: N_3  and  C_4
REMARK    3  A    between atoms: C_4  and  C_5
REMARK    4  A    between atoms: C_13  and  C_15
REMARK                            x       y       z     vdW  Elec       q    Type
REMARK                         _______ _______ _______ _____ _____    ______ ____
ROOT
ATOM      1  C   UNL     1       0.876  12.514  19.615  0.00  0.00    +0.000 C 
ATOM      2  C   UNL     1      -0.188  13.150  19.046  0.00  0.00    +0.000 C 
ATOM      3 BR   UNL     1      -0.384  15.008  18.783  0.00  0.00    +0.000 Br
ENDROOT
BRANCH   1   4
ATOM      4  C   UNL     1       1.996  13.300  20.306  0.00  0.00    +0.000 C 
ATOM      5  O   UNL     1       2.095  13.227  21.536  0.00  0.00    +0.000 OA
ATOM      6  N   UNL     1       2.928  14.068  19.589  0.00  0.00    +0.000 N 
ATOM      7  C   UNL     1       3.917  14.815  20.382  0.00  0.00    +0.000 C 
ATOM      8  C   UNL     1       4.150  16.223  19.829  0.00  0.00    +0.000 C 
ATOM      9  C   UNL     1       4.521  16.194  18.352  0.00  0.00    +0.000 C 
ATOM     10  C   UNL     1       3.473  15.423  17.568  0.00  0.00    +0.000 C 
ATOM     11  C   UNL     1       3.250  14.039  18.163  0.00  0.00    +0.000 C 
ENDBRANCH   1   4
BRANCH   2  12
ATOM     12  C   UNL     1      -1.420  12.407  18.660  0.00  0.00    +0.000 A 
ATOM     13  C   UNL     1      -1.472  11.714  17.439  0.00  0.00    +0.000 A 
ATOM     14  C   UNL     1      -2.634  11.029  17.069  0.00  0.00    +0.000 A 
ATOM     15  C   UNL     1      -3.750  11.041  17.900  0.00  0.00    +0.000 A 
ATOM     16  C   UNL     1      -3.705  11.727  19.117  0.00  0.00    +0.000 A 
ATOM     17  C   UNL     1      -2.540  12.399  19.500  0.00  0.00    +0.000 A 
ENDBRANCH   2  12
BRANCH   1  20
ATOM     18  O   UNL     1       2.228  10.834  17.864  0.00  0.00    +0.000 OA
ATOM     19  C   UNL     1       1.603  10.357  18.811  0.00  0.00    +0.000 C 
ATOM     20  N   UNL     1       0.876  11.129  19.714  0.00  0.00    +0.000 N 
ATOM     21  H   UNL     1       0.804  10.782  20.662  0.00  0.00    +0.000 HD
BRANCH  19  22
ATOM     22  C   UNL     1       1.749   8.895  19.094  0.00  0.00    +0.000 A 
ATOM     23  C   UNL     1       1.461   8.314  20.337  0.00  0.00    +0.000 A 
ATOM     24  C   UNL     1       1.696   6.950  20.548  0.00  0.00    +0.000 A 
ATOM     25  C   UNL     1       2.210   6.164  19.520  0.00  0.00    +0.000 A 
ATOM     26 BR   UNL     1       2.540   4.329  19.819  0.00  0.00    +0.000 Br
ATOM     27  C   UNL     1       2.494   6.724  18.278  0.00  0.00    +0.000 A 
ATOM     28  C   UNL     1       2.270   8.088  18.069  0.00  0.00    +0.000 A 
ENDBRANCH  19  22
ENDBRANCH   1  20
TORSDOF 4
ENDMDL
MODEL 4
REMARK VINA RESULT:      -6.6      4.525      8.640
REMARK  Name = 
REMARK  4 active torsions:
REMARK  status: ('A' for Active; 'I' for Inactive)
REMARK    1  A    between atoms: C_2  and  C_21
REMARK    2  A    between atoms: N_3  and  C_4
REMARK    3  A    between atoms: C_4  and  C_5
REMARK    4  A    between atoms: C_13  and  C_15
REMARK                            x       y       z     vdW  Elec       q    Type
REMARK                         _______ _______ _______ _____ _____    ______ ____
ROOT
ATOM      1  C   UNL     1       0.851  11.992  19.481  0.00  0.00    +0.000 C 
ATOM      2  C   UNL     1      -0.233  12.558  18.878  0.00  0.00    +0.000 C 
ATOM      3 BR   UNL     1      -0.548  14.400  18.618  0.00  0.00    +0.000 Br
ENDROOT
BRANCH   1   4
ATOM      4  C   UNL     1       1.889  12.847  20.217  0.00  0.00    +0.000 C 
ATOM      5  O   UNL     1       1.962  12.757  21.448  0.00  0.00    +0.000 OA
ATOM      6  N   UNL     1       2.778  13.699  19.540  0.00  0.00    +0.000 N 
ATOM      7  C   UNL     1       3.684  14.504  20.373  0.00  0.00    +0.000 C 
ATOM      8  C   UNL     1       3.823  15.936  19.852  0.00  0.00    +0.000 C 
ATOM      9  C   UNL     1       4.232  15.966  18.384  0.00  0.00    +0.000 C 
ATOM     10  C   UNL     1       3.268  15.132  17.559  0.00  0.00    +0.000 C 
ATOM     11  C   UNL     1       3.137  13.724  18.122  0.00  0.00    +0.000 C 
ENDBRANCH   1   4
BRANCH   2  12
ATOM     12  C   UNL     1      -1.396  11.735  18.444  0.00  0.00    +0.000 A 
ATOM     13  C   UNL     1      -1.227  10.730  17.476  0.00  0.00    +0.000 A 
ATOM     14  C   UNL     1      -2.322   9.967  17.056  0.00  0.00    +0.000 A 
ATOM     15  C   UNL     1      -3.587  10.208  17.583  0.00  0.00    +0.000 A 
ATOM     16  C   UNL     1      -3.762  11.204  18.547  0.00  0.00    +0.000 A 
ATOM     17  C   UNL     1      -2.668  11.958  18.984  0.00  0.00    +0.000 A 
ENDBRANCH   2  12
BRANCH   1  20
ATOM     18  O   UNL     1       2.303  10.415  17.715  0.00  0.00    +0.000 OA
ATOM     19  C   UNL     1       1.716   9.892  18.662  0.00  0.00    +0.000 C 
ATOM     20  N   UNL     1       0.944  10.610  19.573  0.00  0.00    +0.000 N 
ATOM     21  H   UNL     1       0.900  10.254  20.519  0.00  0.00    +0.000 HD
BRANCH  19  22
ATOM     22  C   UNL     1       1.960   8.442  18.936  0.00  0.00    +0.000 A 
ATOM     23  C   UNL     1       2.401   7.532  17.964  0.00  0.00    +0.000 A 
ATOM     24  C   UNL     1       2.534   6.175  18.278  0.00  0.00    +0.000 A 
ATOM     25  C   UNL     1       2.236   5.724  19.562  0.00  0.00    +0.000 A 
ATOM     26 BR   UNL     1       2.402   3.888  19.971  0.00  0.00    +0.000 Br
ATOM     27  C   UNL     1       1.805   6.615  20.540  0.00  0.00    +0.000 A 
ATOM     28  C   UNL     1       1.662   7.969  20.225  0.00  0.00    +0.000 A 
ENDBRANCH  19  22
ENDBRANCH   1  20
TORSDOF 4
ENDMDL
MODEL 5
REMARK VINA RESULT:      -6.5      8.202     11.158
REMARK  Name = 
REMARK  4 active torsions:
REMARK  status: ('A' for Active; 'I' for Inactive)
REMARK    1  A    between atoms: C_2  and  C_21
REMARK    2  A    between atoms: N_3  and  C_4
REMARK    3  A    between atoms: C_4  and  C_5
REMARK    4  A    between atoms: C_13  and  C_15
REMARK                            x       y       z     vdW  Elec       q    Type
REMARK                         _______ _______ _______ _____ _____    ______ ____
ROOT
ATOM      1  C   UNL     1      -2.100  13.737  20.998  0.00  0.00    +0.000 C 
ATOM      2  C   UNL     1      -1.538  13.268  22.148  0.00  0.00    +0.000 C 
ATOM      3 BR   UNL     1      -1.421  14.173  23.800  0.00  0.00    +0.000 Br
ENDROOT
BRANCH   1   4
ATOM      4  C   UNL     1      -2.548  15.198  20.870  0.00  0.00    +0.000 C 
ATOM      5  O   UNL     1      -3.597  15.543  21.426  0.00  0.00    +0.000 OA
ATOM      6  N   UNL     1      -1.794  16.157  20.175  0.00  0.00    +0.000 N 
ATOM      7  C   UNL     1      -2.368  17.508  20.083  0.00  0.00    +0.000 C 
ATOM      8  C   UNL     1      -2.179  18.119  18.693  0.00  0.00    +0.000 C 
ATOM      9  C   UNL     1      -0.717  18.099  18.263  0.00  0.00    +0.000 C 
ATOM     10  C   UNL     1      -0.165  16.688  18.363  0.00  0.00    +0.000 C 
ATOM     11  C   UNL     1      -0.395  16.105  19.750  0.00  0.00    +0.000 C 
ENDBRANCH   1   4
BRANCH   2  12
ATOM     12  C   UNL     1      -0.817  11.965  22.184  0.00  0.00    +0.000 A 
ATOM     13  C   UNL     1      -1.190  10.978  23.112  0.00  0.00    +0.000 A 
ATOM     14  C   UNL     1      -0.503   9.759  23.155  0.00  0.00    +0.000 A 
ATOM     15  C   UNL     1       0.561   9.523  22.290  0.00  0.00    +0.000 A 
ATOM     16  C   UNL     1       0.935  10.499  21.363  0.00  0.00    +0.000 A 
ATOM     17  C   UNL     1       0.242  11.712  21.303  0.00  0.00    +0.000 A 
ENDBRANCH   2  12
BRANCH   1  20
ATOM     18  O   UNL     1      -4.329  12.301  20.170  0.00  0.00    +0.000 OA
ATOM     19  C   UNL     1      -3.294  12.264  19.504  0.00  0.00    +0.000 C 
ATOM     20  N   UNL     1      -2.127  12.932  19.867  0.00  0.00    +0.000 N 
ATOM     21  H   UNL     1      -1.527  13.252  19.117  0.00  0.00    +0.000 HD
BRANCH  19  22
ATOM     22  C   UNL     1      -3.333  11.594  18.166  0.00  0.00    +0.000 A 
ATOM     23  C   UNL     1      -2.278  10.826  17.653  0.00  0.00    +0.000 A 
ATOM     24  C   UNL     1      -2.359  10.293  16.361  0.00  0.00    +0.000 A 
ATOM     25  C   UNL     1      -3.492  10.519  15.584  0.00  0.00    +0.000 A 
ATOM     26 BR   UNL     1      -3.585   9.811  13.835  0.00  0.00    +0.000 Br
ATOM     27  C   UNL     1      -4.551  11.273  16.082  0.00  0.00    +0.000 A 
ATOM     28  C   UNL     1      -4.467  11.813  17.367  0.00  0.00    +0.000 A 
ENDBRANCH  19  22
ENDBRANCH   1  20
TORSDOF 4
ENDMDL
MODEL 6
REMARK VINA RESULT:      -6.5      5.421     10.900
REMARK  Name = 
REMARK  4 active torsions:
REMARK  status: ('A' for Active; 'I' for Inactive)
REMARK    1  A    between atoms: C_2  and  C_21
REMARK    2  A    between atoms: N_3  and  C_4
REMARK    3  A    between atoms: C_4  and  C_5
REMARK    4  A    between atoms: C_13  and  C_15
REMARK                            x       y       z     vdW  Elec       q    Type
REMARK                         _______ _______ _______ _____ _____    ______ ____
ROOT
ATOM      1  C   UNL     1      -0.888  12.711  20.189  0.00  0.00    +0.000 C 
ATOM      2  C   UNL     1      -0.279  13.909  20.418  0.00  0.00    +0.000 C 
ATOM      3 BR   UNL     1      -1.082  15.474  21.099  0.00  0.00    +0.000 Br
ENDROOT
BRANCH   1   4
ATOM      4  C   UNL     1      -2.411  12.562  20.289  0.00  0.00    +0.000 C 
ATOM      5  O   UNL     1      -3.058  12.407  19.246  0.00  0.00    +0.000 OA
ATOM      6  N   UNL     1      -3.087  12.562  21.520  0.00  0.00    +0.000 N 
ATOM      7  C   UNL     1      -4.554  12.466  21.467  0.00  0.00    +0.000 C 
ATOM      8  C   UNL     1      -5.227  13.401  22.474  0.00  0.00    +0.000 C 
ATOM      9  C   UNL     1      -4.700  13.180  23.887  0.00  0.00    +0.000 C 
ATOM     10  C   UNL     1      -3.186  13.296  23.901  0.00  0.00    +0.000 C 
ATOM     11  C   UNL     1      -2.555  12.372  22.869  0.00  0.00    +0.000 C 
ENDBRANCH   1   4
BRANCH   2  12
ATOM     12  C   UNL     1       1.138  14.146  20.022  0.00  0.00    +0.000 A 
ATOM     13  C   UNL     1       2.164  14.047  20.976  0.00  0.00    +0.000 A 
ATOM     14  C   UNL     1       3.493  14.285  20.607  0.00  0.00    +0.000 A 
ATOM     15  C   UNL     1       3.804  14.635  19.297  0.00  0.00    +0.000 A 
ATOM     16  C   UNL     1       2.789  14.733  18.342  0.00  0.00    +0.000 A 
ATOM     17  C   UNL     1       1.461  14.480  18.700  0.00  0.00    +0.000 A 
ENDBRANCH   2  12
BRANCH   1  20
ATOM     18  O   UNL     1       0.466  10.903  21.806  0.00  0.00    +0.000 OA
ATOM     19  C   UNL     1       0.483  10.764  20.583  0.00  0.00    +0.000 C 
ATOM     20  N   UNL     1      -0.146  11.643  19.704  0.00  0.00    +0.000 N 
ATOM     21  H   UNL     1      -0.496  11.255  18.838  0.00  0.00    +0.000 HD
BRANCH  19  22
ATOM     22  C   UNL     1       1.079   9.512  20.019  0.00  0.00    +0.000 A 
ATOM     23  C   UNL     1       1.353   8.370  20.785  0.00  0.00    +0.000 A 
ATOM     24  C   UNL     1       1.981   7.265  20.201  0.00  0.00    +0.000 A 
ATOM     25  C   UNL     1       2.330   7.292  18.853  0.00  0.00    +0.000 A 
ATOM     26 BR   UNL     1       3.194   5.802  18.079  0.00  0.00    +0.000 Br
ATOM     27  C   UNL     1       2.058   8.415  18.078  0.00  0.00    +0.000 A 
ATOM     28  C   UNL     1       1.440   9.524  18.661  0.00  0.00    +0.000 A 
ENDBRANCH  19  22
ENDBRANCH   1  20
TORSDOF 4
ENDMDL
MODEL 7
REMARK VINA RESULT:      -6.5      5.522     10.954
REMARK  Name = 
REMARK  4 active torsions:
REMARK  status: ('A' for Active; 'I' for Inactive)
REMARK    1  A    between atoms: C_2  and  C_21
REMARK    2  A    between atoms: N_3  and  C_4
REMARK    3  A    between atoms: C_4  and  C_5
REMARK    4  A    between atoms: C_13  and  C_15
REMARK                            x       y       z     vdW  Elec       q    Type
REMARK                         _______ _______ _______ _____ _____    ______ ____
ROOT
ATOM      1  C   UNL     1      -1.222  12.741  20.534  0.00  0.00    +0.000 C 
ATOM      2  C   UNL     1      -0.583  13.938  20.398  0.00  0.00    +0.000 C 
ATOM      3 BR   UNL     1      -1.365  15.653  20.484  0.00  0.00    +0.000 Br
ENDROOT
BRANCH   1   4
ATOM      4  C   UNL     1      -2.752  12.658  20.584  0.00  0.00    +0.000 C 
ATOM      5  O   UNL     1      -3.376  12.630  19.517  0.00  0.00    +0.000 OA
ATOM      6  N   UNL     1      -3.461  12.577  21.793  0.00  0.00    +0.000 N 
ATOM      7  C   UNL     1      -4.929  12.558  21.698  0.00  0.00    +0.000 C 
ATOM      8  C   UNL     1      -5.586  13.428  22.772  0.00  0.00    +0.000 C 
ATOM      9  C   UNL     1      -5.108  13.055  24.170  0.00  0.00    +0.000 C 
ATOM     10  C   UNL     1      -3.591  13.095  24.229  0.00  0.00    +0.000 C 
ATOM     11  C   UNL     1      -2.975  12.240  23.131  0.00  0.00    +0.000 C 
ENDBRANCH   1   4
BRANCH   2  12
ATOM     12  C   UNL     1       0.859  14.010  20.032  0.00  0.00    +0.000 A 
ATOM     13  C   UNL     1       1.842  14.008  21.036  0.00  0.00    +0.000 A 
ATOM     14  C   UNL     1       3.197  14.091  20.694  0.00  0.00    +0.000 A 
ATOM     15  C   UNL     1       3.577  14.190  19.359  0.00  0.00    +0.000 A 
ATOM     16  C   UNL     1       2.605  14.189  18.355  0.00  0.00    +0.000 A 
ATOM     17  C   UNL     1       1.251  14.089  18.690  0.00  0.00    +0.000 A 
ENDBRANCH   2  12
BRANCH   1  20
ATOM     18  O   UNL     1      -0.873  11.263  18.208  0.00  0.00    +0.000 OA
ATOM     19  C   UNL     1      -0.343  10.892  19.255  0.00  0.00    +0.000 C 
ATOM     20  N   UNL     1      -0.494  11.561  20.468  0.00  0.00    +0.000 N 
ATOM     21  H   UNL     1       0.280  11.515  21.118  0.00  0.00    +0.000 HD
BRANCH  19  22
ATOM     22  C   UNL     1       0.629   9.756  19.196  0.00  0.00    +0.000 A 
ATOM     23  C   UNL     1       1.275   9.349  18.019  0.00  0.00    +0.000 A 
ATOM     24  C   UNL     1       2.114   8.229  18.027  0.00  0.00    +0.000 A 
ATOM     25  C   UNL     1       2.314   7.517  19.208  0.00  0.00    +0.000 A 
ATOM     26 BR   UNL     1       3.433   5.995  19.205  0.00  0.00    +0.000 Br
ATOM     27  C   UNL     1       1.686   7.912  20.385  0.00  0.00    +0.000 A 
ATOM     28  C   UNL     1       0.841   9.025  20.376  0.00  0.00    +0.000 A 
ENDBRANCH  19  22
ENDBRANCH   1  20
TORSDOF 4
ENDMDL
MODEL 8
REMARK VINA RESULT:      -6.4      8.694     12.721
REMARK  Name = 
REMARK  4 active torsions:
REMARK  status: ('A' for Active; 'I' for Inactive)
REMARK    1  A    between atoms: C_2  and  C_21
REMARK    2  A    between atoms: N_3  and  C_4
REMARK    3  A    between atoms: C_4  and  C_5
REMARK    4  A    between atoms: C_13  and  C_15
REMARK                            x       y       z     vdW  Elec       q    Type
REMARK                         _______ _______ _______ _____ _____    ______ ____
ROOT
ATOM      1  C   UNL     1      -2.702  13.454  21.781  0.00  0.00    +0.000 C 
ATOM      2  C   UNL     1      -1.914  14.536  22.043  0.00  0.00    +0.000 C 
ATOM      3 BR   UNL     1      -1.537  15.276  23.737  0.00  0.00    +0.000 Br
ENDROOT
BRANCH   1   4
ATOM      4  C   UNL     1      -3.559  12.811  22.877  0.00  0.00    +0.000 C 
ATOM      5  O   UNL     1      -3.130  11.800  23.445  0.00  0.00    +0.000 OA
ATOM      6  N   UNL     1      -4.793  13.349  23.279  0.00  0.00    +0.000 N 
ATOM      7  C   UNL     1      -5.538  12.600  24.303  0.00  0.00    +0.000 C 
ATOM      8  C   UNL     1      -7.036  12.544  23.997  0.00  0.00    +0.000 C 
ATOM      9  C   UNL     1      -7.620  13.935  23.782  0.00  0.00    +0.000 C 
ATOM     10  C   UNL     1      -6.831  14.670  22.713  0.00  0.00    +0.000 C 
ATOM     11  C   UNL     1      -5.344  14.683  23.039  0.00  0.00    +0.000 C 
ENDBRANCH   1   4
BRANCH   2  12
ATOM     12  C   UNL     1      -1.332  15.356  20.944  0.00  0.00    +0.000 A 
ATOM     13  C   UNL     1      -2.048  16.447  20.422  0.00  0.00    +0.000 A 
ATOM     14  C   UNL     1      -1.508  17.207  19.378  0.00  0.00    +0.000 A 
ATOM     15  C   UNL     1      -0.267  16.879  18.841  0.00  0.00    +0.000 A 
ATOM     16  C   UNL     1       0.451  15.797  19.357  0.00  0.00    +0.000 A 
ATOM     17  C   UNL     1      -0.075  15.044  20.411  0.00  0.00    +0.000 A 
ENDBRANCH   2  12
BRANCH   1  20
ATOM     18  O   UNL     1      -1.224  11.396  20.643  0.00  0.00    +0.000 OA
ATOM     19  C   UNL     1      -2.097  11.960  19.984  0.00  0.00    +0.000 C 
ATOM     20  N   UNL     1      -2.860  13.019  20.473  0.00  0.00    +0.000 N 
ATOM     21  H   UNL     1      -3.803  13.108  20.117  0.00  0.00    +0.000 HD
BRANCH  19  22
ATOM     22  C   UNL     1      -2.459  11.389  18.650  0.00  0.00    +0.000 A 
ATOM     23  C   UNL     1      -1.646  10.490  17.944  0.00  0.00    +0.000 A 
ATOM     24  C   UNL     1      -2.019  10.058  16.667  0.00  0.00    +0.000 A 
ATOM     25  C   UNL     1      -3.203  10.515  16.093  0.00  0.00    +0.000 A 
ATOM     26 BR   UNL     1      -3.688   9.940  14.361  0.00  0.00    +0.000 Br
ATOM     27  C   UNL     1      -4.024  11.401  16.783  0.00  0.00    +0.000 A 
ATOM     28  C   UNL     1      -3.649  11.841  18.055  0.00  0.00    +0.000 A 
ENDBRANCH  19  22
ENDBRANCH   1  20
TORSDOF 4
ENDMDL
MODEL 9
REMARK VINA RESULT:      -6.4      4.977      9.886
REMARK  Name = 
REMARK  4 active torsions:
REMARK  status: ('A' for Active; 'I' for Inactive)
REMARK    1  A    between atoms: C_2  and  C_21
REMARK    2  A    between atoms: N_3  and  C_4
REMARK    3  A    between atoms: C_4  and  C_5
REMARK    4  A    between atoms: C_13  and  C_15
REMARK                            x       y       z     vdW  Elec       q    Type
REMARK                         _______ _______ _______ _____ _____    ______ ____
ROOT
ATOM      1  C   UNL     1      -0.501  12.569  19.698  0.00  0.00    +0.000 C 
ATOM      2  C   UNL     1       0.018  13.796  19.989  0.00  0.00    +0.000 C 
ATOM      3 BR   UNL     1      -0.942  15.332  20.518  0.00  0.00    +0.000 Br
ENDROOT
BRANCH   1   4
ATOM      4  C   UNL     1      -2.014  12.353  19.580  0.00  0.00    +0.000 C 
ATOM      5  O   UNL     1      -2.732  12.671  20.536  0.00  0.00    +0.000 OA
ATOM      6  N   UNL     1      -2.612  11.841  18.417  0.00  0.00    +0.000 N 
ATOM      7  C   UNL     1      -4.067  11.633  18.460  0.00  0.00    +0.000 C 
ATOM      8  C   UNL     1      -4.479  10.318  17.793  0.00  0.00    +0.000 C 
ATOM      9  C   UNL     1      -3.937  10.213  16.372  0.00  0.00    +0.000 C 
ATOM     10  C   UNL     1      -2.433  10.424  16.373  0.00  0.00    +0.000 C 
ATOM     11  C   UNL     1      -2.062  11.728  17.066  0.00  0.00    +0.000 C 
ENDBRANCH   1   4
BRANCH   2  12
ATOM     12  C   UNL     1       1.465  14.092  19.796  0.00  0.00    +0.000 A 
ATOM     13  C   UNL     1       2.346  14.048  20.890  0.00  0.00    +0.000 A 
ATOM     14  C   UNL     1       3.703  14.340  20.712  0.00  0.00    +0.000 A 
ATOM     15  C   UNL     1       4.185  14.690  19.454  0.00  0.00    +0.000 A 
ATOM     16  C   UNL     1       3.315  14.734  18.361  0.00  0.00    +0.000 A 
ATOM     17  C   UNL     1       1.961  14.426  18.530  0.00  0.00    +0.000 A 
ENDBRANCH   2  12
BRANCH   1  20
ATOM     18  O   UNL     1      -0.160  10.265  21.211  0.00  0.00    +0.000 OA
ATOM     19  C   UNL     1       0.443  10.393  20.146  0.00  0.00    +0.000 C 
ATOM     20  N   UNL     1       0.348  11.529  19.346  0.00  0.00    +0.000 N 
ATOM     21  H   UNL     1       0.450  11.398  18.347  0.00  0.00    +0.000 HD
BRANCH  19  22
ATOM     22  C   UNL     1       1.197   9.217  19.611  0.00  0.00    +0.000 A 
ATOM     23  C   UNL     1       1.547   8.101  20.386  0.00  0.00    +0.000 A 
ATOM     24  C   UNL     1       2.318   7.074  19.833  0.00  0.00    +0.000 A 
ATOM     25  C   UNL     1       2.737   7.152  18.507  0.00  0.00    +0.000 A 
ATOM     26 BR   UNL     1       3.794   5.768  17.775  0.00  0.00    +0.000 Br
ATOM     27  C   UNL     1       2.392   8.248  17.723  0.00  0.00    +0.000 A 
ATOM     28  C   UNL     1       1.630   9.280  18.276  0.00  0.00    +0.000 A 
ENDBRANCH  19  22
ENDBRANCH   1  20
TORSDOF 4
ENDMDL
