MODEL 1
REMARK VINA RESULT:      -8.6      0.000      0.000
REMARK  Name = 
REMARK  10 active torsions:
REMARK  status: ('A' for Active; 'I' for Inactive)
REMARK    1  A    between atoms: C_1  and  C_2
REMARK    2  A    between atoms: C_2  and  C_3
REMARK    3  A    between atoms: C_2  and  C_4
REMARK    4  A    between atoms: C_2  and  C_5
REMARK    5  A    between atoms: C_13  and  C_14
REMARK    6  A    between atoms: N_18  and  C_19
REMARK    7  A    between atoms: C_19  and  C_20
REMARK    8  A    between atoms: C_23  and  C_24
REMARK    9  A    between atoms: C_25  and  C_26
REMARK   10  A    between atoms: N_28  and  O_29
REMARK                            x       y       z     vdW  Elec       q    Type
REMARK                         _______ _______ _______ _____ _____    ______ ____
ROOT
ATOM      1  C   UNL     1      -1.563  12.182  20.556  0.00  0.00    +0.000 C 
ATOM      2  C   UNL     1      -0.609  13.300  20.111  0.00  0.00    +0.000 C 
ATOM      3  C   UNL     1       0.415  12.799  19.106  0.00  0.00    +0.000 C 
ATOM      4  C   UNL     1       1.179  11.596  19.649  0.00  0.00    +0.000 C 
ATOM      5  N   UNL     1       0.312  10.482  20.045  0.00  0.00    +0.000 NA
ATOM      6  C   UNL     1      -0.793  10.905  20.932  0.00  0.00    +0.000 C 
ENDROOT
BRANCH   1  15
ATOM      7  C   UNL     1      -3.969  12.760  19.754  0.00  0.00    +0.000 A 
ATOM      8  N   UNL     1      -4.657  12.552  18.574  0.00  0.00    +0.000 N 
ATOM      9  C   UNL     1      -3.971  11.740  17.713  0.00  0.00    +0.000 A 
ATOM     10  C   UNL     1      -4.301  11.334  16.412  0.00  0.00    +0.000 A 
ATOM     11  C   UNL     1      -3.438  10.450  15.764  0.00  0.00    +0.000 A 
ATOM     12  C   UNL     1      -2.306   9.972  16.409  0.00  0.00    +0.000 A 
ATOM     13  C   UNL     1      -1.987  10.412  17.699  0.00  0.00    +0.000 A 
ATOM     14  C   UNL     1      -2.812  11.343  18.369  0.00  0.00    +0.000 A 
ATOM     15  C   UNL     1      -2.747  12.078  19.613  0.00  0.00    +0.000 A 
ATOM     16  H   UNL     1      -5.562  12.941  18.354  0.00  0.00    +0.000 HD
BRANCH   7  18
ATOM     17  C   UNL     1      -4.566  12.730  22.175  0.00  0.00    +0.000 C 
ATOM     18  C   UNL     1      -4.627  13.574  20.886  0.00  0.00    +0.000 C 
ATOM     19  C   UNL     1      -6.108  13.887  20.564  0.00  0.00    +0.000 C 
ATOM     20  C   UNL     1      -3.968  14.937  21.171  0.00  0.00    +0.000 C 
ENDBRANCH   7  18
ENDBRANCH   1  15
BRANCH   5  21
ATOM     21  C   UNL     1       1.063   9.408  20.725  0.00  0.00    +0.000 C 
BRANCH  21  22
ATOM     22  C   UNL     1       1.732   8.407  19.813  0.00  0.00    +0.000 A 
ATOM     23  C   UNL     1       2.076   8.753  18.500  0.00  0.00    +0.000 A 
ATOM     24  C   UNL     1       2.790   7.865  17.691  0.00  0.00    +0.000 A 
ATOM     25  C   UNL     1       3.194   6.620  18.191  0.00  0.00    +0.000 A 
ATOM     26  C   UNL     1       2.790   6.249  19.478  0.00  0.00    +0.000 A 
ATOM     27  C   UNL     1       2.063   7.132  20.283  0.00  0.00    +0.000 A 
BRANCH  25  28
ATOM     28  C   UNL     1       4.020   5.747  17.348  0.00  0.00    +0.000 C 
ATOM     29  C   UNL     1       5.030   6.217  16.602  0.00  0.00    +0.000 C 
BRANCH  29  30
ATOM     30  C   UNL     1       5.822   5.308  15.742  0.00  0.00    +0.000 C 
ATOM     31  O   UNL     1       5.438   4.204  15.375  0.00  0.00    +0.000 OA
ATOM     32  N   UNL     1       7.045   5.825  15.403  0.00  0.00    +0.000 N 
ATOM     33  H   UNL     1       7.421   6.713  15.706  0.00  0.00    +0.000 HD
BRANCH  32  34
ATOM     34  O   UNL     1       7.881   5.014  14.605  0.00  0.00    +0.000 OA
ATOM     35  H   UNL     1       7.696   5.356  13.700  0.00  0.00    +0.000 HD
ENDBRANCH  32  34
ENDBRANCH  29  30
ENDBRANCH  25  28
ENDBRANCH  21  22
ENDBRANCH   5  21
TORSDOF 7
ENDMDL
MODEL 2
REMARK VINA RESULT:      -8.5      1.758      2.131
REMARK  Name = 
REMARK  10 active torsions:
REMARK  status: ('A' for Active; 'I' for Inactive)
REMARK    1  A    between atoms: C_1  and  C_2
REMARK    2  A    between atoms: C_2  and  C_3
REMARK    3  A    between atoms: C_2  and  C_4
REMARK    4  A    between atoms: C_2  and  C_5
REMARK    5  A    between atoms: C_13  and  C_14
REMARK    6  A    between atoms: N_18  and  C_19
REMARK    7  A    between atoms: C_19  and  C_20
REMARK    8  A    between atoms: C_23  and  C_24
REMARK    9  A    between atoms: C_25  and  C_26
REMARK   10  A    between atoms: N_28  and  O_29
REMARK                            x       y       z     vdW  Elec       q    Type
REMARK                         _______ _______ _______ _____ _____    ______ ____
ROOT
ATOM      1  C   UNL     1      -2.489  12.532  20.535  0.00  0.00    +0.000 C 
ATOM      2  C   UNL     1      -1.856  13.908  20.284  0.00  0.00    +0.000 C 
ATOM      3  C   UNL     1      -0.613  13.805  19.415  0.00  0.00    +0.000 C 
ATOM      4  C   UNL     1       0.395  12.825  20.008  0.00  0.00    +0.000 C 
ATOM      5  N   UNL     1      -0.151  11.481  20.223  0.00  0.00    +0.000 NA
ATOM      6  C   UNL     1      -1.434  11.497  20.960  0.00  0.00    +0.000 C 
ENDROOT
BRANCH   1  15
ATOM      7  C   UNL     1      -4.784  12.650  19.316  0.00  0.00    +0.000 A 
ATOM      8  N   UNL     1      -5.219  12.264  18.062  0.00  0.00    +0.000 N 
ATOM      9  C   UNL     1      -4.276  11.535  17.390  0.00  0.00    +0.000 A 
ATOM     10  C   UNL     1      -4.311  11.010  16.090  0.00  0.00    +0.000 A 
ATOM     11  C   UNL     1      -3.221  10.251  15.662  0.00  0.00    +0.000 A 
ATOM     12  C   UNL     1      -2.155  10.007  16.516  0.00  0.00    +0.000 A 
ATOM     13  C   UNL     1      -2.134  10.564  17.800  0.00  0.00    +0.000 A 
ATOM     14  C   UNL     1      -3.198  11.376  18.253  0.00  0.00    +0.000 A 
ATOM     15  C   UNL     1      -3.464  12.178  19.427  0.00  0.00    +0.000 A 
ATOM     16  H   UNL     1      -6.123  12.482  17.670  0.00  0.00    +0.000 HD
BRANCH   7  18
ATOM     17  C   UNL     1      -7.170  13.275  19.680  0.00  0.00    +0.000 C 
ATOM     18  C   UNL     1      -5.746  13.400  20.258  0.00  0.00    +0.000 C 
ATOM     19  C   UNL     1      -5.377  14.900  20.357  0.00  0.00    +0.000 C 
ATOM     20  C   UNL     1      -5.767  12.882  21.708  0.00  0.00    +0.000 C 
ENDBRANCH   7  18
ENDBRANCH   1  15
BRANCH   5  21
ATOM     21  C   UNL     1       0.790  10.610  20.954  0.00  0.00    +0.000 C 
BRANCH  21  22
ATOM     22  C   UNL     1       1.249   9.381  20.207  0.00  0.00    +0.000 A 
ATOM     23  C   UNL     1       1.455   9.419  18.823  0.00  0.00    +0.000 A 
ATOM     24  C   UNL     1       1.982   8.315  18.147  0.00  0.00    +0.000 A 
ATOM     25  C   UNL     1       2.335   7.157  18.851  0.00  0.00    +0.000 A 
ATOM     26  C   UNL     1       2.065   7.096  20.223  0.00  0.00    +0.000 A 
ATOM     27  C   UNL     1       1.525   8.195  20.896  0.00  0.00    +0.000 A 
BRANCH  25  28
ATOM     28  C   UNL     1       2.969   6.048  18.129  0.00  0.00    +0.000 C 
ATOM     29  C   UNL     1       2.782   4.766  18.476  0.00  0.00    +0.000 C 
BRANCH  29  30
ATOM     30  C   UNL     1       3.464   3.676  17.740  0.00  0.00    +0.000 C 
ATOM     31  O   UNL     1       3.919   3.793  16.609  0.00  0.00    +0.000 OA
ATOM     32  N   UNL     1       3.524   2.508  18.453  0.00  0.00    +0.000 N 
ATOM     33  H   UNL     1       3.136   2.351  19.373  0.00  0.00    +0.000 HD
BRANCH  32  34
ATOM     34  O   UNL     1       4.133   1.404  17.818  0.00  0.00    +0.000 OA
ATOM     35  H   UNL     1       3.751   1.452  16.911  0.00  0.00    +0.000 HD
ENDBRANCH  32  34
ENDBRANCH  29  30
ENDBRANCH  25  28
ENDBRANCH  21  22
ENDBRANCH   5  21
TORSDOF 7
ENDMDL
MODEL 3
REMARK VINA RESULT:      -8.5      1.350      1.579
REMARK  Name = 
REMARK  10 active torsions:
REMARK  status: ('A' for Active; 'I' for Inactive)
REMARK    1  A    between atoms: C_1  and  C_2
REMARK    2  A    between atoms: C_2  and  C_3
REMARK    3  A    between atoms: C_2  and  C_4
REMARK    4  A    between atoms: C_2  and  C_5
REMARK    5  A    between atoms: C_13  and  C_14
REMARK    6  A    between atoms: N_18  and  C_19
REMARK    7  A    between atoms: C_19  and  C_20
REMARK    8  A    between atoms: C_23  and  C_24
REMARK    9  A    between atoms: C_25  and  C_26
REMARK   10  A    between atoms: N_28  and  O_29
REMARK                            x       y       z     vdW  Elec       q    Type
REMARK                         _______ _______ _______ _____ _____    ______ ____
ROOT
ATOM      1  C   UNL     1      -2.543  12.419  20.563  0.00  0.00    +0.000 C 
ATOM      2  C   UNL     1      -1.938  13.822  20.416  0.00  0.00    +0.000 C 
ATOM      3  C   UNL     1      -0.672  13.803  19.575  0.00  0.00    +0.000 C 
ATOM      4  C   UNL     1       0.345  12.810  20.129  0.00  0.00    +0.000 C 
ATOM      5  N   UNL     1      -0.174  11.444  20.245  0.00  0.00    +0.000 NA
ATOM      6  C   UNL     1      -1.474  11.384  20.948  0.00  0.00    +0.000 C 
ENDROOT
BRANCH   1  15
ATOM      7  C   UNL     1      -4.783  12.626  19.255  0.00  0.00    +0.000 A 
ATOM      8  N   UNL     1      -5.177  12.278  17.978  0.00  0.00    +0.000 N 
ATOM      9  C   UNL     1      -4.229  11.535  17.329  0.00  0.00    +0.000 A 
ATOM     10  C   UNL     1      -4.226  11.037  16.018  0.00  0.00    +0.000 A 
ATOM     11  C   UNL     1      -3.141  10.256  15.618  0.00  0.00    +0.000 A 
ATOM     12  C   UNL     1      -2.117   9.965  16.508  0.00  0.00    +0.000 A 
ATOM     13  C   UNL     1      -2.133  10.495  17.804  0.00  0.00    +0.000 A 
ATOM     14  C   UNL     1      -3.191  11.329  18.230  0.00  0.00    +0.000 A 
ATOM     15  C   UNL     1      -3.482  12.114  19.410  0.00  0.00    +0.000 A 
ATOM     16  H   UNL     1      -6.059  12.528  17.554  0.00  0.00    +0.000 HD
BRANCH   7  18
ATOM     17  C   UNL     1      -5.805  12.651  21.530  0.00  0.00    +0.000 C 
ATOM     18  C   UNL     1      -5.761  13.385  20.174  0.00  0.00    +0.000 C 
ATOM     19  C   UNL     1      -7.187  13.412  19.575  0.00  0.00    +0.000 C 
ATOM     20  C   UNL     1      -5.393  14.857  20.435  0.00  0.00    +0.000 C 
ENDBRANCH   7  18
ENDBRANCH   1  15
BRANCH   5  21
ATOM     21  C   UNL     1       0.770  10.549  20.943  0.00  0.00    +0.000 C 
BRANCH  21  22
ATOM     22  C   UNL     1       1.250   9.362  20.144  0.00  0.00    +0.000 A 
ATOM     23  C   UNL     1       1.484   9.472  18.768  0.00  0.00    +0.000 A 
ATOM     24  C   UNL     1       2.030   8.407  18.047  0.00  0.00    +0.000 A 
ATOM     25  C   UNL     1       2.374   7.214  18.698  0.00  0.00    +0.000 A 
ATOM     26  C   UNL     1       2.076   7.082  20.059  0.00  0.00    +0.000 A 
ATOM     27  C   UNL     1       1.517   8.143  20.777  0.00  0.00    +0.000 A 
BRANCH  25  28
ATOM     28  C   UNL     1       3.028   6.147  17.933  0.00  0.00    +0.000 C 
ATOM     29  C   UNL     1       3.175   4.904  18.416  0.00  0.00    +0.000 C 
BRANCH  29  30
ATOM     30  C   UNL     1       3.867   3.861  17.625  0.00  0.00    +0.000 C 
ATOM     31  O   UNL     1       3.490   2.698  17.545  0.00  0.00    +0.000 OA
ATOM     32  N   UNL     1       4.988   4.329  16.992  0.00  0.00    +0.000 N 
ATOM     33  H   UNL     1       5.359   5.268  17.052  0.00  0.00    +0.000 HD
BRANCH  32  34
ATOM     34  O   UNL     1       5.729   3.395  16.235  0.00  0.00    +0.000 OA
ATOM     35  H   UNL     1       5.439   3.600  15.316  0.00  0.00    +0.000 HD
ENDBRANCH  32  34
ENDBRANCH  29  30
ENDBRANCH  25  28
ENDBRANCH  21  22
ENDBRANCH   5  21
TORSDOF 7
ENDMDL
MODEL 4
REMARK VINA RESULT:      -8.5      1.023      1.433
REMARK  Name = 
REMARK  10 active torsions:
REMARK  status: ('A' for Active; 'I' for Inactive)
REMARK    1  A    between atoms: C_1  and  C_2
REMARK    2  A    between atoms: C_2  and  C_3
REMARK    3  A    between atoms: C_2  and  C_4
REMARK    4  A    between atoms: C_2  and  C_5
REMARK    5  A    between atoms: C_13  and  C_14
REMARK    6  A    between atoms: N_18  and  C_19
REMARK    7  A    between atoms: C_19  and  C_20
REMARK    8  A    between atoms: C_23  and  C_24
REMARK    9  A    between atoms: C_25  and  C_26
REMARK   10  A    between atoms: N_28  and  O_29
REMARK                            x       y       z     vdW  Elec       q    Type
REMARK                         _______ _______ _______ _____ _____    ______ ____
ROOT
ATOM      1  C   UNL     1      -0.650  11.643  20.618  0.00  0.00    +0.000 C 
ATOM      2  C   UNL     1       0.386  12.602  20.014  0.00  0.00    +0.000 C 
ATOM      3  C   UNL     1       1.149  11.957  18.869  0.00  0.00    +0.000 C 
ATOM      4  C   UNL     1       1.790  10.643  19.303  0.00  0.00    +0.000 C 
ATOM      5  N   UNL     1       0.832   9.675  19.845  0.00  0.00    +0.000 NA
ATOM      6  C   UNL     1      -0.041  10.257  20.888  0.00  0.00    +0.000 C 
ENDROOT
BRANCH   1  15
ATOM      7  C   UNL     1      -3.079  12.503  20.266  0.00  0.00    +0.000 A 
ATOM      8  N   UNL     1      -3.957  12.474  19.199  0.00  0.00    +0.000 N 
ATOM      9  C   UNL     1      -3.496  11.696  18.172  0.00  0.00    +0.000 A 
ATOM     10  C   UNL     1      -4.059  11.452  16.912  0.00  0.00    +0.000 A 
ATOM     11  C   UNL     1      -3.398  10.565  16.061  0.00  0.00    +0.000 A 
ATOM     12  C   UNL     1      -2.235   9.929  16.472  0.00  0.00    +0.000 A 
ATOM     13  C   UNL     1      -1.681  10.209  17.727  0.00  0.00    +0.000 A 
ATOM     14  C   UNL     1      -2.295  11.137  18.597  0.00  0.00    +0.000 A 
ATOM     15  C   UNL     1      -1.969  11.736  19.873  0.00  0.00    +0.000 A 
ATOM     16  H   UNL     1      -4.841  12.959  19.161  0.00  0.00    +0.000 HD
BRANCH   7  18
ATOM     17  C   UNL     1      -4.965  13.627  21.449  0.00  0.00    +0.000 C 
ATOM     18  C   UNL     1      -3.472  13.254  21.554  0.00  0.00    +0.000 C 
ATOM     19  C   UNL     1      -2.645  14.551  21.721  0.00  0.00    +0.000 C 
ATOM     20  C   UNL     1      -3.264  12.459  22.856  0.00  0.00    +0.000 C 
ENDBRANCH   7  18
ENDBRANCH   1  15
BRANCH   5  21
ATOM     21  C   UNL     1       1.503   8.489  20.415  0.00  0.00    +0.000 C 
BRANCH  21  22
ATOM     22  C   UNL     1       2.213   7.605  19.418  0.00  0.00    +0.000 A 
ATOM     23  C   UNL     1       2.480   8.059  18.121  0.00  0.00    +0.000 A 
ATOM     24  C   UNL     1       3.231   7.285  17.232  0.00  0.00    +0.000 A 
ATOM     25  C   UNL     1       3.750   6.047  17.636  0.00  0.00    +0.000 A 
ATOM     26  C   UNL     1       3.424   5.565  18.909  0.00  0.00    +0.000 A 
ATOM     27  C   UNL     1       2.661   6.334  19.792  0.00  0.00    +0.000 A 
BRANCH  25  28
ATOM     28  C   UNL     1       4.609   5.298  16.712  0.00  0.00    +0.000 C 
ATOM     29  C   UNL     1       5.603   5.880  16.025  0.00  0.00    +0.000 C 
BRANCH  29  30
ATOM     30  C   UNL     1       6.430   5.096  15.080  0.00  0.00    +0.000 C 
ATOM     31  O   UNL     1       7.612   5.323  14.851  0.00  0.00    +0.000 OA
ATOM     32  N   UNL     1       5.731   4.087  14.471  0.00  0.00    +0.000 N 
ATOM     33  H   UNL     1       4.750   3.879  14.600  0.00  0.00    +0.000 HD
BRANCH  32  34
ATOM     34  O   UNL     1       6.433   3.302  13.531  0.00  0.00    +0.000 OA
ATOM     35  H   UNL     1       5.773   2.604  13.312  0.00  0.00    +0.000 HD
ENDBRANCH  32  34
ENDBRANCH  29  30
ENDBRANCH  25  28
ENDBRANCH  21  22
ENDBRANCH   5  21
TORSDOF 7
ENDMDL
MODEL 5
REMARK VINA RESULT:      -8.2      1.735      2.292
REMARK  Name = 
REMARK  10 active torsions:
REMARK  status: ('A' for Active; 'I' for Inactive)
REMARK    1  A    between atoms: C_1  and  C_2
REMARK    2  A    between atoms: C_2  and  C_3
REMARK    3  A    between atoms: C_2  and  C_4
REMARK    4  A    between atoms: C_2  and  C_5
REMARK    5  A    between atoms: C_13  and  C_14
REMARK    6  A    between atoms: N_18  and  C_19
REMARK    7  A    between atoms: C_19  and  C_20
REMARK    8  A    between atoms: C_23  and  C_24
REMARK    9  A    between atoms: C_25  and  C_26
REMARK   10  A    between atoms: N_28  and  O_29
REMARK                            x       y       z     vdW  Elec       q    Type
REMARK                         _______ _______ _______ _____ _____    ______ ____
ROOT
ATOM      1  C   UNL     1      -2.537  12.529  20.588  0.00  0.00    +0.000 C 
ATOM      2  C   UNL     1      -1.879  13.894  20.343  0.00  0.00    +0.000 C 
ATOM      3  C   UNL     1      -0.611  13.767  19.515  0.00  0.00    +0.000 C 
ATOM      4  C   UNL     1       0.366  12.781  20.147  0.00  0.00    +0.000 C 
ATOM      5  N   UNL     1      -0.204  11.447  20.358  0.00  0.00    +0.000 NA
ATOM      6  C   UNL     1      -1.508  11.486  21.055  0.00  0.00    +0.000 C 
ENDROOT
BRANCH   1  15
ATOM      7  C   UNL     1      -4.802  12.637  19.313  0.00  0.00    +0.000 A 
ATOM      8  N   UNL     1      -5.203  12.258  18.046  0.00  0.00    +0.000 N 
ATOM      9  C   UNL     1      -4.239  11.542  17.392  0.00  0.00    +0.000 A 
ATOM     10  C   UNL     1      -4.237  11.026  16.088  0.00  0.00    +0.000 A 
ATOM     11  C   UNL     1      -3.130  10.279  15.681  0.00  0.00    +0.000 A 
ATOM     12  C   UNL     1      -2.083  10.037  16.559  0.00  0.00    +0.000 A 
ATOM     13  C   UNL     1      -2.099  10.584  17.848  0.00  0.00    +0.000 A 
ATOM     14  C   UNL     1      -3.180  11.385  18.280  0.00  0.00    +0.000 A 
ATOM     15  C   UNL     1      -3.481  12.175  19.453  0.00  0.00    +0.000 A 
ATOM     16  H   UNL     1      -6.099  12.471  17.633  0.00  0.00    +0.000 HD
BRANCH   7  18
ATOM     17  C   UNL     1      -5.347  14.845  20.334  0.00  0.00    +0.000 C 
ATOM     18  C   UNL     1      -5.793  13.372  20.237  0.00  0.00    +0.000 C 
ATOM     19  C   UNL     1      -5.797  12.758  21.657  0.00  0.00    +0.000 C 
ATOM     20  C   UNL     1      -7.260  13.342  19.768  0.00  0.00    +0.000 C 
ENDBRANCH   7  18
ENDBRANCH   1  15
BRANCH   5  21
ATOM     21  C   UNL     1       0.704  10.572  21.127  0.00  0.00    +0.000 C 
BRANCH  21  22
ATOM     22  C   UNL     1       1.282   9.406  20.361  0.00  0.00    +0.000 A 
ATOM     23  C   UNL     1       1.553   8.192  21.002  0.00  0.00    +0.000 A 
ATOM     24  C   UNL     1       1.987   7.080  20.275  0.00  0.00    +0.000 A 
ATOM     25  C   UNL     1       2.136   7.158  18.884  0.00  0.00    +0.000 A 
ATOM     26  C   UNL     1       1.932   8.391  18.255  0.00  0.00    +0.000 A 
ATOM     27  C   UNL     1       1.511   9.507  18.985  0.00  0.00    +0.000 A 
BRANCH  25  28
ATOM     28  C   UNL     1       2.506   5.950  18.137  0.00  0.00    +0.000 C 
ATOM     29  C   UNL     1       3.409   5.071  18.597  0.00  0.00    +0.000 C 
BRANCH  29  30
ATOM     30  C   UNL     1       3.777   3.878  17.800  0.00  0.00    +0.000 C 
ATOM     31  O   UNL     1       4.106   3.917  16.621  0.00  0.00    +0.000 OA
ATOM     32  N   UNL     1       3.702   2.713  18.517  0.00  0.00    +0.000 N 
ATOM     33  H   UNL     1       3.405   2.624  19.480  0.00  0.00    +0.000 HD
BRANCH  32  34
ATOM     34  O   UNL     1       4.009   1.520  17.829  0.00  0.00    +0.000 OA
ATOM     35  H   UNL     1       3.168   1.012  17.912  0.00  0.00    +0.000 HD
ENDBRANCH  32  34
ENDBRANCH  29  30
ENDBRANCH  25  28
ENDBRANCH  21  22
ENDBRANCH   5  21
TORSDOF 7
ENDMDL
MODEL 6
REMARK VINA RESULT:      -8.0      2.019      2.427
REMARK  Name = 
REMARK  10 active torsions:
REMARK  status: ('A' for Active; 'I' for Inactive)
REMARK    1  A    between atoms: C_1  and  C_2
REMARK    2  A    between atoms: C_2  and  C_3
REMARK    3  A    between atoms: C_2  and  C_4
REMARK    4  A    between atoms: C_2  and  C_5
REMARK    5  A    between atoms: C_13  and  C_14
REMARK    6  A    between atoms: N_18  and  C_19
REMARK    7  A    between atoms: C_19  and  C_20
REMARK    8  A    between atoms: C_23  and  C_24
REMARK    9  A    between atoms: C_25  and  C_26
REMARK   10  A    between atoms: N_28  and  O_29
REMARK                            x       y       z     vdW  Elec       q    Type
REMARK                         _______ _______ _______ _____ _____    ______ ____
ROOT
ATOM      1  C   UNL     1      -1.828  12.657  20.378  0.00  0.00    +0.000 C 
ATOM      2  C   UNL     1      -1.027  13.796  19.731  0.00  0.00    +0.000 C 
ATOM      3  C   UNL     1       0.045  13.267  18.792  0.00  0.00    +0.000 C 
ATOM      4  C   UNL     1       0.959  12.273  19.502  0.00  0.00    +0.000 C 
ATOM      5  N   UNL     1       0.244  11.141  20.098  0.00  0.00    +0.000 NA
ATOM      6  C   UNL     1      -0.900  11.565  20.935  0.00  0.00    +0.000 C 
ENDROOT
BRANCH   1  15
ATOM      7  C   UNL     1      -4.330  12.665  19.669  0.00  0.00    +0.000 A 
ATOM      8  N   UNL     1      -5.001  12.252  18.533  0.00  0.00    +0.000 N 
ATOM      9  C   UNL     1      -4.189  11.562  17.675  0.00  0.00    +0.000 A 
ATOM     10  C   UNL     1      -4.473  11.028  16.411  0.00  0.00    +0.000 A 
ATOM     11  C   UNL     1      -3.464  10.315  15.761  0.00  0.00    +0.000 A 
ATOM     12  C   UNL     1      -2.232  10.124  16.371  0.00  0.00    +0.000 A 
ATOM     13  C   UNL     1      -1.967  10.689  17.624  0.00  0.00    +0.000 A 
ATOM     14  C   UNL     1      -2.947  11.457  18.292  0.00  0.00    +0.000 A 
ATOM     15  C   UNL     1      -2.996  12.253  19.499  0.00  0.00    +0.000 A 
ATOM     16  H   UNL     1      -5.977  12.427  18.340  0.00  0.00    +0.000 HD
BRANCH   7  18
ATOM     17  C   UNL     1      -4.731  14.873  20.755  0.00  0.00    +0.000 C 
ATOM     18  C   UNL     1      -5.106  13.377  20.794  0.00  0.00    +0.000 C 
ATOM     19  C   UNL     1      -4.731  12.805  22.183  0.00  0.00    +0.000 C 
ATOM     20  C   UNL     1      -6.638  13.262  20.698  0.00  0.00    +0.000 C 
ENDBRANCH   7  18
ENDBRANCH   1  15
BRANCH   5  21
ATOM     21  C   UNL     1       1.130  10.295  20.921  0.00  0.00    +0.000 C 
BRANCH  21  22
ATOM     22  C   UNL     1       1.395   8.912  20.378  0.00  0.00    +0.000 A 
ATOM     23  C   UNL     1       1.892   8.735  19.081  0.00  0.00    +0.000 A 
ATOM     24  C   UNL     1       2.239   7.464  18.615  0.00  0.00    +0.000 A 
ATOM     25  C   UNL     1       2.114   6.346  19.451  0.00  0.00    +0.000 A 
ATOM     26  C   UNL     1       1.552   6.515  20.721  0.00  0.00    +0.000 A 
ATOM     27  C   UNL     1       1.192   7.785  21.181  0.00  0.00    +0.000 A 
BRANCH  25  28
ATOM     28  C   UNL     1       2.570   5.038  18.965  0.00  0.00    +0.000 C 
ATOM     29  C   UNL     1       1.822   3.930  19.078  0.00  0.00    +0.000 C 
BRANCH  29  30
ATOM     30  C   UNL     1       2.329   2.623  18.602  0.00  0.00    +0.000 C 
ATOM     31  O   UNL     1       1.664   1.594  18.585  0.00  0.00    +0.000 OA
ATOM     32  N   UNL     1       3.634   2.676  18.189  0.00  0.00    +0.000 N 
ATOM     33  H   UNL     1       4.234   3.490  18.214  0.00  0.00    +0.000 HD
BRANCH  32  34
ATOM     34  O   UNL     1       4.212   1.467  17.743  0.00  0.00    +0.000 OA
ATOM     35  H   UNL     1       3.660   1.255  16.955  0.00  0.00    +0.000 HD
ENDBRANCH  32  34
ENDBRANCH  29  30
ENDBRANCH  25  28
ENDBRANCH  21  22
ENDBRANCH   5  21
TORSDOF 7
ENDMDL
MODEL 7
REMARK VINA RESULT:      -8.0      1.651      2.688
REMARK  Name = 
REMARK  10 active torsions:
REMARK  status: ('A' for Active; 'I' for Inactive)
REMARK    1  A    between atoms: C_1  and  C_2
REMARK    2  A    between atoms: C_2  and  C_3
REMARK    3  A    between atoms: C_2  and  C_4
REMARK    4  A    between atoms: C_2  and  C_5
REMARK    5  A    between atoms: C_13  and  C_14
REMARK    6  A    between atoms: N_18  and  C_19
REMARK    7  A    between atoms: C_19  and  C_20
REMARK    8  A    between atoms: C_23  and  C_24
REMARK    9  A    between atoms: C_25  and  C_26
REMARK   10  A    between atoms: N_28  and  O_29
REMARK                            x       y       z     vdW  Elec       q    Type
REMARK                         _______ _______ _______ _____ _____    ______ ____
ROOT
ATOM      1  C   UNL     1       0.653  10.797  20.045  0.00  0.00    +0.000 C 
ATOM      2  C   UNL     1       1.576  11.387  18.968  0.00  0.00    +0.000 C 
ATOM      3  C   UNL     1       1.737  10.443  17.788  0.00  0.00    +0.000 C 
ATOM      4  C   UNL     1       2.214   9.067  18.241  0.00  0.00    +0.000 C 
ATOM      5  N   UNL     1       1.338   8.443  19.238  0.00  0.00    +0.000 NA
ATOM      6  C   UNL     1       1.028   9.342  20.370  0.00  0.00    +0.000 C 
ENDROOT
BRANCH   1  15
ATOM      7  C   UNL     1      -1.615  11.973  20.537  0.00  0.00    +0.000 A 
ATOM      8  N   UNL     1      -2.762  12.182  19.796  0.00  0.00    +0.000 N 
ATOM      9  C   UNL     1      -2.746  11.492  18.614  0.00  0.00    +0.000 A 
ATOM     10  C   UNL     1      -3.686  11.478  17.575  0.00  0.00    +0.000 A 
ATOM     11  C   UNL     1      -3.447  10.635  16.488  0.00  0.00    +0.000 A 
ATOM     12  C   UNL     1      -2.323   9.821  16.463  0.00  0.00    +0.000 A 
ATOM     13  C   UNL     1      -1.388   9.873  17.503  0.00  0.00    +0.000 A 
ATOM     14  C   UNL     1      -1.572  10.747  18.598  0.00  0.00    +0.000 A 
ATOM     15  C   UNL     1      -0.798  11.137  19.755  0.00  0.00    +0.000 A 
ATOM     16  H   UNL     1      -3.535  12.768  20.075  0.00  0.00    +0.000 HD
BRANCH   7  18
ATOM     17  C   UNL     1      -1.436  11.444  22.967  0.00  0.00    +0.000 C 
ATOM     18  C   UNL     1      -1.493  12.595  21.942  0.00  0.00    +0.000 C 
ATOM     19  C   UNL     1      -2.711  13.492  22.267  0.00  0.00    +0.000 C 
ATOM     20  C   UNL     1      -0.255  13.487  22.150  0.00  0.00    +0.000 C 
ENDBRANCH   7  18
ENDBRANCH   1  15
BRANCH   5  21
ATOM     21  C   UNL     1       1.916   7.198  19.782  0.00  0.00    +0.000 C 
BRANCH  21  22
ATOM     22  C   UNL     1       2.839   6.450  18.851  0.00  0.00    +0.000 A 
ATOM     23  C   UNL     1       2.443   5.240  18.269  0.00  0.00    +0.000 A 
ATOM     24  C   UNL     1       3.252   4.602  17.325  0.00  0.00    +0.000 A 
ATOM     25  C   UNL     1       4.467   5.177  16.929  0.00  0.00    +0.000 A 
ATOM     26  C   UNL     1       4.893   6.350  17.562  0.00  0.00    +0.000 A 
ATOM     27  C   UNL     1       4.089   6.981  18.517  0.00  0.00    +0.000 A 
BRANCH  25  28
ATOM     28  C   UNL     1       5.251   4.531  15.871  0.00  0.00    +0.000 C 
ATOM     29  C   UNL     1       5.801   5.222  14.861  0.00  0.00    +0.000 C 
BRANCH  29  30
ATOM     30  C   UNL     1       6.562   4.529  13.796  0.00  0.00    +0.000 C 
ATOM     31  O   UNL     1       7.620   4.937  13.332  0.00  0.00    +0.000 OA
ATOM     32  N   UNL     1       5.953   3.378  13.368  0.00  0.00    +0.000 N 
ATOM     33  H   UNL     1       5.066   3.017  13.694  0.00  0.00    +0.000 HD
BRANCH  32  34
ATOM     34  O   UNL     1       6.594   2.664  12.333  0.00  0.00    +0.000 OA
ATOM     35  H   UNL     1       7.134   3.368  11.902  0.00  0.00    +0.000 HD
ENDBRANCH  32  34
ENDBRANCH  29  30
ENDBRANCH  25  28
ENDBRANCH  21  22
ENDBRANCH   5  21
TORSDOF 7
ENDMDL
MODEL 8
REMARK VINA RESULT:      -7.8      1.992      3.690
REMARK  Name = 
REMARK  10 active torsions:
REMARK  status: ('A' for Active; 'I' for Inactive)
REMARK    1  A    between atoms: C_1  and  C_2
REMARK    2  A    between atoms: C_2  and  C_3
REMARK    3  A    between atoms: C_2  and  C_4
REMARK    4  A    between atoms: C_2  and  C_5
REMARK    5  A    between atoms: C_13  and  C_14
REMARK    6  A    between atoms: N_18  and  C_19
REMARK    7  A    between atoms: C_19  and  C_20
REMARK    8  A    between atoms: C_23  and  C_24
REMARK    9  A    between atoms: C_25  and  C_26
REMARK   10  A    between atoms: N_28  and  O_29
REMARK                            x       y       z     vdW  Elec       q    Type
REMARK                         _______ _______ _______ _____ _____    ______ ____
ROOT
ATOM      1  C   UNL     1      -0.999  10.191  20.241  0.00  0.00    +0.000 C 
ATOM      2  C   UNL     1      -1.023  10.708  21.686  0.00  0.00    +0.000 C 
ATOM      3  C   UNL     1       0.364  10.710  22.307  0.00  0.00    +0.000 C 
ATOM      4  C   UNL     1       1.011   9.332  22.217  0.00  0.00    +0.000 C 
ATOM      5  N   UNL     1       1.099   8.814  20.848  0.00  0.00    +0.000 NA
ATOM      6  C   UNL     1      -0.189   8.889  20.125  0.00  0.00    +0.000 C 
ENDROOT
BRANCH   1  15
ATOM      7  C   UNL     1      -1.557  11.720  18.212  0.00  0.00    +0.000 A 
ATOM      8  N   UNL     1      -1.033  12.908  17.740  0.00  0.00    +0.000 N 
ATOM      9  C   UNL     1       0.112  13.265  18.398  0.00  0.00    +0.000 A 
ATOM     10  C   UNL     1       0.907  14.410  18.252  0.00  0.00    +0.000 A 
ATOM     11  C   UNL     1       2.067  14.504  19.023  0.00  0.00    +0.000 A 
ATOM     12  C   UNL     1       2.426  13.475  19.883  0.00  0.00    +0.000 A 
ATOM     13  C   UNL     1       1.601  12.353  20.027  0.00  0.00    +0.000 A 
ATOM     14  C   UNL     1       0.395  12.244  19.298  0.00  0.00    +0.000 A 
ATOM     15  C   UNL     1      -0.719  11.322  19.269  0.00  0.00    +0.000 A 
ATOM     16  H   UNL     1      -1.431  13.463  16.996  0.00  0.00    +0.000 HD
BRANCH   7  18
ATOM     17  C   UNL     1      -2.711  11.425  16.021  0.00  0.00    +0.000 C 
ATOM     18  C   UNL     1      -2.797  11.110  17.528  0.00  0.00    +0.000 C 
ATOM     19  C   UNL     1      -4.104  11.717  18.091  0.00  0.00    +0.000 C 
ATOM     20  C   UNL     1      -2.943   9.585  17.694  0.00  0.00    +0.000 C 
ENDBRANCH   7  18
ENDBRANCH   1  15
BRANCH   5  21
ATOM     21  C   UNL     1       1.567   7.414  20.813  0.00  0.00    +0.000 C 
BRANCH  21  22
ATOM     22  C   UNL     1       2.375   7.030  19.597  0.00  0.00    +0.000 A 
ATOM     23  C   UNL     1       2.529   7.923  18.529  0.00  0.00    +0.000 A 
ATOM     24  C   UNL     1       3.363   7.612  17.452  0.00  0.00    +0.000 A 
ATOM     25  C   UNL     1       4.078   6.407  17.435  0.00  0.00    +0.000 A 
ATOM     26  C   UNL     1       3.869   5.487  18.469  0.00  0.00    +0.000 A 
ATOM     27  C   UNL     1       3.024   5.793  19.539  0.00  0.00    +0.000 A 
BRANCH  25  28
ATOM     28  C   UNL     1       5.014   6.149  16.335  0.00  0.00    +0.000 C 
ATOM     29  C   UNL     1       5.389   4.908  15.988  0.00  0.00    +0.000 C 
BRANCH  29  30
ATOM     30  C   UNL     1       6.359   4.689  14.891  0.00  0.00    +0.000 C 
ATOM     31  O   UNL     1       7.374   5.355  14.731  0.00  0.00    +0.000 OA
ATOM     32  N   UNL     1       5.998   3.664  14.057  0.00  0.00    +0.000 N 
ATOM     33  H   UNL     1       5.156   3.107  14.126  0.00  0.00    +0.000 HD
BRANCH  32  34
ATOM     34  O   UNL     1       6.851   3.401  12.963  0.00  0.00    +0.000 OA
ATOM     35  H   UNL     1       7.399   4.219  12.929  0.00  0.00    +0.000 HD
ENDBRANCH  32  34
ENDBRANCH  29  30
ENDBRANCH  25  28
ENDBRANCH  21  22
ENDBRANCH   5  21
TORSDOF 7
ENDMDL
MODEL 9
REMARK VINA RESULT:      -7.7      2.148      3.979
REMARK  Name = 
REMARK  10 active torsions:
REMARK  status: ('A' for Active; 'I' for Inactive)
REMARK    1  A    between atoms: C_1  and  C_2
REMARK    2  A    between atoms: C_2  and  C_3
REMARK    3  A    between atoms: C_2  and  C_4
REMARK    4  A    between atoms: C_2  and  C_5
REMARK    5  A    between atoms: C_13  and  C_14
REMARK    6  A    between atoms: N_18  and  C_19
REMARK    7  A    between atoms: C_19  and  C_20
REMARK    8  A    between atoms: C_23  and  C_24
REMARK    9  A    between atoms: C_25  and  C_26
REMARK   10  A    between atoms: N_28  and  O_29
REMARK                            x       y       z     vdW  Elec       q    Type
REMARK                         _______ _______ _______ _____ _____    ______ ____
ROOT
ATOM      1  C   UNL     1      -3.159  12.223  18.359  0.00  0.00    +0.000 C 
ATOM      2  C   UNL     1      -3.801  11.087  17.551  0.00  0.00    +0.000 C 
ATOM      3  C   UNL     1      -3.290   9.725  17.991  0.00  0.00    +0.000 C 
ATOM      4  C   UNL     1      -1.767   9.661  17.932  0.00  0.00    +0.000 C 
ATOM      5  N   UNL     1      -1.106  10.701  18.727  0.00  0.00    +0.000 NA
ATOM      6  C   UNL     1      -1.633  12.055  18.449  0.00  0.00    +0.000 C 
ENDROOT
BRANCH   1  15
ATOM      7  C   UNL     1      -5.348  12.490  19.739  0.00  0.00    +0.000 A 
ATOM      8  N   UNL     1      -5.621  12.556  21.092  0.00  0.00    +0.000 N 
ATOM      9  C   UNL     1      -4.482  12.651  21.844  0.00  0.00    +0.000 A 
ATOM     10  C   UNL     1      -4.332  12.689  23.237  0.00  0.00    +0.000 A 
ATOM     11  C   UNL     1      -3.044  12.844  23.752  0.00  0.00    +0.000 A 
ATOM     12  C   UNL     1      -1.957  12.982  22.900  0.00  0.00    +0.000 A 
ATOM     13  C   UNL     1      -2.133  12.917  21.513  0.00  0.00    +0.000 A 
ATOM     14  C   UNL     1      -3.415  12.715  20.955  0.00  0.00    +0.000 A 
ATOM     15  C   UNL     1      -3.946  12.494  19.628  0.00  0.00    +0.000 A 
ATOM     16  H   UNL     1      -6.545  12.539  21.498  0.00  0.00    +0.000 HD
BRANCH   7  18
ATOM     17  C   UNL     1      -7.746  13.090  19.414  0.00  0.00    +0.000 C 
ATOM     18  C   UNL     1      -6.511  12.472  18.727  0.00  0.00    +0.000 C 
ATOM     19  C   UNL     1      -6.853  11.027  18.291  0.00  0.00    +0.000 C 
ATOM     20  C   UNL     1      -6.247  13.247  17.423  0.00  0.00    +0.000 C 
ENDBRANCH   7  18
ENDBRANCH   1  15
BRANCH   5  21
ATOM     21  C   UNL     1       0.354  10.720  18.511  0.00  0.00    +0.000 C 
BRANCH  21  22
ATOM     22  C   UNL     1       1.069   9.420  18.791  0.00  0.00    +0.000 A 
ATOM     23  C   UNL     1       1.830   8.793  17.797  0.00  0.00    +0.000 A 
ATOM     24  C   UNL     1       2.578   7.648  18.084  0.00  0.00    +0.000 A 
ATOM     25  C   UNL     1       2.596   7.122  19.383  0.00  0.00    +0.000 A 
ATOM     26  C   UNL     1       1.780   7.709  20.357  0.00  0.00    +0.000 A 
ATOM     27  C   UNL     1       1.021   8.846  20.065  0.00  0.00    +0.000 A 
BRANCH  25  28
ATOM     28  C   UNL     1       3.460   5.973  19.675  0.00  0.00    +0.000 C 
ATOM     29  C   UNL     1       4.170   5.349  18.724  0.00  0.00    +0.000 C 
BRANCH  29  30
ATOM     30  C   UNL     1       5.009   4.174  19.054  0.00  0.00    +0.000 C 
ATOM     31  O   UNL     1       6.233   4.173  19.015  0.00  0.00    +0.000 OA
ATOM     32  N   UNL     1       4.271   3.072  19.399  0.00  0.00    +0.000 N 
ATOM     33  H   UNL     1       3.262   3.012  19.413  0.00  0.00    +0.000 HD
BRANCH  32  34
ATOM     34  O   UNL     1       4.987   1.895  19.703  0.00  0.00    +0.000 OA
ATOM     35  H   UNL     1       5.884   2.248  19.910  0.00  0.00    +0.000 HD
ENDBRANCH  32  34
ENDBRANCH  29  30
ENDBRANCH  25  28
ENDBRANCH  21  22
ENDBRANCH   5  21
TORSDOF 7
ENDMDL
