MODEL 1
REMARK VINA RESULT:      -8.0      0.000      0.000
REMARK  Name = 
REMARK  9 active torsions:
REMARK  status: ('A' for Active; 'I' for Inactive)
REMARK    1  A    between atoms: C_1  and  C_2
REMARK    2  A    between atoms: C_2  and  C_3
REMARK    3  A    between atoms: C_3  and  C_4
REMARK    4  A    between atoms: C_7  and  C_8
REMARK    5  A    between atoms: C_8  and  C_9
REMARK    6  A    between atoms: C_8  and  N_10
REMARK    7  A    between atoms: N_13  and  C_14
REMARK    8  A    between atoms: C_14  and  C_15
REMARK    9  A    between atoms: C_15  and  N_16
REMARK                            x       y       z     vdW  Elec       q    Type
REMARK                         _______ _______ _______ _____ _____    ______ ____
ROOT
ATOM      1  N   UNL     1       4.877   4.911  17.122  0.00  0.00    +0.000 NA
ATOM      2  C   UNL     1       3.789   3.924  17.179  0.00  0.00    +0.000 C 
ATOM      3  C   UNL     1       3.341   3.446  18.592  0.00  0.00    +0.000 C 
ATOM      4  N   UNL     1       3.281   4.474  19.657  0.00  0.00    +0.000 NA
ATOM      5  C   UNL     1       4.554   5.220  19.614  0.00  0.00    +0.000 C 
ATOM      6  C   UNL     1       4.828   5.858  18.243  0.00  0.00    +0.000 C 
ENDROOT
BRANCH   1   7
ATOM      7  C   UNL     1       6.209   4.427  16.689  0.00  0.00    +0.000 C 
ATOM      8  C   UNL     1       7.396   4.870  17.550  0.00  0.00    +0.000 C 
BRANCH   7  12
ATOM      9  C   UNL     1       6.824   4.470  13.195  0.00  0.00    +0.000 A 
ATOM     10  N   UNL     1       7.864   5.223  13.579  0.00  0.00    +0.000 NA
ATOM     11  O   UNL     1       7.632   5.410  14.949  0.00  0.00    +0.000 OA
ATOM     12  C   UNL     1       6.467   4.753  15.234  0.00  0.00    +0.000 A 
ATOM     13  N   UNL     1       5.882   4.248  14.164  0.00  0.00    +0.000 NA
BRANCH   9  14
ATOM     14  C   UNL     1       6.829   3.696  11.926  0.00  0.00    +0.000 C 
BRANCH  14  16
ATOM     15  C   UNL     1       4.440   3.224  11.335  0.00  0.00    +0.000 C 
ATOM     16  C   UNL     1       5.747   2.629  11.844  0.00  0.00    +0.000 C 
ENDBRANCH  14  16
ENDBRANCH   9  14
ENDBRANCH   7  12
ENDBRANCH   1   7
BRANCH   4  17
ATOM     17  C   UNL     1       2.126   5.396  19.519  0.00  0.00    +0.000 C 
BRANCH  17  18
ATOM     18  C   UNL     1       2.202   6.619  20.448  0.00  0.00    +0.000 C 
BRANCH  18  19
ATOM     19  N   UNL     1       1.796   7.868  19.802  0.00  0.00    +0.000 N 
ATOM     20  C   UNL     1       2.128   8.101  18.476  0.00  0.00    +0.000 A 
ATOM     21  C   UNL     1       1.862   9.270  17.882  0.00  0.00    +0.000 A 
ATOM     22  C   UNL     1       1.217  10.321  18.628  0.00  0.00    +0.000 A 
ATOM     23  C   UNL     1       0.842  10.124  19.898  0.00  0.00    +0.000 A 
ATOM     24  C   UNL     1       1.107   8.819  20.564  0.00  0.00    +0.000 A 
ATOM     25  O   UNL     1       0.740   8.650  21.726  0.00  0.00    +0.000 OA
ENDBRANCH  18  19
ENDBRANCH  17  18
ENDBRANCH   4  17
TORSDOF 7
ENDMDL
MODEL 2
REMARK VINA RESULT:      -7.4      1.998      3.413
REMARK  Name = 
REMARK  9 active torsions:
REMARK  status: ('A' for Active; 'I' for Inactive)
REMARK    1  A    between atoms: C_1  and  C_2
REMARK    2  A    between atoms: C_2  and  C_3
REMARK    3  A    between atoms: C_3  and  C_4
REMARK    4  A    between atoms: C_7  and  C_8
REMARK    5  A    between atoms: C_8  and  C_9
REMARK    6  A    between atoms: C_8  and  N_10
REMARK    7  A    between atoms: N_13  and  C_14
REMARK    8  A    between atoms: C_14  and  C_15
REMARK    9  A    between atoms: C_15  and  N_16
REMARK                            x       y       z     vdW  Elec       q    Type
REMARK                         _______ _______ _______ _____ _____    ______ ____
ROOT
ATOM      1  N   UNL     1       5.089   4.518  17.114  0.00  0.00    +0.000 NA
ATOM      2  C   UNL     1       4.867   4.264  18.546  0.00  0.00    +0.000 C 
ATOM      3  C   UNL     1       4.855   5.503  19.490  0.00  0.00    +0.000 C 
ATOM      4  N   UNL     1       4.188   6.724  18.981  0.00  0.00    +0.000 NA
ATOM      5  C   UNL     1       4.706   6.969  17.621  0.00  0.00    +0.000 C 
ATOM      6  C   UNL     1       4.483   5.780  16.673  0.00  0.00    +0.000 C 
ENDROOT
BRANCH   1   7
ATOM      7  C   UNL     1       6.417   4.162  16.562  0.00  0.00    +0.000 C 
ATOM      8  C   UNL     1       7.629   4.703  17.331  0.00  0.00    +0.000 C 
BRANCH   7  12
ATOM      9  C   UNL     1       6.742   4.306  13.032  0.00  0.00    +0.000 A 
ATOM     10  N   UNL     1       7.720   5.166  13.346  0.00  0.00    +0.000 NA
ATOM     11  O   UNL     1       7.580   5.313  14.734  0.00  0.00    +0.000 OA
ATOM     12  C   UNL     1       6.521   4.529  15.098  0.00  0.00    +0.000 A 
ATOM     13  N   UNL     1       5.911   3.972  14.068  0.00  0.00    +0.000 NA
BRANCH   9  14
ATOM     14  C   UNL     1       6.730   3.549  11.753  0.00  0.00    +0.000 C 
BRANCH  14  16
ATOM     15  C   UNL     1       4.311   3.136  11.250  0.00  0.00    +0.000 C 
ATOM     16  C   UNL     1       5.632   2.499  11.661  0.00  0.00    +0.000 C 
ENDBRANCH  14  16
ENDBRANCH   9  14
ENDBRANCH   7  12
ENDBRANCH   1   7
BRANCH   4  17
ATOM     17  C   UNL     1       2.708   6.624  18.970  0.00  0.00    +0.000 C 
BRANCH  17  18
ATOM     18  C   UNL     1       2.132   5.890  20.192  0.00  0.00    +0.000 C 
BRANCH  18  19
ATOM     19  N   UNL     1       1.821   4.483  19.934  0.00  0.00    +0.000 N 
ATOM     20  C   UNL     1       1.411   4.086  18.670  0.00  0.00    +0.000 A 
ATOM     21  C   UNL     1       1.024   2.830  18.422  0.00  0.00    +0.000 A 
ATOM     22  C   UNL     1       1.024   1.857  19.486  0.00  0.00    +0.000 A 
ATOM     23  C   UNL     1       1.451   2.188  20.711  0.00  0.00    +0.000 A 
ATOM     24  C   UNL     1       1.911   3.575  20.996  0.00  0.00    +0.000 A 
ATOM     25  O   UNL     1       2.317   3.856  22.123  0.00  0.00    +0.000 OA
ENDBRANCH  18  19
ENDBRANCH  17  18
ENDBRANCH   4  17
TORSDOF 7
ENDMDL
MODEL 3
REMARK VINA RESULT:      -7.2      1.363      2.057
REMARK  Name = 
REMARK  9 active torsions:
REMARK  status: ('A' for Active; 'I' for Inactive)
REMARK    1  A    between atoms: C_1  and  C_2
REMARK    2  A    between atoms: C_2  and  C_3
REMARK    3  A    between atoms: C_3  and  C_4
REMARK    4  A    between atoms: C_7  and  C_8
REMARK    5  A    between atoms: C_8  and  C_9
REMARK    6  A    between atoms: C_8  and  N_10
REMARK    7  A    between atoms: N_13  and  C_14
REMARK    8  A    between atoms: C_14  and  C_15
REMARK    9  A    between atoms: C_15  and  N_16
REMARK                            x       y       z     vdW  Elec       q    Type
REMARK                         _______ _______ _______ _____ _____    ______ ____
ROOT
ATOM      1  N   UNL     1       5.568   5.613  18.087  0.00  0.00    +0.000 NA
ATOM      2  C   UNL     1       4.495   6.292  17.344  0.00  0.00    +0.000 C 
ATOM      3  C   UNL     1       3.033   5.855  17.656  0.00  0.00    +0.000 C 
ATOM      4  N   UNL     1       2.707   5.581  19.075  0.00  0.00    +0.000 NA
ATOM      5  C   UNL     1       3.759   4.690  19.601  0.00  0.00    +0.000 C 
ATOM      6  C   UNL     1       5.170   5.284  19.461  0.00  0.00    +0.000 C 
ENDROOT
BRANCH   1   7
ATOM      7  C   UNL     1       6.376   4.615  17.348  0.00  0.00    +0.000 C 
ATOM      8  C   UNL     1       7.846   4.500  17.767  0.00  0.00    +0.000 C 
BRANCH   7  12
ATOM      9  C   UNL     1       6.161   4.375  13.814  0.00  0.00    +0.000 A 
ATOM     10  N   UNL     1       7.222   5.189  13.884  0.00  0.00    +0.000 NA
ATOM     11  O   UNL     1       7.306   5.487  15.252  0.00  0.00    +0.000 OA
ATOM     12  C   UNL     1       6.273   4.822  15.853  0.00  0.00    +0.000 A 
ATOM     13  N   UNL     1       5.483   4.208  14.992  0.00  0.00    +0.000 NA
BRANCH   9  14
ATOM     14  C   UNL     1       5.910   3.494  12.644  0.00  0.00    +0.000 C 
BRANCH  14  16
ATOM     15  C   UNL     1       7.139   1.869  11.184  0.00  0.00    +0.000 C 
ATOM     16  C   UNL     1       7.125   3.284  11.751  0.00  0.00    +0.000 C 
ENDBRANCH  14  16
ENDBRANCH   9  14
ENDBRANCH   7  12
ENDBRANCH   1   7
BRANCH   4  17
ATOM     17  C   UNL     1       2.597   6.810  19.901  0.00  0.00    +0.000 C 
BRANCH  17  18
ATOM     18  C   UNL     1       1.909   7.978  19.176  0.00  0.00    +0.000 C 
BRANCH  18  19
ATOM     19  N   UNL     1       1.171   8.868  20.074  0.00  0.00    +0.000 N 
ATOM     20  C   UNL     1       0.723   8.397  21.299  0.00  0.00    +0.000 A 
ATOM     21  C   UNL     1      -0.039   9.149  22.103  0.00  0.00    +0.000 A 
ATOM     22  C   UNL     1      -0.413  10.480  21.695  0.00  0.00    +0.000 A 
ATOM     23  C   UNL     1       0.032  10.988  20.538  0.00  0.00    +0.000 A 
ATOM     24  C   UNL     1       0.903  10.174  19.647  0.00  0.00    +0.000 A 
ATOM     25  O   UNL     1       1.317  10.663  18.596  0.00  0.00    +0.000 OA
ENDBRANCH  18  19
ENDBRANCH  17  18
ENDBRANCH   4  17
TORSDOF 7
ENDMDL
MODEL 4
REMARK VINA RESULT:      -7.1      0.888      1.200
REMARK  Name = 
REMARK  9 active torsions:
REMARK  status: ('A' for Active; 'I' for Inactive)
REMARK    1  A    between atoms: C_1  and  C_2
REMARK    2  A    between atoms: C_2  and  C_3
REMARK    3  A    between atoms: C_3  and  C_4
REMARK    4  A    between atoms: C_7  and  C_8
REMARK    5  A    between atoms: C_8  and  C_9
REMARK    6  A    between atoms: C_8  and  N_10
REMARK    7  A    between atoms: N_13  and  C_14
REMARK    8  A    between atoms: C_14  and  C_15
REMARK    9  A    between atoms: C_15  and  N_16
REMARK                            x       y       z     vdW  Elec       q    Type
REMARK                         _______ _______ _______ _____ _____    ______ ____
ROOT
ATOM      1  N   UNL     1       5.185   4.217  17.415  0.00  0.00    +0.000 NA
ATOM      2  C   UNL     1       5.121   4.290  18.883  0.00  0.00    +0.000 C 
ATOM      3  C   UNL     1       4.907   5.699  19.512  0.00  0.00    +0.000 C 
ATOM      4  N   UNL     1       3.959   6.602  18.818  0.00  0.00    +0.000 NA
ATOM      5  C   UNL     1       4.318   6.596  17.387  0.00  0.00    +0.000 C 
ATOM      6  C   UNL     1       4.293   5.188  16.771  0.00  0.00    +0.000 C 
ENDROOT
BRANCH   1   7
ATOM      7  C   UNL     1       6.518   3.997  16.807  0.00  0.00    +0.000 C 
ATOM      8  C   UNL     1       7.711   4.567  17.583  0.00  0.00    +0.000 C 
BRANCH   7  12
ATOM      9  C   UNL     1       6.778   4.426  13.294  0.00  0.00    +0.000 A 
ATOM     10  N   UNL     1       7.634   5.388  13.665  0.00  0.00    +0.000 NA
ATOM     11  O   UNL     1       7.491   5.419  15.060  0.00  0.00    +0.000 OA
ATOM     12  C   UNL     1       6.553   4.474  15.371  0.00  0.00    +0.000 A 
ATOM     13  N   UNL     1       6.013   3.911  14.307  0.00  0.00    +0.000 NA
BRANCH   9  14
ATOM     14  C   UNL     1       6.854   3.763  11.966  0.00  0.00    +0.000 C 
BRANCH  14  16
ATOM     15  C   UNL     1       4.495   3.175  11.363  0.00  0.00    +0.000 C 
ATOM     16  C   UNL     1       5.856   2.630  11.777  0.00  0.00    +0.000 C 
ENDBRANCH  14  16
ENDBRANCH   9  14
ENDBRANCH   7  12
ENDBRANCH   1   7
BRANCH   4  17
ATOM     17  C   UNL     1       2.538   6.219  19.006  0.00  0.00    +0.000 C 
BRANCH  17  18
ATOM     18  C   UNL     1       1.856   6.939  20.181  0.00  0.00    +0.000 C 
BRANCH  18  19
ATOM     19  N   UNL     1       1.502   8.329  19.887  0.00  0.00    +0.000 N 
ATOM     20  C   UNL     1       1.637   8.818  18.597  0.00  0.00    +0.000 A 
ATOM     21  C   UNL     1       1.417  10.107  18.310  0.00  0.00    +0.000 A 
ATOM     22  C   UNL     1       1.034  11.018  19.359  0.00  0.00    +0.000 A 
ATOM     23  C   UNL     1       0.853  10.579  20.610  0.00  0.00    +0.000 A 
ATOM     24  C   UNL     1       1.066   9.142  20.939  0.00  0.00    +0.000 A 
ATOM     25  O   UNL     1       0.877   8.753  22.091  0.00  0.00    +0.000 OA
ENDBRANCH  18  19
ENDBRANCH  17  18
ENDBRANCH   4  17
TORSDOF 7
ENDMDL
MODEL 5
REMARK VINA RESULT:      -6.9      1.632      8.576
REMARK  Name = 
REMARK  9 active torsions:
REMARK  status: ('A' for Active; 'I' for Inactive)
REMARK    1  A    between atoms: C_1  and  C_2
REMARK    2  A    between atoms: C_2  and  C_3
REMARK    3  A    between atoms: C_3  and  C_4
REMARK    4  A    between atoms: C_7  and  C_8
REMARK    5  A    between atoms: C_8  and  C_9
REMARK    6  A    between atoms: C_8  and  N_10
REMARK    7  A    between atoms: N_13  and  C_14
REMARK    8  A    between atoms: C_14  and  C_15
REMARK    9  A    between atoms: C_15  and  N_16
REMARK                            x       y       z     vdW  Elec       q    Type
REMARK                         _______ _______ _______ _____ _____    ______ ____
ROOT
ATOM      1  N   UNL     1       3.161   6.024  18.767  0.00  0.00    +0.000 NA
ATOM      2  C   UNL     1       4.595   5.695  18.770  0.00  0.00    +0.000 C 
ATOM      3  C   UNL     1       4.977   4.199  18.565  0.00  0.00    +0.000 C 
ATOM      4  N   UNL     1       4.183   3.437  17.574  0.00  0.00    +0.000 NA
ATOM      5  C   UNL     1       2.759   3.692  17.867  0.00  0.00    +0.000 C 
ATOM      6  C   UNL     1       2.400   5.186  17.833  0.00  0.00    +0.000 C 
ENDROOT
BRANCH   1   7
ATOM      7  C   UNL     1       2.536   6.339  20.074  0.00  0.00    +0.000 C 
ATOM      8  C   UNL     1       1.463   5.357  20.557  0.00  0.00    +0.000 C 
BRANCH   7  12
ATOM      9  C   UNL     1       0.671   9.342  20.377  0.00  0.00    +0.000 A 
ATOM     10  N   UNL     1       1.031   9.472  19.093  0.00  0.00    +0.000 NA
ATOM     11  O   UNL     1       1.919   8.403  18.902  0.00  0.00    +0.000 OA
ATOM     12  C   UNL     1       2.001   7.753  20.102  0.00  0.00    +0.000 A 
ATOM     13  N   UNL     1       1.330   8.357  21.064  0.00  0.00    +0.000 NA
BRANCH   9  14
ATOM     14  C   UNL     1      -0.540   9.999  20.934  0.00  0.00    +0.000 C 
BRANCH  14  16
ATOM     15  C   UNL     1      -1.010  11.552  22.843  0.00  0.00    +0.000 C 
ATOM     16  C   UNL     1      -0.519  10.165  22.446  0.00  0.00    +0.000 C 
ENDBRANCH  14  16
ENDBRANCH   9  14
ENDBRANCH   7  12
ENDBRANCH   1   7
BRANCH   4  17
ATOM     17  C   UNL     1       4.503   3.789  16.168  0.00  0.00    +0.000 C 
BRANCH  17  18
ATOM     18  C   UNL     1       6.011   3.884  15.886  0.00  0.00    +0.000 C 
BRANCH  18  19
ATOM     19  N   UNL     1       6.328   4.095  14.472  0.00  0.00    +0.000 N 
ATOM     20  C   UNL     1       5.671   3.356  13.500  0.00  0.00    +0.000 A 
ATOM     21  C   UNL     1       6.003   3.449  12.207  0.00  0.00    +0.000 A 
ATOM     22  C   UNL     1       7.069   4.332  11.803  0.00  0.00    +0.000 A 
ATOM     23  C   UNL     1       7.701   5.093  12.705  0.00  0.00    +0.000 A 
ATOM     24  C   UNL     1       7.324   5.021  14.144  0.00  0.00    +0.000 A 
ATOM     25  O   UNL     1       7.904   5.741  14.956  0.00  0.00    +0.000 OA
ENDBRANCH  18  19
ENDBRANCH  17  18
ENDBRANCH   4  17
TORSDOF 7
ENDMDL
MODEL 6
REMARK VINA RESULT:      -6.8      1.968      3.082
REMARK  Name = 
REMARK  9 active torsions:
REMARK  status: ('A' for Active; 'I' for Inactive)
REMARK    1  A    between atoms: C_1  and  C_2
REMARK    2  A    between atoms: C_2  and  C_3
REMARK    3  A    between atoms: C_3  and  C_4
REMARK    4  A    between atoms: C_7  and  C_8
REMARK    5  A    between atoms: C_8  and  C_9
REMARK    6  A    between atoms: C_8  and  N_10
REMARK    7  A    between atoms: N_13  and  C_14
REMARK    8  A    between atoms: C_14  and  C_15
REMARK    9  A    between atoms: C_15  and  N_16
REMARK                            x       y       z     vdW  Elec       q    Type
REMARK                         _______ _______ _______ _____ _____    ______ ____
ROOT
ATOM      1  N   UNL     1       2.237   4.336  18.170  0.00  0.00    +0.000 NA
ATOM      2  C   UNL     1       1.449   3.908  19.336  0.00  0.00    +0.000 C 
ATOM      3  C   UNL     1       1.850   4.503  20.718  0.00  0.00    +0.000 C 
ATOM      4  N   UNL     1       2.237   5.933  20.742  0.00  0.00    +0.000 NA
ATOM      5  C   UNL     1       3.216   6.138  19.656  0.00  0.00    +0.000 C 
ATOM      6  C   UNL     1       2.671   5.734  18.277  0.00  0.00    +0.000 C 
ENDROOT
BRANCH   1   7
ATOM      7  C   UNL     1       3.197   3.359  17.606  0.00  0.00    +0.000 C 
ATOM      8  C   UNL     1       3.644   2.237  18.550  0.00  0.00    +0.000 C 
BRANCH   7  12
ATOM      9  C   UNL     1       5.979   4.466  15.702  0.00  0.00    +0.000 A 
ATOM     10  N   UNL     1       6.596   4.346  16.885  0.00  0.00    +0.000 NA
ATOM     11  O   UNL     1       5.542   4.062  17.766  0.00  0.00    +0.000 OA
ATOM     12  C   UNL     1       4.403   4.052  17.010  0.00  0.00    +0.000 A 
ATOM     13  N   UNL     1       4.612   4.397  15.754  0.00  0.00    +0.000 NA
BRANCH   9  14
ATOM     14  C   UNL     1       6.711   4.381  14.411  0.00  0.00    +0.000 C 
BRANCH  14  16
ATOM     15  C   UNL     1       6.772   3.546  12.050  0.00  0.00    +0.000 C 
ATOM     16  C   UNL     1       5.893   3.799  13.267  0.00  0.00    +0.000 C 
ENDBRANCH  14  16
ENDBRANCH   9  14
ENDBRANCH   7  12
ENDBRANCH   1   7
BRANCH   4  17
ATOM     17  C   UNL     1       1.085   6.857  20.593  0.00  0.00    +0.000 C 
BRANCH  17  18
ATOM     18  C   UNL     1       1.496   8.310  20.305  0.00  0.00    +0.000 C 
BRANCH  18  19
ATOM     19  N   UNL     1       0.770   9.292  21.113  0.00  0.00    +0.000 N 
ATOM     20  C   UNL     1       0.274   8.933  22.357  0.00  0.00    +0.000 A 
ATOM     21  C   UNL     1      -0.478   9.771  23.080  0.00  0.00    +0.000 A 
ATOM     22  C   UNL     1      -0.790  11.080  22.563  0.00  0.00    +0.000 A 
ATOM     23  C   UNL     1      -0.297  11.481  21.385  0.00  0.00    +0.000 A 
ATOM     24  C   UNL     1       0.565  10.570  20.581  0.00  0.00    +0.000 A 
ATOM     25  O   UNL     1       1.023  10.964  19.509  0.00  0.00    +0.000 OA
ENDBRANCH  18  19
ENDBRANCH  17  18
ENDBRANCH   4  17
TORSDOF 7
ENDMDL
MODEL 7
REMARK VINA RESULT:      -6.7      2.747      4.030
REMARK  Name = 
REMARK  9 active torsions:
REMARK  status: ('A' for Active; 'I' for Inactive)
REMARK    1  A    between atoms: C_1  and  C_2
REMARK    2  A    between atoms: C_2  and  C_3
REMARK    3  A    between atoms: C_3  and  C_4
REMARK    4  A    between atoms: C_7  and  C_8
REMARK    5  A    between atoms: C_8  and  C_9
REMARK    6  A    between atoms: C_8  and  N_10
REMARK    7  A    between atoms: N_13  and  C_14
REMARK    8  A    between atoms: C_14  and  C_15
REMARK    9  A    between atoms: C_15  and  N_16
REMARK                            x       y       z     vdW  Elec       q    Type
REMARK                         _______ _______ _______ _____ _____    ______ ____
ROOT
ATOM      1  N   UNL     1       2.336   4.361  17.950  0.00  0.00    +0.000 NA
ATOM      2  C   UNL     1       1.396   3.882  18.975  0.00  0.00    +0.000 C 
ATOM      3  C   UNL     1       1.693   4.286  20.450  0.00  0.00    +0.000 C 
ATOM      4  N   UNL     1       2.188   5.664  20.678  0.00  0.00    +0.000 NA
ATOM      5  C   UNL     1       3.289   5.895  19.724  0.00  0.00    +0.000 C 
ATOM      6  C   UNL     1       2.865   5.694  18.260  0.00  0.00    +0.000 C 
ENDROOT
BRANCH   1   7
ATOM      7  C   UNL     1       3.270   3.367  17.371  0.00  0.00    +0.000 C 
ATOM      8  C   UNL     1       3.475   2.085  18.188  0.00  0.00    +0.000 C 
BRANCH   7  12
ATOM      9  C   UNL     1       6.291   5.221  17.203  0.00  0.00    +0.000 A 
ATOM     10  N   UNL     1       5.811   5.530  15.991  0.00  0.00    +0.000 NA
ATOM     11  O   UNL     1       4.676   4.714  15.880  0.00  0.00    +0.000 OA
ATOM     12  C   UNL     1       4.606   3.995  17.040  0.00  0.00    +0.000 A 
ATOM     13  N   UNL     1       5.636   4.199  17.839  0.00  0.00    +0.000 NA
BRANCH   9  14
ATOM     14  C   UNL     1       7.252   6.095  17.925  0.00  0.00    +0.000 C 
BRANCH  14  16
ATOM     15  C   UNL     1       8.219   8.393  18.172  0.00  0.00    +0.000 C 
ATOM     16  C   UNL     1       7.547   7.411  17.221  0.00  0.00    +0.000 C 
ENDBRANCH  14  16
ENDBRANCH   9  14
ENDBRANCH   7  12
ENDBRANCH   1   7
BRANCH   4  17
ATOM     17  C   UNL     1       1.135   6.699  20.527  0.00  0.00    +0.000 C 
BRANCH  17  18
ATOM     18  C   UNL     1       1.690   8.126  20.395  0.00  0.00    +0.000 C 
BRANCH  18  19
ATOM     19  N   UNL     1       0.914   9.125  21.131  0.00  0.00    +0.000 N 
ATOM     20  C   UNL     1       0.551   8.885  22.448  0.00  0.00    +0.000 A 
ATOM     21  C   UNL     1      -0.241   9.728  23.121  0.00  0.00    +0.000 A 
ATOM     22  C   UNL     1      -0.739  10.915  22.472  0.00  0.00    +0.000 A 
ATOM     23  C   UNL     1      -0.380  11.205  21.215  0.00  0.00    +0.000 A 
ATOM     24  C   UNL     1       0.523  10.291  20.462  0.00  0.00    +0.000 A 
ATOM     25  O   UNL     1       0.856  10.583  19.314  0.00  0.00    +0.000 OA
ENDBRANCH  18  19
ENDBRANCH  17  18
ENDBRANCH   4  17
TORSDOF 7
ENDMDL
MODEL 8
REMARK VINA RESULT:      -6.6      2.404      8.624
REMARK  Name = 
REMARK  9 active torsions:
REMARK  status: ('A' for Active; 'I' for Inactive)
REMARK    1  A    between atoms: C_1  and  C_2
REMARK    2  A    between atoms: C_2  and  C_3
REMARK    3  A    between atoms: C_3  and  C_4
REMARK    4  A    between atoms: C_7  and  C_8
REMARK    5  A    between atoms: C_8  and  C_9
REMARK    6  A    between atoms: C_8  and  N_10
REMARK    7  A    between atoms: N_13  and  C_14
REMARK    8  A    between atoms: C_14  and  C_15
REMARK    9  A    between atoms: C_15  and  N_16
REMARK                            x       y       z     vdW  Elec       q    Type
REMARK                         _______ _______ _______ _____ _____    ______ ____
ROOT
ATOM      1  N   UNL     1       2.173   6.968  19.958  0.00  0.00    +0.000 NA
ATOM      2  C   UNL     1       1.792   5.831  20.810  0.00  0.00    +0.000 C 
ATOM      3  C   UNL     1       1.345   4.525  20.089  0.00  0.00    +0.000 C 
ATOM      4  N   UNL     1       2.097   4.143  18.871  0.00  0.00    +0.000 NA
ATOM      5  C   UNL     1       2.180   5.342  18.015  0.00  0.00    +0.000 C 
ATOM      6  C   UNL     1       2.839   6.537  18.723  0.00  0.00    +0.000 C 
ENDROOT
BRANCH   1   7
ATOM      7  C   UNL     1       1.216   8.095  19.866  0.00  0.00    +0.000 C 
ATOM      8  C   UNL     1       1.675   9.298  19.034  0.00  0.00    +0.000 C 
BRANCH   7  12
ATOM      9  C   UNL     1      -0.166   9.694  22.716  0.00  0.00    +0.000 A 
ATOM     10  N   UNL     1       1.116   9.689  23.105  0.00  0.00    +0.000 NA
ATOM     11  O   UNL     1       1.748   8.927  22.112  0.00  0.00    +0.000 OA
ATOM     12  C   UNL     1       0.767   8.548  21.238  0.00  0.00    +0.000 A 
ATOM     13  N   UNL     1      -0.441   8.911  21.626  0.00  0.00    +0.000 NA
BRANCH   9  14
ATOM     14  C   UNL     1      -1.149  10.684  23.229  0.00  0.00    +0.000 C 
BRANCH  14  16
ATOM     15  C   UNL     1      -0.382  12.647  21.875  0.00  0.00    +0.000 C 
ATOM     16  C   UNL     1      -1.558  11.739  22.211  0.00  0.00    +0.000 C 
ENDBRANCH  14  16
ENDBRANCH   9  14
ENDBRANCH   7  12
ENDBRANCH   1   7
BRANCH   4  17
ATOM     17  C   UNL     1       3.451   3.609  19.160  0.00  0.00    +0.000 C 
BRANCH  17  18
ATOM     18  C   UNL     1       4.168   3.049  17.921  0.00  0.00    +0.000 C 
BRANCH  18  19
ATOM     19  N   UNL     1       5.122   3.987  17.326  0.00  0.00    +0.000 N 
ATOM     20  C   UNL     1       5.042   4.290  15.975  0.00  0.00    +0.000 A 
ATOM     21  C   UNL     1       5.954   5.064  15.376  0.00  0.00    +0.000 A 
ATOM     22  C   UNL     1       7.053   5.598  16.140  0.00  0.00    +0.000 A 
ATOM     23  C   UNL     1       7.145   5.364  17.455  0.00  0.00    +0.000 A 
ATOM     24  C   UNL     1       6.122   4.528  18.142  0.00  0.00    +0.000 A 
ATOM     25  O   UNL     1       6.214   4.338  19.354  0.00  0.00    +0.000 OA
ENDBRANCH  18  19
ENDBRANCH  17  18
ENDBRANCH   4  17
TORSDOF 7
ENDMDL
MODEL 9
REMARK VINA RESULT:      -6.6      3.000      4.271
REMARK  Name = 
REMARK  9 active torsions:
REMARK  status: ('A' for Active; 'I' for Inactive)
REMARK    1  A    between atoms: C_1  and  C_2
REMARK    2  A    between atoms: C_2  and  C_3
REMARK    3  A    between atoms: C_3  and  C_4
REMARK    4  A    between atoms: C_7  and  C_8
REMARK    5  A    between atoms: C_8  and  C_9
REMARK    6  A    between atoms: C_8  and  N_10
REMARK    7  A    between atoms: N_13  and  C_14
REMARK    8  A    between atoms: C_14  and  C_15
REMARK    9  A    between atoms: C_15  and  N_16
REMARK                            x       y       z     vdW  Elec       q    Type
REMARK                         _______ _______ _______ _____ _____    ______ ____
ROOT
ATOM      1  N   UNL     1       3.396   4.877  17.524  0.00  0.00    +0.000 NA
ATOM      2  C   UNL     1       2.230   5.046  18.405  0.00  0.00    +0.000 C 
ATOM      3  C   UNL     1       2.248   6.262  19.377  0.00  0.00    +0.000 C 
ATOM      4  N   UNL     1       2.794   7.533  18.847  0.00  0.00    +0.000 NA
ATOM      5  C   UNL     1       4.084   7.218  18.203  0.00  0.00    +0.000 C 
ATOM      6  C   UNL     1       3.956   6.163  17.092  0.00  0.00    +0.000 C 
ENDROOT
BRANCH   1   7
ATOM      7  C   UNL     1       4.347   3.792  17.860  0.00  0.00    +0.000 C 
ATOM      8  C   UNL     1       4.052   3.018  19.151  0.00  0.00    +0.000 C 
BRANCH   7  12
ATOM      9  C   UNL     1       7.394   5.598  18.060  0.00  0.00    +0.000 A 
ATOM     10  N   UNL     1       7.527   5.141  16.808  0.00  0.00    +0.000 NA
ATOM     11  O   UNL     1       6.438   4.268  16.670  0.00  0.00    +0.000 OA
ATOM     12  C   UNL     1       5.775   4.292  17.865  0.00  0.00    +0.000 A 
ATOM     13  N   UNL     1       6.386   5.017  18.783  0.00  0.00    +0.000 NA
BRANCH   9  14
ATOM     14  C   UNL     1       8.077   6.831  18.533  0.00  0.00    +0.000 C 
BRANCH  14  16
ATOM     15  C   UNL     1       8.488   9.288  18.269  0.00  0.00    +0.000 C 
ATOM     16  C   UNL     1       7.796   8.063  17.686  0.00  0.00    +0.000 C 
ENDBRANCH  14  16
ENDBRANCH   9  14
ENDBRANCH   7  12
ENDBRANCH   1   7
BRANCH   4  17
ATOM     17  C   UNL     1       1.882   8.212  17.893  0.00  0.00    +0.000 C 
BRANCH  17  18
ATOM     18  C   UNL     1       1.878   9.744  18.031  0.00  0.00    +0.000 C 
BRANCH  18  19
ATOM     19  N   UNL     1       0.569  10.294  18.388  0.00  0.00    +0.000 N 
ATOM     20  C   UNL     1      -0.584   9.723  17.872  0.00  0.00    +0.000 A 
ATOM     21  C   UNL     1      -1.791  10.257  18.096  0.00  0.00    +0.000 A 
ATOM     22  C   UNL     1      -1.906  11.457  18.886  0.00  0.00    +0.000 A 
ATOM     23  C   UNL     1      -0.822  12.017  19.437  0.00  0.00    +0.000 A 
ATOM     24  C   UNL     1       0.524  11.418  19.220  0.00  0.00    +0.000 A 
ATOM     25  O   UNL     1       1.507  11.937  19.748  0.00  0.00    +0.000 OA
ENDBRANCH  18  19
ENDBRANCH  17  18
ENDBRANCH   4  17
TORSDOF 7
ENDMDL
