MODEL 1
REMARK VINA RESULT:      -7.5      0.000      0.000
REMARK  Name = 
REMARK  10 active torsions:
REMARK  status: ('A' for Active; 'I' for Inactive)
REMARK    1  A    between atoms: C_2  and  C_3
REMARK    2  A    between atoms: C_2  and  C_4
REMARK    3  A    between atoms: C_4  and  O_5
REMARK    4  A    between atoms: O_5  and  C_6
REMARK    5  A    between atoms: C_10  and  C_11
REMARK    6  A    between atoms: C_12  and  C_13
REMARK    7  A    between atoms: C_13  and  C_14
REMARK    8  A    between atoms: C_14  and  O_16
REMARK    9  A    between atoms: O_16  and  C_17
REMARK   10  A    between atoms: C_22  and  C_23
REMARK                            x       y       z     vdW  Elec       q    Type
REMARK                         _______ _______ _______ _____ _____    ______ ____
ROOT
ATOM      1  C   UNL     1       1.726   7.098  20.146  0.00  0.00    +0.000 A 
ATOM      2  C   UNL     1       2.027   8.056  19.164  0.00  0.00    +0.000 A 
ATOM      3  C   UNL     1       2.899   7.772  18.101  0.00  0.00    +0.000 A 
ATOM      4  C   UNL     1       3.493   6.512  17.978  0.00  0.00    +0.000 A 
ATOM      5  C   UNL     1       4.401   6.107  16.880  0.00  0.00    +0.000 A 
ATOM      6  C   UNL     1       4.938   7.132  15.915  0.00  0.00    +0.000 C 
ATOM      7  C   UNL     1       4.718   4.798  16.749  0.00  0.00    +0.000 A 
ATOM      8  C   UNL     1       4.172   3.784  17.682  0.00  0.00    +0.000 A 
ATOM      9  O   UNL     1       4.188   2.586  17.420  0.00  0.00    +0.000 OA
ATOM     10  O   UNL     1       3.675   4.259  18.873  0.00  0.00    +0.000 OA
ATOM     11  C   UNL     1       3.190   5.582  18.974  0.00  0.00    +0.000 A 
ATOM     12  C   UNL     1       2.358   5.847  20.091  0.00  0.00    +0.000 A 
ATOM     13  C   UNL     1       2.224   4.776  21.140  0.00  0.00    +0.000 C 
ENDROOT
BRANCH   1  14
ATOM     14  O   UNL     1       0.823   7.546  21.081  0.00  0.00    +0.000 OA
BRANCH  14  15
ATOM     15  C   UNL     1       1.159   8.754  21.761  0.00  0.00    +0.000 C 
BRANCH  15  17
ATOM     16  C   UNL     1      -0.368  10.400  20.687  0.00  0.00    +0.000 C 
ATOM     17  C   UNL     1       0.010   9.730  21.790  0.00  0.00    +0.000 C 
ATOM     18  C   UNL     1      -0.596   9.996  23.135  0.00  0.00    +0.000 C 
ENDBRANCH  15  17
ENDBRANCH  14  15
ENDBRANCH   1  14
BRANCH   7  19
ATOM     19  C   UNL     1       5.555   4.200  15.644  0.00  0.00    +0.000 C 
BRANCH  19  20
ATOM     20  C   UNL     1       7.014   4.640  15.665  0.00  0.00    +0.000 C 
ATOM     21  O   UNL     1       7.606   5.246  14.789  0.00  0.00    +0.000 OA
BRANCH  20  22
ATOM     22  O   UNL     1       7.568   4.198  16.836  0.00  0.00    +0.000 OA
ATOM     23  C   UNL     1       7.679   5.174  17.874  0.00  0.00    +0.000 C 
ENDBRANCH  20  22
ENDBRANCH  19  20
ENDBRANCH   7  19
TORSDOF 6
ENDMDL
MODEL 2
REMARK VINA RESULT:      -7.4      0.674      1.428
REMARK  Name = 
REMARK  10 active torsions:
REMARK  status: ('A' for Active; 'I' for Inactive)
REMARK    1  A    between atoms: C_2  and  C_3
REMARK    2  A    between atoms: C_2  and  C_4
REMARK    3  A    between atoms: C_4  and  O_5
REMARK    4  A    between atoms: O_5  and  C_6
REMARK    5  A    between atoms: C_10  and  C_11
REMARK    6  A    between atoms: C_12  and  C_13
REMARK    7  A    between atoms: C_13  and  C_14
REMARK    8  A    between atoms: C_14  and  O_16
REMARK    9  A    between atoms: O_16  and  C_17
REMARK   10  A    between atoms: C_22  and  C_23
REMARK                            x       y       z     vdW  Elec       q    Type
REMARK                         _______ _______ _______ _____ _____    ______ ____
ROOT
ATOM      1  C   UNL     1       1.770   6.976  20.288  0.00  0.00    +0.000 A 
ATOM      2  C   UNL     1       2.098   7.926  19.307  0.00  0.00    +0.000 A 
ATOM      3  C   UNL     1       2.969   7.622  18.249  0.00  0.00    +0.000 A 
ATOM      4  C   UNL     1       3.536   6.350  18.130  0.00  0.00    +0.000 A 
ATOM      5  C   UNL     1       4.441   5.924  17.038  0.00  0.00    +0.000 A 
ATOM      6  C   UNL     1       5.005   6.937  16.075  0.00  0.00    +0.000 C 
ATOM      7  C   UNL     1       4.730   4.609  16.909  0.00  0.00    +0.000 A 
ATOM      8  C   UNL     1       4.156   3.607  17.839  0.00  0.00    +0.000 A 
ATOM      9  O   UNL     1       4.148   2.409  17.578  0.00  0.00    +0.000 OA
ATOM     10  O   UNL     1       3.663   4.094  19.027  0.00  0.00    +0.000 OA
ATOM     11  C   UNL     1       3.207   5.427  19.125  0.00  0.00    +0.000 A 
ATOM     12  C   UNL     1       2.375   5.711  20.237  0.00  0.00    +0.000 A 
ATOM     13  C   UNL     1       2.211   4.644  21.286  0.00  0.00    +0.000 C 
ENDROOT
BRANCH   1  14
ATOM     14  O   UNL     1       0.872   7.444  21.218  0.00  0.00    +0.000 OA
BRANCH  14  15
ATOM     15  C   UNL     1       0.102   8.584  20.840  0.00  0.00    +0.000 C 
BRANCH  15  17
ATOM     16  C   UNL     1      -0.153   9.591  23.102  0.00  0.00    +0.000 C 
ATOM     17  C   UNL     1       0.243   9.718  21.823  0.00  0.00    +0.000 C 
ATOM     18  C   UNL     1       0.731  11.021  21.263  0.00  0.00    +0.000 C 
ENDBRANCH  15  17
ENDBRANCH  14  15
ENDBRANCH   1  14
BRANCH   7  19
ATOM     19  C   UNL     1       5.560   3.992  15.808  0.00  0.00    +0.000 C 
BRANCH  19  20
ATOM     20  C   UNL     1       7.037   4.364  15.864  0.00  0.00    +0.000 C 
ATOM     21  O   UNL     1       7.759   4.336  16.844  0.00  0.00    +0.000 OA
BRANCH  20  22
ATOM     22  O   UNL     1       7.412   4.779  14.614  0.00  0.00    +0.000 OA
ATOM     23  C   UNL     1       6.626   4.273  13.534  0.00  0.00    +0.000 C 
ENDBRANCH  20  22
ENDBRANCH  19  20
ENDBRANCH   7  19
TORSDOF 6
ENDMDL
MODEL 3
REMARK VINA RESULT:      -7.4      2.475      4.032
REMARK  Name = 
REMARK  10 active torsions:
REMARK  status: ('A' for Active; 'I' for Inactive)
REMARK    1  A    between atoms: C_2  and  C_3
REMARK    2  A    between atoms: C_2  and  C_4
REMARK    3  A    between atoms: C_4  and  O_5
REMARK    4  A    between atoms: O_5  and  C_6
REMARK    5  A    between atoms: C_10  and  C_11
REMARK    6  A    between atoms: C_12  and  C_13
REMARK    7  A    between atoms: C_13  and  C_14
REMARK    8  A    between atoms: C_14  and  O_16
REMARK    9  A    between atoms: O_16  and  C_17
REMARK   10  A    between atoms: C_22  and  C_23
REMARK                            x       y       z     vdW  Elec       q    Type
REMARK                         _______ _______ _______ _____ _____    ______ ____
ROOT
ATOM      1  C   UNL     1       0.742  10.140  19.480  0.00  0.00    +0.000 A 
ATOM      2  C   UNL     1       1.428  10.131  18.254  0.00  0.00    +0.000 A 
ATOM      3  C   UNL     1       2.222   9.041  17.862  0.00  0.00    +0.000 A 
ATOM      4  C   UNL     1       2.348   7.915  18.681  0.00  0.00    +0.000 A 
ATOM      5  C   UNL     1       3.136   6.707  18.346  0.00  0.00    +0.000 A 
ATOM      6  C   UNL     1       4.064   6.706  17.159  0.00  0.00    +0.000 C 
ATOM      7  C   UNL     1       2.987   5.601  19.110  0.00  0.00    +0.000 A 
ATOM      8  C   UNL     1       2.055   5.590  20.263  0.00  0.00    +0.000 A 
ATOM      9  O   UNL     1       1.672   4.546  20.780  0.00  0.00    +0.000 OA
ATOM     10  O   UNL     1       1.669   6.820  20.743  0.00  0.00    +0.000 OA
ATOM     11  C   UNL     1       1.669   7.954  19.900  0.00  0.00    +0.000 A 
ATOM     12  C   UNL     1       0.902   9.057  20.355  0.00  0.00    +0.000 A 
ATOM     13  C   UNL     1       0.328   8.990  21.745  0.00  0.00    +0.000 C 
ENDROOT
BRANCH   1  14
ATOM     14  O   UNL     1      -0.014  11.273  19.668  0.00  0.00    +0.000 OA
BRANCH  14  15
ATOM     15  C   UNL     1      -0.580  11.862  18.499  0.00  0.00    +0.000 C 
BRANCH  15  17
ATOM     16  C   UNL     1      -3.019  11.854  18.999  0.00  0.00    +0.000 C 
ATOM     17  C   UNL     1      -1.995  11.399  18.256  0.00  0.00    +0.000 C 
ATOM     18  C   UNL     1      -2.169  10.321  17.228  0.00  0.00    +0.000 C 
ENDBRANCH  15  17
ENDBRANCH  14  15
ENDBRANCH   1  14
BRANCH   7  19
ATOM     19  C   UNL     1       3.641   4.263  18.863  0.00  0.00    +0.000 C 
BRANCH  19  20
ATOM     20  C   UNL     1       2.780   3.290  18.066  0.00  0.00    +0.000 C 
ATOM     21  O   UNL     1       1.955   3.574  17.216  0.00  0.00    +0.000 OA
BRANCH  20  22
ATOM     22  O   UNL     1       3.065   2.024  18.502  0.00  0.00    +0.000 OA
ATOM     23  C   UNL     1       4.045   1.933  19.538  0.00  0.00    +0.000 C 
ENDBRANCH  20  22
ENDBRANCH  19  20
ENDBRANCH   7  19
TORSDOF 6
ENDMDL
MODEL 4
REMARK VINA RESULT:      -7.4      1.492      2.597
REMARK  Name = 
REMARK  10 active torsions:
REMARK  status: ('A' for Active; 'I' for Inactive)
REMARK    1  A    between atoms: C_2  and  C_3
REMARK    2  A    between atoms: C_2  and  C_4
REMARK    3  A    between atoms: C_4  and  O_5
REMARK    4  A    between atoms: O_5  and  C_6
REMARK    5  A    between atoms: C_10  and  C_11
REMARK    6  A    between atoms: C_12  and  C_13
REMARK    7  A    between atoms: C_13  and  C_14
REMARK    8  A    between atoms: C_14  and  O_16
REMARK    9  A    between atoms: O_16  and  C_17
REMARK   10  A    between atoms: C_22  and  C_23
REMARK                            x       y       z     vdW  Elec       q    Type
REMARK                         _______ _______ _______ _____ _____    ______ ____
ROOT
ATOM      1  C   UNL     1       1.514   8.338  19.874  0.00  0.00    +0.000 A 
ATOM      2  C   UNL     1       1.552   7.144  20.613  0.00  0.00    +0.000 A 
ATOM      3  C   UNL     1       2.259   6.019  20.162  0.00  0.00    +0.000 A 
ATOM      4  C   UNL     1       2.965   6.053  18.955  0.00  0.00    +0.000 A 
ATOM      5  C   UNL     1       3.763   4.932  18.408  0.00  0.00    +0.000 A 
ATOM      6  C   UNL     1       3.680   3.561  19.029  0.00  0.00    +0.000 C 
ATOM      7  C   UNL     1       4.583   5.169  17.359  0.00  0.00    +0.000 A 
ATOM      8  C   UNL     1       4.686   6.522  16.762  0.00  0.00    +0.000 A 
ATOM      9  O   UNL     1       5.618   6.840  16.030  0.00  0.00    +0.000 OA
ATOM     10  O   UNL     1       3.660   7.392  17.049  0.00  0.00    +0.000 OA
ATOM     11  C   UNL     1       2.901   7.245  18.231  0.00  0.00    +0.000 A 
ATOM     12  C   UNL     1       2.154   8.383  18.626  0.00  0.00    +0.000 A 
ATOM     13  C   UNL     1       2.091   9.549  17.677  0.00  0.00    +0.000 C 
ENDROOT
BRANCH   1  14
ATOM     14  O   UNL     1       0.806   9.339  20.496  0.00  0.00    +0.000 OA
BRANCH  14  15
ATOM     15  C   UNL     1      -0.170   8.928  21.451  0.00  0.00    +0.000 C 
BRANCH  15  17
ATOM     16  C   UNL     1      -0.689  11.177  22.383  0.00  0.00    +0.000 C 
ATOM     17  C   UNL     1      -0.299   9.906  22.591  0.00  0.00    +0.000 C 
ATOM     18  C   UNL     1       0.148   9.416  23.935  0.00  0.00    +0.000 C 
ENDBRANCH  15  17
ENDBRANCH  14  15
ENDBRANCH   1  14
BRANCH   7  19
ATOM     19  C   UNL     1       5.527   4.170  16.734  0.00  0.00    +0.000 C 
BRANCH  19  20
ATOM     20  C   UNL     1       6.993   4.403  17.079  0.00  0.00    +0.000 C 
ATOM     21  O   UNL     1       7.923   4.481  16.296  0.00  0.00    +0.000 OA
BRANCH  20  22
ATOM     22  O   UNL     1       7.097   4.472  18.442  0.00  0.00    +0.000 OA
ATOM     23  C   UNL     1       7.674   5.673  18.958  0.00  0.00    +0.000 C 
ENDBRANCH  20  22
ENDBRANCH  19  20
ENDBRANCH   7  19
TORSDOF 6
ENDMDL
MODEL 5
REMARK VINA RESULT:      -7.3      2.239      3.920
REMARK  Name = 
REMARK  10 active torsions:
REMARK  status: ('A' for Active; 'I' for Inactive)
REMARK    1  A    between atoms: C_2  and  C_3
REMARK    2  A    between atoms: C_2  and  C_4
REMARK    3  A    between atoms: C_4  and  O_5
REMARK    4  A    between atoms: O_5  and  C_6
REMARK    5  A    between atoms: C_10  and  C_11
REMARK    6  A    between atoms: C_12  and  C_13
REMARK    7  A    between atoms: C_13  and  C_14
REMARK    8  A    between atoms: C_14  and  O_16
REMARK    9  A    between atoms: O_16  and  C_17
REMARK   10  A    between atoms: C_22  and  C_23
REMARK                            x       y       z     vdW  Elec       q    Type
REMARK                         _______ _______ _______ _____ _____    ______ ____
ROOT
ATOM      1  C   UNL     1       0.498  10.350  19.753  0.00  0.00    +0.000 A 
ATOM      2  C   UNL     1       1.136  10.416  18.503  0.00  0.00    +0.000 A 
ATOM      3  C   UNL     1       1.949   9.371  18.035  0.00  0.00    +0.000 A 
ATOM      4  C   UNL     1       2.144   8.217  18.799  0.00  0.00    +0.000 A 
ATOM      5  C   UNL     1       2.957   7.051  18.382  0.00  0.00    +0.000 A 
ATOM      6  C   UNL     1       3.839   7.133  17.163  0.00  0.00    +0.000 C 
ATOM      7  C   UNL     1       2.874   5.910  19.103  0.00  0.00    +0.000 A 
ATOM      8  C   UNL     1       1.989   5.819  20.288  0.00  0.00    +0.000 A 
ATOM      9  O   UNL     1       1.661   4.741  20.773  0.00  0.00    +0.000 OA
ATOM     10  O   UNL     1       1.582   7.013  20.836  0.00  0.00    +0.000 OA
ATOM     11  C   UNL     1       1.512   8.181  20.043  0.00  0.00    +0.000 A 
ATOM     12  C   UNL     1       0.728   9.236  20.574  0.00  0.00    +0.000 A 
ATOM     13  C   UNL     1       0.210   9.091  21.980  0.00  0.00    +0.000 C 
ENDROOT
BRANCH   1  14
ATOM     14  O   UNL     1      -0.287  11.447  20.019  0.00  0.00    +0.000 OA
BRANCH  14  15
ATOM     15  C   UNL     1      -0.910  12.070  18.897  0.00  0.00    +0.000 C 
BRANCH  15  17
ATOM     16  C   UNL     1      -3.231  12.335  19.756  0.00  0.00    +0.000 C 
ATOM     17  C   UNL     1      -2.393  11.803  18.848  0.00  0.00    +0.000 C 
ATOM     18  C   UNL     1      -2.853  10.821  17.812  0.00  0.00    +0.000 C 
ENDBRANCH  15  17
ENDBRANCH  14  15
ENDBRANCH   1  14
BRANCH   7  19
ATOM     19  C   UNL     1       3.563   4.607  18.773  0.00  0.00    +0.000 C 
BRANCH  19  20
ATOM     20  C   UNL     1       4.948   4.464  19.392  0.00  0.00    +0.000 C 
ATOM     21  O   UNL     1       5.748   5.358  19.602  0.00  0.00    +0.000 OA
BRANCH  20  22
ATOM     22  O   UNL     1       5.162   3.135  19.640  0.00  0.00    +0.000 OA
ATOM     23  C   UNL     1       3.994   2.313  19.646  0.00  0.00    +0.000 C 
ENDBRANCH  20  22
ENDBRANCH  19  20
ENDBRANCH   7  19
TORSDOF 6
ENDMDL
MODEL 6
REMARK VINA RESULT:      -7.3      1.782      2.581
REMARK  Name = 
REMARK  10 active torsions:
REMARK  status: ('A' for Active; 'I' for Inactive)
REMARK    1  A    between atoms: C_2  and  C_3
REMARK    2  A    between atoms: C_2  and  C_4
REMARK    3  A    between atoms: C_4  and  O_5
REMARK    4  A    between atoms: O_5  and  C_6
REMARK    5  A    between atoms: C_10  and  C_11
REMARK    6  A    between atoms: C_12  and  C_13
REMARK    7  A    between atoms: C_13  and  C_14
REMARK    8  A    between atoms: C_14  and  O_16
REMARK    9  A    between atoms: O_16  and  C_17
REMARK   10  A    between atoms: C_22  and  C_23
REMARK                            x       y       z     vdW  Elec       q    Type
REMARK                         _______ _______ _______ _____ _____    ______ ____
ROOT
ATOM      1  C   UNL     1       1.186   9.128  19.184  0.00  0.00    +0.000 A 
ATOM      2  C   UNL     1       1.722   9.405  17.916  0.00  0.00    +0.000 A 
ATOM      3  C   UNL     1       2.685   8.572  17.325  0.00  0.00    +0.000 A 
ATOM      4  C   UNL     1       3.139   7.424  17.981  0.00  0.00    +0.000 A 
ATOM      5  C   UNL     1       4.128   6.468  17.431  0.00  0.00    +0.000 A 
ATOM      6  C   UNL     1       4.901   6.804  16.182  0.00  0.00    +0.000 C 
ATOM      7  C   UNL     1       4.304   5.282  18.058  0.00  0.00    +0.000 A 
ATOM      8  C   UNL     1       3.526   4.938  19.272  0.00  0.00    +0.000 A 
ATOM      9  O   UNL     1       3.436   3.785  19.680  0.00  0.00    +0.000 OA
ATOM     10  O   UNL     1       2.938   5.990  19.935  0.00  0.00    +0.000 OA
ATOM     11  C   UNL     1       2.602   7.177  19.246  0.00  0.00    +0.000 A 
ATOM     12  C   UNL     1       1.670   8.023  19.899  0.00  0.00    +0.000 A 
ATOM     13  C   UNL     1       1.276   7.680  21.311  0.00  0.00    +0.000 C 
ENDROOT
BRANCH   1  14
ATOM     14  O   UNL     1       0.228  10.033  19.577  0.00  0.00    +0.000 OA
BRANCH  14  15
ATOM     15  C   UNL     1      -0.197  10.976  18.594  0.00  0.00    +0.000 C 
BRANCH  15  17
ATOM     16  C   UNL     1      -2.446  11.881  19.159  0.00  0.00    +0.000 C 
ATOM     17  C   UNL     1      -1.697  11.014  18.453  0.00  0.00    +0.000 C 
ATOM     18  C   UNL     1      -2.305   9.958  17.580  0.00  0.00    +0.000 C 
ENDBRANCH  15  17
ENDBRANCH  14  15
ENDBRANCH   1  14
BRANCH   7  19
ATOM     19  C   UNL     1       5.201   4.162  17.589  0.00  0.00    +0.000 C 
BRANCH  19  20
ATOM     20  C   UNL     1       6.689   4.451  17.752  0.00  0.00    +0.000 C 
ATOM     21  O   UNL     1       7.542   4.391  16.885  0.00  0.00    +0.000 OA
BRANCH  20  22
ATOM     22  O   UNL     1       6.915   4.756  19.067  0.00  0.00    +0.000 OA
ATOM     23  C   UNL     1       7.821   5.835  19.304  0.00  0.00    +0.000 C 
ENDBRANCH  20  22
ENDBRANCH  19  20
ENDBRANCH   7  19
TORSDOF 6
ENDMDL
MODEL 7
REMARK VINA RESULT:      -7.3      1.558      2.835
REMARK  Name = 
REMARK  10 active torsions:
REMARK  status: ('A' for Active; 'I' for Inactive)
REMARK    1  A    between atoms: C_2  and  C_3
REMARK    2  A    between atoms: C_2  and  C_4
REMARK    3  A    between atoms: C_4  and  O_5
REMARK    4  A    between atoms: O_5  and  C_6
REMARK    5  A    between atoms: C_10  and  C_11
REMARK    6  A    between atoms: C_12  and  C_13
REMARK    7  A    between atoms: C_13  and  C_14
REMARK    8  A    between atoms: C_14  and  O_16
REMARK    9  A    between atoms: O_16  and  C_17
REMARK   10  A    between atoms: C_22  and  C_23
REMARK                            x       y       z     vdW  Elec       q    Type
REMARK                         _______ _______ _______ _____ _____    ______ ____
ROOT
ATOM      1  C   UNL     1       1.716   8.170  20.006  0.00  0.00    +0.000 A 
ATOM      2  C   UNL     1       1.795   6.910  20.621  0.00  0.00    +0.000 A 
ATOM      3  C   UNL     1       2.445   5.828  20.006  0.00  0.00    +0.000 A 
ATOM      4  C   UNL     1       3.050   5.974  18.754  0.00  0.00    +0.000 A 
ATOM      5  C   UNL     1       3.783   4.905  18.037  0.00  0.00    +0.000 A 
ATOM      6  C   UNL     1       3.728   3.481  18.528  0.00  0.00    +0.000 C 
ATOM      7  C   UNL     1       4.518   5.237  16.952  0.00  0.00    +0.000 A 
ATOM      8  C   UNL     1       4.595   6.640  16.482  0.00  0.00    +0.000 A 
ATOM      9  O   UNL     1       5.469   7.020  15.710  0.00  0.00    +0.000 OA
ATOM     10  O   UNL     1       3.610   7.487  16.935  0.00  0.00    +0.000 OA
ATOM     11  C   UNL     1       2.947   7.231  18.156  0.00  0.00    +0.000 A 
ATOM     12  C   UNL     1       2.253   8.331  18.720  0.00  0.00    +0.000 A 
ATOM     13  C   UNL     1       2.133   9.586  17.896  0.00  0.00    +0.000 C 
ENDROOT
BRANCH   1  14
ATOM     14  O   UNL     1       1.078   9.111  20.778  0.00  0.00    +0.000 OA
BRANCH  14  15
ATOM     15  C   UNL     1      -0.342   9.176  20.658  0.00  0.00    +0.000 C 
BRANCH  15  17
ATOM     16  C   UNL     1      -1.381  10.338  18.718  0.00  0.00    +0.000 C 
ATOM     17  C   UNL     1      -0.796  10.413  19.927  0.00  0.00    +0.000 C 
ATOM     18  C   UNL     1      -0.449  11.724  20.569  0.00  0.00    +0.000 C 
ENDBRANCH  15  17
ENDBRANCH  14  15
ENDBRANCH   1  14
BRANCH   7  19
ATOM     19  C   UNL     1       5.392   4.295  16.157  0.00  0.00    +0.000 C 
BRANCH  19  20
ATOM     20  C   UNL     1       6.881   4.434  16.453  0.00  0.00    +0.000 C 
ATOM     21  O   UNL     1       7.409   4.436  17.550  0.00  0.00    +0.000 OA
BRANCH  20  22
ATOM     22  O   UNL     1       7.531   4.599  15.259  0.00  0.00    +0.000 OA
ATOM     23  C   UNL     1       6.730   4.422  14.090  0.00  0.00    +0.000 C 
ENDBRANCH  20  22
ENDBRANCH  19  20
ENDBRANCH   7  19
TORSDOF 6
ENDMDL
MODEL 8
REMARK VINA RESULT:      -7.3      2.067      3.557
REMARK  Name = 
REMARK  10 active torsions:
REMARK  status: ('A' for Active; 'I' for Inactive)
REMARK    1  A    between atoms: C_2  and  C_3
REMARK    2  A    between atoms: C_2  and  C_4
REMARK    3  A    between atoms: C_4  and  O_5
REMARK    4  A    between atoms: O_5  and  C_6
REMARK    5  A    between atoms: C_10  and  C_11
REMARK    6  A    between atoms: C_12  and  C_13
REMARK    7  A    between atoms: C_13  and  C_14
REMARK    8  A    between atoms: C_14  and  O_16
REMARK    9  A    between atoms: O_16  and  C_17
REMARK   10  A    between atoms: C_22  and  C_23
REMARK                            x       y       z     vdW  Elec       q    Type
REMARK                         _______ _______ _______ _____ _____    ______ ____
ROOT
ATOM      1  C   UNL     1       0.961   9.955  19.606  0.00  0.00    +0.000 A 
ATOM      2  C   UNL     1       1.622  10.083  18.374  0.00  0.00    +0.000 A 
ATOM      3  C   UNL     1       2.399   9.041  17.843  0.00  0.00    +0.000 A 
ATOM      4  C   UNL     1       2.532   7.827  18.525  0.00  0.00    +0.000 A 
ATOM      5  C   UNL     1       3.304   6.661  18.036  0.00  0.00    +0.000 A 
ATOM      6  C   UNL     1       4.208   6.791  16.838  0.00  0.00    +0.000 C 
ATOM      7  C   UNL     1       3.161   5.475  18.672  0.00  0.00    +0.000 A 
ATOM      8  C   UNL     1       2.253   5.338  19.835  0.00  0.00    +0.000 A 
ATOM      9  O   UNL     1       1.873   4.243  20.236  0.00  0.00    +0.000 OA
ATOM     10  O   UNL     1       1.887   6.507  20.461  0.00  0.00    +0.000 OA
ATOM     11  C   UNL     1       1.878   7.730  19.754  0.00  0.00    +0.000 A 
ATOM     12  C   UNL     1       1.130   8.777  20.348  0.00  0.00    +0.000 A 
ATOM     13  C   UNL     1       0.583   8.554  21.733  0.00  0.00    +0.000 C 
ENDROOT
BRANCH   1  14
ATOM     14  O   UNL     1       0.217  11.063  19.940  0.00  0.00    +0.000 OA
BRANCH  14  15
ATOM     15  C   UNL     1      -1.133  11.085  19.479  0.00  0.00    +0.000 C 
BRANCH  15  17
ATOM     16  C   UNL     1      -0.656  13.136  18.152  0.00  0.00    +0.000 C 
ATOM     17  C   UNL     1      -1.307  11.965  18.268  0.00  0.00    +0.000 C 
ATOM     18  C   UNL     1      -2.332  11.518  17.269  0.00  0.00    +0.000 C 
ENDBRANCH  15  17
ENDBRANCH  14  15
ENDBRANCH   1  14
BRANCH   7  19
ATOM     19  C   UNL     1       3.800   4.171  18.258  0.00  0.00    +0.000 C 
BRANCH  19  20
ATOM     20  C   UNL     1       5.136   3.894  18.937  0.00  0.00    +0.000 C 
ATOM     21  O   UNL     1       6.215   4.378  18.647  0.00  0.00    +0.000 OA
BRANCH  20  22
ATOM     22  O   UNL     1       4.922   2.964  19.919  0.00  0.00    +0.000 OA
ATOM     23  C   UNL     1       4.214   1.791  19.515  0.00  0.00    +0.000 C 
ENDBRANCH  20  22
ENDBRANCH  19  20
ENDBRANCH   7  19
TORSDOF 6
ENDMDL
MODEL 9
REMARK VINA RESULT:      -7.3      2.204      4.123
REMARK  Name = 
REMARK  10 active torsions:
REMARK  status: ('A' for Active; 'I' for Inactive)
REMARK    1  A    between atoms: C_2  and  C_3
REMARK    2  A    between atoms: C_2  and  C_4
REMARK    3  A    between atoms: C_4  and  O_5
REMARK    4  A    between atoms: O_5  and  C_6
REMARK    5  A    between atoms: C_10  and  C_11
REMARK    6  A    between atoms: C_12  and  C_13
REMARK    7  A    between atoms: C_13  and  C_14
REMARK    8  A    between atoms: C_14  and  O_16
REMARK    9  A    between atoms: O_16  and  C_17
REMARK   10  A    between atoms: C_22  and  C_23
REMARK                            x       y       z     vdW  Elec       q    Type
REMARK                         _______ _______ _______ _____ _____    ______ ____
ROOT
ATOM      1  C   UNL     1       0.752   9.907  19.411  0.00  0.00    +0.000 A 
ATOM      2  C   UNL     1       1.443   9.797  18.193  0.00  0.00    +0.000 A 
ATOM      3  C   UNL     1       2.255   8.689  17.905  0.00  0.00    +0.000 A 
ATOM      4  C   UNL     1       2.396   7.644  18.824  0.00  0.00    +0.000 A 
ATOM      5  C   UNL     1       3.204   6.423  18.602  0.00  0.00    +0.000 A 
ATOM      6  C   UNL     1       4.138   6.329  17.423  0.00  0.00    +0.000 C 
ATOM      7  C   UNL     1       3.070   5.389  19.465  0.00  0.00    +0.000 A 
ATOM      8  C   UNL     1       2.134   5.469  20.611  0.00  0.00    +0.000 A 
ATOM      9  O   UNL     1       1.766   4.470  21.220  0.00  0.00    +0.000 OA
ATOM     10  O   UNL     1       1.726   6.731  20.976  0.00  0.00    +0.000 OA
ATOM     11  C   UNL     1       1.711   7.783  20.033  0.00  0.00    +0.000 A 
ATOM     12  C   UNL     1       0.925   8.910  20.383  0.00  0.00    +0.000 A 
ATOM     13  C   UNL     1       0.346   8.961  21.771  0.00  0.00    +0.000 C 
ENDROOT
BRANCH   1  14
ATOM     14  O   UNL     1      -0.024  11.040  19.494  0.00  0.00    +0.000 OA
BRANCH  14  15
ATOM     15  C   UNL     1      -0.601  11.504  18.275  0.00  0.00    +0.000 C 
BRANCH  15  17
ATOM     16  C   UNL     1      -2.191   9.917  17.204  0.00  0.00    +0.000 C 
ATOM     17  C   UNL     1      -1.982  10.943  18.048  0.00  0.00    +0.000 C 
ATOM     18  C   UNL     1      -3.109  11.669  18.720  0.00  0.00    +0.000 C 
ENDBRANCH  15  17
ENDBRANCH  14  15
ENDBRANCH   1  14
BRANCH   7  19
ATOM     19  C   UNL     1       3.747   4.045  19.342  0.00  0.00    +0.000 C 
BRANCH  19  20
ATOM     20  C   UNL     1       3.198   3.176  18.216  0.00  0.00    +0.000 C 
ATOM     21  O   UNL     1       3.838   2.448  17.479  0.00  0.00    +0.000 OA
BRANCH  20  22
ATOM     22  O   UNL     1       1.847   3.384  18.147  0.00  0.00    +0.000 OA
ATOM     23  C   UNL     1       1.032   2.325  18.653  0.00  0.00    +0.000 C 
ENDBRANCH  20  22
ENDBRANCH  19  20
ENDBRANCH   7  19
TORSDOF 6
ENDMDL
