MODEL 1
REMARK VINA RESULT:      -7.1      0.000      0.000
REMARK  Name = 
REMARK  4 active torsions:
REMARK  status: ('A' for Active; 'I' for Inactive)
REMARK    1  A    between atoms: C_5  and  S_6
REMARK    2  A    between atoms: S_6  and  C_7
REMARK    3  A    between atoms: C_7  and  C_8
REMARK    4  A    between atoms: N_10  and  C_11
REMARK                            x       y       z     vdW  Elec       q    Type
REMARK                         _______ _______ _______ _____ _____    ______ ____
ROOT
ATOM      1  C   UNL     1       3.111   5.152  18.059  0.00  0.00    +0.000 C 
ATOM      2  O   UNL     1       1.977   4.876  17.664  0.00  0.00    +0.000 OA
ATOM      3  N   UNL     1       3.506   6.396  18.512  0.00  0.00    +0.000 N 
ATOM      4  H   UNL     1       4.501   6.585  18.637  0.00  0.00    +0.000 HD
ENDROOT
BRANCH   3   5
ATOM      5  C   UNL     1       2.646   7.507  18.703  0.00  0.00    +0.000 A 
ATOM      6  C   UNL     1       2.444   8.499  17.740  0.00  0.00    +0.000 A 
ATOM      7  C   UNL     1       1.594   9.582  17.994  0.00  0.00    +0.000 A 
ATOM      8  C   UNL     1       0.937   9.677  19.215  0.00  0.00    +0.000 A 
ATOM      9 BR   UNL     1      -0.187  11.158  19.556  0.00  0.00    +0.000 Br
ATOM     10  C   UNL     1       1.105   8.691  20.183  0.00  0.00    +0.000 A 
ATOM     11  C   UNL     1       1.948   7.613  19.913  0.00  0.00    +0.000 A 
ATOM     12  F   UNL     1       2.111   6.668  20.853  0.00  0.00    +0.000 F 
ENDBRANCH   3   5
BRANCH   1  13
ATOM     13  C   UNL     1       4.155   4.058  18.126  0.00  0.00    +0.000 C 
BRANCH  13  14
ATOM     14  S   UNL     1       5.821   4.769  18.127  0.00  0.00    +0.000 S 
BRANCH  14  19
ATOM     15  N   UNL     1       6.348   3.560  13.328  0.00  0.00    +0.000 N 
ATOM     16  C   UNL     1       6.585   4.208  14.463  0.00  0.00    +0.000 A 
ATOM     17  N   UNL     1       7.379   5.265  14.589  0.00  0.00    +0.000 NA
ATOM     18  N   UNL     1       7.246   5.535  15.899  0.00  0.00    +0.000 N 
ATOM     19  C   UNL     1       6.405   4.648  16.502  0.00  0.00    +0.000 A 
ATOM     20  N   UNL     1       5.987   3.781  15.609  0.00  0.00    +0.000 NA
ATOM     21  H   UNL     1       6.981   3.728  12.557  0.00  0.00    +0.000 HD
ATOM     22  H   UNL     1       5.979   2.622  13.392  0.00  0.00    +0.000 HD
ATOM     23  H   UNL     1       7.740   6.329  16.297  0.00  0.00    +0.000 HD
ENDBRANCH  14  19
ENDBRANCH  13  14
ENDBRANCH   1  13
TORSDOF 4
ENDMDL
MODEL 2
REMARK VINA RESULT:      -7.0      1.669      2.406
REMARK  Name = 
REMARK  4 active torsions:
REMARK  status: ('A' for Active; 'I' for Inactive)
REMARK    1  A    between atoms: C_5  and  S_6
REMARK    2  A    between atoms: S_6  and  C_7
REMARK    3  A    between atoms: C_7  and  C_8
REMARK    4  A    between atoms: N_10  and  C_11
REMARK                            x       y       z     vdW  Elec       q    Type
REMARK                         _______ _______ _______ _____ _____    ______ ____
ROOT
ATOM      1  C   UNL     1       2.760   4.806  17.573  0.00  0.00    +0.000 C 
ATOM      2  O   UNL     1       1.596   4.457  17.775  0.00  0.00    +0.000 OA
ATOM      3  N   UNL     1       3.264   6.064  17.844  0.00  0.00    +0.000 N 
ATOM      4  H   UNL     1       4.178   6.323  17.471  0.00  0.00    +0.000 HD
ENDROOT
BRANCH   3   5
ATOM      5  C   UNL     1       2.557   7.103  18.501  0.00  0.00    +0.000 A 
ATOM      6  C   UNL     1       2.108   8.258  17.854  0.00  0.00    +0.000 A 
ATOM      7  C   UNL     1       1.430   9.257  18.561  0.00  0.00    +0.000 A 
ATOM      8  C   UNL     1       1.193   9.106  19.922  0.00  0.00    +0.000 A 
ATOM      9 BR   UNL     1       0.300  10.474  20.871  0.00  0.00    +0.000 Br
ATOM     10  C   UNL     1       1.611   7.955  20.585  0.00  0.00    +0.000 A 
ATOM     11  C   UNL     1       2.279   6.963  19.867  0.00  0.00    +0.000 A 
ATOM     12  F   UNL     1       2.685   5.859  20.513  0.00  0.00    +0.000 F 
ENDBRANCH   3   5
BRANCH   1  13
ATOM     13  C   UNL     1       3.754   3.791  17.050  0.00  0.00    +0.000 C 
BRANCH  13  14
ATOM     14  S   UNL     1       5.019   4.603  16.040  0.00  0.00    +0.000 S 
BRANCH  14  19
ATOM     15  N   UNL     1       8.029   5.540  19.892  0.00  0.00    +0.000 N 
ATOM     16  C   UNL     1       7.675   5.091  18.693  0.00  0.00    +0.000 A 
ATOM     17  N   UNL     1       8.438   4.354  17.895  0.00  0.00    +0.000 NA
ATOM     18  N   UNL     1       7.613   4.159  16.853  0.00  0.00    +0.000 N 
ATOM     19  C   UNL     1       6.414   4.777  17.051  0.00  0.00    +0.000 A 
ATOM     20  N   UNL     1       6.438   5.394  18.210  0.00  0.00    +0.000 NA
ATOM     21  H   UNL     1       9.015   5.522  20.121  0.00  0.00    +0.000 HD
ATOM     22  H   UNL     1       7.506   6.314  20.276  0.00  0.00    +0.000 HD
ATOM     23  H   UNL     1       7.926   3.596  16.067  0.00  0.00    +0.000 HD
ENDBRANCH  14  19
ENDBRANCH  13  14
ENDBRANCH   1  13
TORSDOF 4
ENDMDL
MODEL 3
REMARK VINA RESULT:      -7.0      1.114      1.570
REMARK  Name = 
REMARK  4 active torsions:
REMARK  status: ('A' for Active; 'I' for Inactive)
REMARK    1  A    between atoms: C_5  and  S_6
REMARK    2  A    between atoms: S_6  and  C_7
REMARK    3  A    between atoms: C_7  and  C_8
REMARK    4  A    between atoms: N_10  and  C_11
REMARK                            x       y       z     vdW  Elec       q    Type
REMARK                         _______ _______ _______ _____ _____    ______ ____
ROOT
ATOM      1  C   UNL     1       2.962   4.914  18.425  0.00  0.00    +0.000 C 
ATOM      2  O   UNL     1       1.838   4.467  18.660  0.00  0.00    +0.000 OA
ATOM      3  N   UNL     1       3.325   6.240  18.556  0.00  0.00    +0.000 N 
ATOM      4  H   UNL     1       4.212   6.553  18.160  0.00  0.00    +0.000 HD
ENDROOT
BRANCH   3   5
ATOM      5  C   UNL     1       2.502   7.264  19.092  0.00  0.00    +0.000 A 
ATOM      6  C   UNL     1       2.011   7.251  20.400  0.00  0.00    +0.000 A 
ATOM      7  C   UNL     1       1.188   8.284  20.866  0.00  0.00    +0.000 A 
ATOM      8  C   UNL     1       0.855   9.339  20.025  0.00  0.00    +0.000 A 
ATOM      9 BR   UNL     1      -0.278  10.713  20.657  0.00  0.00    +0.000 Br
ATOM     10  C   UNL     1       1.350   9.386  18.724  0.00  0.00    +0.000 A 
ATOM     11  C   UNL     1       2.175   8.355  18.276  0.00  0.00    +0.000 A 
ATOM     12  F   UNL     1       2.645   8.402  17.018  0.00  0.00    +0.000 F 
ENDBRANCH   3   5
BRANCH   1  13
ATOM     13  C   UNL     1       4.065   3.960  18.021  0.00  0.00    +0.000 C 
BRANCH  13  14
ATOM     14  S   UNL     1       5.671   4.798  18.047  0.00  0.00    +0.000 S 
BRANCH  14  19
ATOM     15  N   UNL     1       6.390   3.546  13.285  0.00  0.00    +0.000 N 
ATOM     16  C   UNL     1       6.583   4.202  14.422  0.00  0.00    +0.000 A 
ATOM     17  N   UNL     1       7.376   5.257  14.573  0.00  0.00    +0.000 NA
ATOM     18  N   UNL     1       7.190   5.539  15.873  0.00  0.00    +0.000 N 
ATOM     19  C   UNL     1       6.321   4.660  16.449  0.00  0.00    +0.000 A 
ATOM     20  N   UNL     1       5.937   3.787  15.547  0.00  0.00    +0.000 NA
ATOM     21  H   UNL     1       7.055   3.705  12.539  0.00  0.00    +0.000 HD
ATOM     22  H   UNL     1       6.014   2.610  13.341  0.00  0.00    +0.000 HD
ATOM     23  H   UNL     1       7.670   6.334  16.285  0.00  0.00    +0.000 HD
ENDBRANCH  14  19
ENDBRANCH  13  14
ENDBRANCH   1  13
TORSDOF 4
ENDMDL
MODEL 4
REMARK VINA RESULT:      -6.9      0.992      1.246
REMARK  Name = 
REMARK  4 active torsions:
REMARK  status: ('A' for Active; 'I' for Inactive)
REMARK    1  A    between atoms: C_5  and  S_6
REMARK    2  A    between atoms: S_6  and  C_7
REMARK    3  A    between atoms: C_7  and  C_8
REMARK    4  A    between atoms: N_10  and  C_11
REMARK                            x       y       z     vdW  Elec       q    Type
REMARK                         _______ _______ _______ _____ _____    ______ ____
ROOT
ATOM      1  C   UNL     1       2.445   4.816  18.367  0.00  0.00    +0.000 C 
ATOM      2  O   UNL     1       1.233   4.704  18.177  0.00  0.00    +0.000 OA
ATOM      3  N   UNL     1       3.100   6.013  18.586  0.00  0.00    +0.000 N 
ATOM      4  H   UNL     1       4.119   6.035  18.542  0.00  0.00    +0.000 HD
ENDROOT
BRANCH   3   5
ATOM      5  C   UNL     1       2.469   7.273  18.743  0.00  0.00    +0.000 A 
ATOM      6  C   UNL     1       2.450   8.254  17.747  0.00  0.00    +0.000 A 
ATOM      7  C   UNL     1       1.824   9.487  17.968  0.00  0.00    +0.000 A 
ATOM      8  C   UNL     1       1.210   9.744  19.188  0.00  0.00    +0.000 A 
ATOM      9 BR   UNL     1       0.392  11.422  19.484  0.00  0.00    +0.000 Br
ATOM     10  C   UNL     1       1.197   8.776  20.188  0.00  0.00    +0.000 A 
ATOM     11  C   UNL     1       1.816   7.549  19.951  0.00  0.00    +0.000 A 
ATOM     12  F   UNL     1       1.806   6.621  20.922  0.00  0.00    +0.000 F 
ENDBRANCH   3   5
BRANCH   1  13
ATOM     13  C   UNL     1       3.300   3.569  18.435  0.00  0.00    +0.000 C 
BRANCH  13  14
ATOM     14  S   UNL     1       4.916   3.945  19.160  0.00  0.00    +0.000 S 
BRANCH  14  19
ATOM     15  N   UNL     1       6.824   5.291  14.765  0.00  0.00    +0.000 N 
ATOM     16  C   UNL     1       6.822   4.856  16.019  0.00  0.00    +0.000 A 
ATOM     17  N   UNL     1       7.905   4.654  16.762  0.00  0.00    +0.000 NA
ATOM     18  N   UNL     1       7.355   4.252  17.920  0.00  0.00    +0.000 N 
ATOM     19  C   UNL     1       5.996   4.218  17.835  0.00  0.00    +0.000 A 
ATOM     20  N   UNL     1       5.634   4.580  16.625  0.00  0.00    +0.000 NA
ATOM     21  H   UNL     1       7.700   5.249  14.260  0.00  0.00    +0.000 HD
ATOM     22  H   UNL     1       5.995   5.131  14.212  0.00  0.00    +0.000 HD
ATOM     23  H   UNL     1       7.958   4.035  18.709  0.00  0.00    +0.000 HD
ENDBRANCH  14  19
ENDBRANCH  13  14
ENDBRANCH   1  13
TORSDOF 4
ENDMDL
MODEL 5
REMARK VINA RESULT:      -6.9      1.378      1.917
REMARK  Name = 
REMARK  4 active torsions:
REMARK  status: ('A' for Active; 'I' for Inactive)
REMARK    1  A    between atoms: C_5  and  S_6
REMARK    2  A    between atoms: S_6  and  C_7
REMARK    3  A    between atoms: C_7  and  C_8
REMARK    4  A    between atoms: N_10  and  C_11
REMARK                            x       y       z     vdW  Elec       q    Type
REMARK                         _______ _______ _______ _____ _____    ______ ____
ROOT
ATOM      1  C   UNL     1       2.447   4.979  18.268  0.00  0.00    +0.000 C 
ATOM      2  O   UNL     1       1.343   4.962  17.722  0.00  0.00    +0.000 OA
ATOM      3  N   UNL     1       2.999   6.080  18.895  0.00  0.00    +0.000 N 
ATOM      4  H   UNL     1       3.987   6.063  19.149  0.00  0.00    +0.000 HD
ENDROOT
BRANCH   3   5
ATOM      5  C   UNL     1       2.336   7.316  19.110  0.00  0.00    +0.000 A 
ATOM      6  C   UNL     1       1.696   7.648  20.307  0.00  0.00    +0.000 A 
ATOM      7  C   UNL     1       1.043   8.878  20.453  0.00  0.00    +0.000 A 
ATOM      8  C   UNL     1       1.031   9.786  19.401  0.00  0.00    +0.000 A 
ATOM      9 BR   UNL     1       0.125  11.432  19.600  0.00  0.00    +0.000 Br
ATOM     10  C   UNL     1       1.681   9.487  18.205  0.00  0.00    +0.000 A 
ATOM     11  C   UNL     1       2.334   8.262  18.077  0.00  0.00    +0.000 A 
ATOM     12  F   UNL     1       2.953   7.977  16.920  0.00  0.00    +0.000 F 
ENDBRANCH   3   5
BRANCH   1  13
ATOM     13  C   UNL     1       3.259   3.703  18.331  0.00  0.00    +0.000 C 
BRANCH  13  14
ATOM     14  S   UNL     1       4.874   4.015  19.089  0.00  0.00    +0.000 S 
BRANCH  14  19
ATOM     15  N   UNL     1       6.925   5.289  14.738  0.00  0.00    +0.000 N 
ATOM     16  C   UNL     1       6.880   4.852  15.990  0.00  0.00    +0.000 A 
ATOM     17  N   UNL     1       7.938   4.603  16.753  0.00  0.00    +0.000 NA
ATOM     18  N   UNL     1       7.349   4.222  17.899  0.00  0.00    +0.000 N 
ATOM     19  C   UNL     1       5.991   4.245  17.786  0.00  0.00    +0.000 A 
ATOM     20  N   UNL     1       5.669   4.625  16.571  0.00  0.00    +0.000 NA
ATOM     21  H   UNL     1       7.809   5.211  14.250  0.00  0.00    +0.000 HD
ATOM     22  H   UNL     1       6.101   5.166  14.167  0.00  0.00    +0.000 HD
ATOM     23  H   UNL     1       7.926   3.978  18.699  0.00  0.00    +0.000 HD
ENDBRANCH  14  19
ENDBRANCH  13  14
ENDBRANCH   1  13
TORSDOF 4
ENDMDL
MODEL 6
REMARK VINA RESULT:      -6.8      0.565      1.098
REMARK  Name = 
REMARK  4 active torsions:
REMARK  status: ('A' for Active; 'I' for Inactive)
REMARK    1  A    between atoms: C_5  and  S_6
REMARK    2  A    between atoms: S_6  and  C_7
REMARK    3  A    between atoms: C_7  and  C_8
REMARK    4  A    between atoms: N_10  and  C_11
REMARK                            x       y       z     vdW  Elec       q    Type
REMARK                         _______ _______ _______ _____ _____    ______ ____
ROOT
ATOM      1  C   UNL     1       3.262   4.873  17.950  0.00  0.00    +0.000 C 
ATOM      2  O   UNL     1       2.103   4.578  17.654  0.00  0.00    +0.000 OA
ATOM      3  N   UNL     1       3.677   6.128  18.352  0.00  0.00    +0.000 N 
ATOM      4  H   UNL     1       4.676   6.330  18.392  0.00  0.00    +0.000 HD
ENDROOT
BRANCH   3   5
ATOM      5  C   UNL     1       2.821   7.231  18.600  0.00  0.00    +0.000 A 
ATOM      6  C   UNL     1       2.615   8.267  17.685  0.00  0.00    +0.000 A 
ATOM      7  C   UNL     1       1.770   9.339  17.994  0.00  0.00    +0.000 A 
ATOM      8  C   UNL     1       1.122   9.380  19.222  0.00  0.00    +0.000 A 
ATOM      9 BR   UNL     1       0.005  10.846  19.639  0.00  0.00    +0.000 Br
ATOM     10  C   UNL     1       1.293   8.349  20.143  0.00  0.00    +0.000 A 
ATOM     11  C   UNL     1       2.132   7.283  19.819  0.00  0.00    +0.000 A 
ATOM     12  F   UNL     1       2.298   6.295  20.713  0.00  0.00    +0.000 F 
ENDBRANCH   3   5
BRANCH   1  13
ATOM     13  C   UNL     1       4.322   3.793  17.944  0.00  0.00    +0.000 C 
BRANCH  13  14
ATOM     14  S   UNL     1       5.973   4.524  17.810  0.00  0.00    +0.000 S 
BRANCH  14  19
ATOM     15  N   UNL     1       8.112   5.610  13.449  0.00  0.00    +0.000 N 
ATOM     16  C   UNL     1       7.249   5.044  14.284  0.00  0.00    +0.000 A 
ATOM     17  N   UNL     1       6.363   4.111  13.954  0.00  0.00    +0.000 NA
ATOM     18  N   UNL     1       5.779   3.876  15.141  0.00  0.00    +0.000 N 
ATOM     19  C   UNL     1       6.312   4.662  16.118  0.00  0.00    +0.000 A 
ATOM     20  N   UNL     1       7.238   5.429  15.590  0.00  0.00    +0.000 NA
ATOM     21  H   UNL     1       7.939   5.500  12.458  0.00  0.00    +0.000 HD
ATOM     22  H   UNL     1       8.524   6.490  13.725  0.00  0.00    +0.000 HD
ATOM     23  H   UNL     1       5.048   3.173  15.206  0.00  0.00    +0.000 HD
ENDBRANCH  14  19
ENDBRANCH  13  14
ENDBRANCH   1  13
TORSDOF 4
ENDMDL
MODEL 7
REMARK VINA RESULT:      -6.8      1.993      2.749
REMARK  Name = 
REMARK  4 active torsions:
REMARK  status: ('A' for Active; 'I' for Inactive)
REMARK    1  A    between atoms: C_5  and  S_6
REMARK    2  A    between atoms: S_6  and  C_7
REMARK    3  A    between atoms: C_7  and  C_8
REMARK    4  A    between atoms: N_10  and  C_11
REMARK                            x       y       z     vdW  Elec       q    Type
REMARK                         _______ _______ _______ _____ _____    ______ ____
ROOT
ATOM      1  C   UNL     1       2.730   4.770  18.113  0.00  0.00    +0.000 C 
ATOM      2  O   UNL     1       1.549   4.634  17.790  0.00  0.00    +0.000 OA
ATOM      3  N   UNL     1       3.261   5.904  18.696  0.00  0.00    +0.000 N 
ATOM      4  H   UNL     1       4.275   6.004  18.752  0.00  0.00    +0.000 HD
ENDROOT
BRANCH   3   5
ATOM      5  C   UNL     1       2.513   7.033  19.120  0.00  0.00    +0.000 A 
ATOM      6  C   UNL     1       1.948   7.148  20.392  0.00  0.00    +0.000 A 
ATOM      7  C   UNL     1       1.205   8.280  20.747  0.00  0.00    +0.000 A 
ATOM      8  C   UNL     1       1.027   9.308  19.828  0.00  0.00    +0.000 A 
ATOM      9 BR   UNL     1      -0.000  10.820  20.309  0.00  0.00    +0.000 Br
ATOM     10  C   UNL     1       1.599   9.227  18.561  0.00  0.00    +0.000 A 
ATOM     11  C   UNL     1       2.343   8.097  18.225  0.00  0.00    +0.000 A 
ATOM     12  F   UNL     1       2.887   8.022  16.999  0.00  0.00    +0.000 F 
ENDBRANCH   3   5
BRANCH   1  13
ATOM     13  C   UNL     1       3.683   3.609  17.929  0.00  0.00    +0.000 C 
BRANCH  13  14
ATOM     14  S   UNL     1       4.863   3.960  16.600  0.00  0.00    +0.000 S 
BRANCH  14  19
ATOM     15  N   UNL     1       8.008   7.430  18.285  0.00  0.00    +0.000 N 
ATOM     16  C   UNL     1       7.494   6.217  18.121  0.00  0.00    +0.000 A 
ATOM     17  N   UNL     1       7.878   5.127  18.776  0.00  0.00    +0.000 NA
ATOM     18  N   UNL     1       7.041   4.209  18.266  0.00  0.00    +0.000 N 
ATOM     19  C   UNL     1       6.209   4.760  17.339  0.00  0.00    +0.000 A 
ATOM     20  N   UNL     1       6.493   6.036  17.216  0.00  0.00    +0.000 NA
ATOM     21  H   UNL     1       8.898   7.496  18.762  0.00  0.00    +0.000 HD
ATOM     22  H   UNL     1       7.856   8.107  17.551  0.00  0.00    +0.000 HD
ATOM     23  H   UNL     1       7.089   3.250  18.602  0.00  0.00    +0.000 HD
ENDBRANCH  14  19
ENDBRANCH  13  14
ENDBRANCH   1  13
TORSDOF 4
ENDMDL
MODEL 8
REMARK VINA RESULT:      -6.8      2.213      2.929
REMARK  Name = 
REMARK  4 active torsions:
REMARK  status: ('A' for Active; 'I' for Inactive)
REMARK    1  A    between atoms: C_5  and  S_6
REMARK    2  A    between atoms: S_6  and  C_7
REMARK    3  A    between atoms: C_7  and  C_8
REMARK    4  A    between atoms: N_10  and  C_11
REMARK                            x       y       z     vdW  Elec       q    Type
REMARK                         _______ _______ _______ _____ _____    ______ ____
ROOT
ATOM      1  C   UNL     1       2.451   4.796  18.081  0.00  0.00    +0.000 C 
ATOM      2  O   UNL     1       1.239   4.669  17.900  0.00  0.00    +0.000 OA
ATOM      3  N   UNL     1       3.056   5.923  18.603  0.00  0.00    +0.000 N 
ATOM      4  H   UNL     1       4.069   6.017  18.540  0.00  0.00    +0.000 HD
ENDROOT
BRANCH   3   5
ATOM      5  C   UNL     1       2.371   7.054  19.118  0.00  0.00    +0.000 A 
ATOM      6  C   UNL     1       1.842   7.112  20.410  0.00  0.00    +0.000 A 
ATOM      7  C   UNL     1       1.161   8.251  20.856  0.00  0.00    +0.000 A 
ATOM      8  C   UNL     1       1.008   9.343  20.010  0.00  0.00    +0.000 A 
ATOM      9 BR   UNL     1       0.064  10.864  20.613  0.00  0.00    +0.000 Br
ATOM     10  C   UNL     1       1.545   9.319  18.725  0.00  0.00    +0.000 A 
ATOM     11  C   UNL     1       2.228   8.181  18.297  0.00  0.00    +0.000 A 
ATOM     12  F   UNL     1       2.738   8.161  17.055  0.00  0.00    +0.000 F 
ENDBRANCH   3   5
BRANCH   1  13
ATOM     13  C   UNL     1       3.368   3.630  17.780  0.00  0.00    +0.000 C 
BRANCH  13  14
ATOM     14  S   UNL     1       4.549   3.385  19.131  0.00  0.00    +0.000 S 
BRANCH  14  19
ATOM     15  N   UNL     1       8.361   6.576  19.364  0.00  0.00    +0.000 N 
ATOM     16  C   UNL     1       7.596   5.615  18.861  0.00  0.00    +0.000 A 
ATOM     17  N   UNL     1       7.890   4.881  17.793  0.00  0.00    +0.000 NA
ATOM     18  N   UNL     1       6.824   4.066  17.737  0.00  0.00    +0.000 N 
ATOM     19  C   UNL     1       5.943   4.335  18.741  0.00  0.00    +0.000 A 
ATOM     20  N   UNL     1       6.405   5.333  19.458  0.00  0.00    +0.000 NA
ATOM     21  H   UNL     1       9.102   6.935  18.775  0.00  0.00    +0.000 HD
ATOM     22  H   UNL     1       7.926   7.250  19.976  0.00  0.00    +0.000 HD
ATOM     23  H   UNL     1       6.775   3.359  17.008  0.00  0.00    +0.000 HD
ENDBRANCH  14  19
ENDBRANCH  13  14
ENDBRANCH   1  13
TORSDOF 4
ENDMDL
MODEL 9
REMARK VINA RESULT:      -6.8      1.160      1.854
REMARK  Name = 
REMARK  4 active torsions:
REMARK  status: ('A' for Active; 'I' for Inactive)
REMARK    1  A    between atoms: C_5  and  S_6
REMARK    2  A    between atoms: S_6  and  C_7
REMARK    3  A    between atoms: C_7  and  C_8
REMARK    4  A    between atoms: N_10  and  C_11
REMARK                            x       y       z     vdW  Elec       q    Type
REMARK                         _______ _______ _______ _____ _____    ______ ____
ROOT
ATOM      1  C   UNL     1       2.813   5.061  18.550  0.00  0.00    +0.000 C 
ATOM      2  O   UNL     1       1.695   4.847  18.077  0.00  0.00    +0.000 OA
ATOM      3  N   UNL     1       3.239   6.277  19.047  0.00  0.00    +0.000 N 
ATOM      4  H   UNL     1       4.231   6.414  19.240  0.00  0.00    +0.000 HD
ENDROOT
BRANCH   3   5
ATOM      5  C   UNL     1       2.424   7.429  19.198  0.00  0.00    +0.000 A 
ATOM      6  C   UNL     1       1.744   7.742  20.378  0.00  0.00    +0.000 A 
ATOM      7  C   UNL     1       0.941   8.886  20.460  0.00  0.00    +0.000 A 
ATOM      8  C   UNL     1       0.817   9.727  19.361  0.00  0.00    +0.000 A 
ATOM      9 BR   UNL     1      -0.291  11.253  19.475  0.00  0.00    +0.000 Br
ATOM     10  C   UNL     1       1.502   9.449  18.181  0.00  0.00    +0.000 A 
ATOM     11  C   UNL     1       2.305   8.311  18.116  0.00  0.00    +0.000 A 
ATOM     12  F   UNL     1       2.959   8.044  16.973  0.00  0.00    +0.000 F 
ENDBRANCH   3   5
BRANCH   1  13
ATOM     13  C   UNL     1       3.794   3.914  18.669  0.00  0.00    +0.000 C 
BRANCH  13  14
ATOM     14  S   UNL     1       5.497   4.527  18.608  0.00  0.00    +0.000 S 
BRANCH  14  19
ATOM     15  N   UNL     1       7.734   5.504  14.270  0.00  0.00    +0.000 N 
ATOM     16  C   UNL     1       6.960   4.855  15.132  0.00  0.00    +0.000 A 
ATOM     17  N   UNL     1       6.379   3.682  14.906  0.00  0.00    +0.000 NA
ATOM     18  N   UNL     1       5.752   3.473  16.076  0.00  0.00    +0.000 N 
ATOM     19  C   UNL     1       5.965   4.505  16.941  0.00  0.00    +0.000 A 
ATOM     20  N   UNL     1       6.716   5.407  16.352  0.00  0.00    +0.000 NA
ATOM     21  H   UNL     1       7.699   5.211  13.302  0.00  0.00    +0.000 HD
ATOM     22  H   UNL     1       7.878   6.492  14.421  0.00  0.00    +0.000 HD
ATOM     23  H   UNL     1       5.221   2.617  16.211  0.00  0.00    +0.000 HD
ENDBRANCH  14  19
ENDBRANCH  13  14
ENDBRANCH   1  13
TORSDOF 4
ENDMDL
