MODEL 1
REMARK VINA RESULT:      -9.5      0.000      0.000
REMARK  Name = 
REMARK  5 active torsions:
REMARK  status: ('A' for Active; 'I' for Inactive)
REMARK    1  A    between atoms: C_1  and  N_2
REMARK    2  A    between atoms: C_4  and  C_5
REMARK    3  A    between atoms: C_10  and  O_11
REMARK    4  A    between atoms: O_11  and  C_12
REMARK    5  A    between atoms: N_20  and  C_21
REMARK                            x       y       z     vdW  Elec       q    Type
REMARK                         _______ _______ _______ _____ _____    ______ ____
ROOT
ATOM      1  C   UNL     1       2.265   7.019  19.472  0.00  0.00    +0.000 A 
ATOM      2  N   UNL     1       3.048   7.393  18.500  0.00  0.00    +0.000 NA
ATOM      3  C   UNL     1       3.792   6.404  17.838  0.00  0.00    +0.000 A 
ATOM      4  C   UNL     1       4.612   6.718  16.771  0.00  0.00    +0.000 A 
ATOM      5  N   UNL     1       5.339   5.819  16.072  0.00  0.00    +0.000 NA
ATOM      6  C   UNL     1       5.231   4.545  16.474  0.00  0.00    +0.000 A 
ATOM      7  N   UNL     1       4.506   4.130  17.523  0.00  0.00    +0.000 NA
ATOM      8  C   UNL     1       3.783   5.059  18.177  0.00  0.00    +0.000 A 
ATOM      9  N   UNL     1       2.942   4.636  19.234  0.00  0.00    +0.000 N 
ATOM     10  C   UNL     1       2.099   5.542  19.866  0.00  0.00    +0.000 A 
ATOM     11  O   UNL     1       1.236   5.225  20.680  0.00  0.00    +0.000 OA
ENDROOT
BRANCH   1  15
ATOM     12  C   UNL     1       0.188   9.526  23.221  0.00  0.00    +0.000 C 
ATOM     13  N   UNL     1       0.596   9.181  21.878  0.00  0.00    +0.000 N 
ATOM     14  C   UNL     1       1.393   8.119  21.560  0.00  0.00    +0.000 A 
ATOM     15  C   UNL     1       1.535   8.063  20.186  0.00  0.00    +0.000 A 
ATOM     16  C   UNL     1       0.812   9.183  19.656  0.00  0.00    +0.000 A 
ATOM     17  C   UNL     1       0.570   9.669  18.352  0.00  0.00    +0.000 A 
ATOM     18  C   UNL     1      -0.256  10.784  18.167  0.00  0.00    +0.000 A 
ATOM     19  C   UNL     1      -0.840  11.420  19.257  0.00  0.00    +0.000 A 
ATOM     20  C   UNL     1      -0.613  10.968  20.559  0.00  0.00    +0.000 A 
ATOM     21  C   UNL     1       0.215   9.848  20.734  0.00  0.00    +0.000 A 
ENDBRANCH   1  15
BRANCH   9  22
ATOM     22  C   UNL     1       2.808   3.225  19.516  0.00  0.00    +0.000 C 
ATOM     23  C   UNL     1       1.570   2.618  20.126  0.00  0.00    +0.000 C 
ATOM     24  C   UNL     1       1.887   2.357  18.689  0.00  0.00    +0.000 C 
ENDBRANCH   9  22
BRANCH   6  25
ATOM     25  O   UNL     1       5.926   3.607  15.722  0.00  0.00    +0.000 OA
BRANCH  25  26
ATOM     26  C   UNL     1       6.391   4.001  14.485  0.00  0.00    +0.000 A 
ATOM     27  C   UNL     1       7.433   4.919  14.307  0.00  0.00    +0.000 A 
ATOM     28  C   UNL     1       7.852   5.268  13.024  0.00  0.00    +0.000 A 
ATOM     29  C   UNL     1       7.264   4.667  11.913  0.00  0.00    +0.000 A 
ATOM     30  C   UNL     1       6.257   3.718  12.085  0.00  0.00    +0.000 A 
ATOM     31  C   UNL     1       5.821   3.384  13.370  0.00  0.00    +0.000 A 
ENDBRANCH  25  26
ENDBRANCH   6  25
TORSDOF 4
ENDMDL
MODEL 2
REMARK VINA RESULT:      -9.4      2.882      9.973
REMARK  Name = 
REMARK  5 active torsions:
REMARK  status: ('A' for Active; 'I' for Inactive)
REMARK    1  A    between atoms: C_1  and  N_2
REMARK    2  A    between atoms: C_4  and  C_5
REMARK    3  A    between atoms: C_10  and  O_11
REMARK    4  A    between atoms: O_11  and  C_12
REMARK    5  A    between atoms: N_20  and  C_21
REMARK                            x       y       z     vdW  Elec       q    Type
REMARK                         _______ _______ _______ _____ _____    ______ ____
ROOT
ATOM      1  C   UNL     1       1.797   8.000  19.693  0.00  0.00    +0.000 A 
ATOM      2  N   UNL     1       1.335   8.003  20.912  0.00  0.00    +0.000 NA
ATOM      3  C   UNL     1       0.775   9.194  21.399  0.00  0.00    +0.000 A 
ATOM      4  C   UNL     1       0.227   9.262  22.666  0.00  0.00    +0.000 A 
ATOM      5  N   UNL     1      -0.348  10.364  23.195  0.00  0.00    +0.000 NA
ATOM      6  C   UNL     1      -0.368  11.446  22.404  0.00  0.00    +0.000 A 
ATOM      7  N   UNL     1       0.174  11.511  21.178  0.00  0.00    +0.000 NA
ATOM      8  C   UNL     1       0.719  10.382  20.687  0.00  0.00    +0.000 A 
ATOM      9  N   UNL     1       1.221  10.399  19.364  0.00  0.00    +0.000 N 
ATOM     10  C   UNL     1       1.695   9.231  18.777  0.00  0.00    +0.000 A 
ATOM     11  O   UNL     1       2.001   9.132  17.592  0.00  0.00    +0.000 OA
ENDROOT
BRANCH   1  15
ATOM     12  C   UNL     1       4.668   4.968  17.006  0.00  0.00    +0.000 C 
ATOM     13  N   UNL     1       3.711   5.411  17.996  0.00  0.00    +0.000 N 
ATOM     14  C   UNL     1       3.409   6.719  18.248  0.00  0.00    +0.000 A 
ATOM     15  C   UNL     1       2.422   6.770  19.215  0.00  0.00    +0.000 A 
ATOM     16  C   UNL     1       2.149   5.413  19.590  0.00  0.00    +0.000 A 
ATOM     17  C   UNL     1       1.259   4.805  20.503  0.00  0.00    +0.000 A 
ATOM     18  C   UNL     1       1.192   3.410  20.585  0.00  0.00    +0.000 A 
ATOM     19  C   UNL     1       1.995   2.614  19.777  0.00  0.00    +0.000 A 
ATOM     20  C   UNL     1       2.891   3.185  18.871  0.00  0.00    +0.000 A 
ATOM     21  C   UNL     1       2.951   4.586  18.794  0.00  0.00    +0.000 A 
ENDBRANCH   1  15
BRANCH   9  22
ATOM     22  C   UNL     1       1.049  11.582  18.552  0.00  0.00    +0.000 C 
ATOM     23  C   UNL     1       1.202  12.983  19.091  0.00  0.00    +0.000 C 
ATOM     24  C   UNL     1       2.238  12.432  18.165  0.00  0.00    +0.000 C 
ENDBRANCH   9  22
BRANCH   6  25
ATOM     25  O   UNL     1      -1.013  12.564  22.915  0.00  0.00    +0.000 OA
BRANCH  25  26
ATOM     26  C   UNL     1      -2.363  12.691  22.662  0.00  0.00    +0.000 A 
ATOM     27  C   UNL     1      -2.906  12.752  21.374  0.00  0.00    +0.000 A 
ATOM     28  C   UNL     1      -4.283  12.877  21.195  0.00  0.00    +0.000 A 
ATOM     29  C   UNL     1      -5.129  12.895  22.302  0.00  0.00    +0.000 A 
ATOM     30  C   UNL     1      -4.597  12.788  23.587  0.00  0.00    +0.000 A 
ATOM     31  C   UNL     1      -3.215  12.684  23.768  0.00  0.00    +0.000 A 
ENDBRANCH  25  26
ENDBRANCH   6  25
TORSDOF 4
ENDMDL
MODEL 3
REMARK VINA RESULT:      -9.3      0.416      1.082
REMARK  Name = 
REMARK  5 active torsions:
REMARK  status: ('A' for Active; 'I' for Inactive)
REMARK    1  A    between atoms: C_1  and  N_2
REMARK    2  A    between atoms: C_4  and  C_5
REMARK    3  A    between atoms: C_10  and  O_11
REMARK    4  A    between atoms: O_11  and  C_12
REMARK    5  A    between atoms: N_20  and  C_21
REMARK                            x       y       z     vdW  Elec       q    Type
REMARK                         _______ _______ _______ _____ _____    ______ ____
ROOT
ATOM      1  C   UNL     1       2.307   7.038  19.443  0.00  0.00    +0.000 A 
ATOM      2  N   UNL     1       3.103   7.411  18.481  0.00  0.00    +0.000 NA
ATOM      3  C   UNL     1       3.871   6.423  17.845  0.00  0.00    +0.000 A 
ATOM      4  C   UNL     1       4.707   6.735  16.790  0.00  0.00    +0.000 A 
ATOM      5  N   UNL     1       5.458   5.837  16.115  0.00  0.00    +0.000 NA
ATOM      6  C   UNL     1       5.358   4.567  16.530  0.00  0.00    +0.000 A 
ATOM      7  N   UNL     1       4.618   4.155  17.570  0.00  0.00    +0.000 NA
ATOM      8  C   UNL     1       3.872   5.082  18.199  0.00  0.00    +0.000 A 
ATOM      9  N   UNL     1       3.016   4.661  19.245  0.00  0.00    +0.000 N 
ATOM     10  C   UNL     1       2.150   5.564  19.851  0.00  0.00    +0.000 A 
ATOM     11  O   UNL     1       1.276   5.245  20.652  0.00  0.00    +0.000 OA
ENDROOT
BRANCH   1  15
ATOM     12  C   UNL     1       0.169   9.588  23.129  0.00  0.00    +0.000 C 
ATOM     13  N   UNL     1       0.585   9.219  21.794  0.00  0.00    +0.000 N 
ATOM     14  C   UNL     1       1.408   8.170  21.503  0.00  0.00    +0.000 A 
ATOM     15  C   UNL     1       1.550   8.081  20.130  0.00  0.00    +0.000 A 
ATOM     16  C   UNL     1       0.798   9.168  19.572  0.00  0.00    +0.000 A 
ATOM     17  C   UNL     1       0.543   9.614  18.257  0.00  0.00    +0.000 A 
ATOM     18  C   UNL     1      -0.311  10.702  18.045  0.00  0.00    +0.000 A 
ATOM     19  C   UNL     1      -0.911  11.351  19.118  0.00  0.00    +0.000 A 
ATOM     20  C   UNL     1      -0.671  10.939  20.431  0.00  0.00    +0.000 A 
ATOM     21  C   UNL     1       0.186   9.846  20.634  0.00  0.00    +0.000 A 
ENDBRANCH   1  15
BRANCH   9  22
ATOM     22  C   UNL     1       2.894   3.252  19.541  0.00  0.00    +0.000 C 
ATOM     23  C   UNL     1       4.051   2.401  20.003  0.00  0.00    +0.000 C 
ATOM     24  C   UNL     1       2.964   2.754  20.966  0.00  0.00    +0.000 C 
ENDBRANCH   9  22
BRANCH   6  25
ATOM     25  O   UNL     1       6.078   3.628  15.802  0.00  0.00    +0.000 OA
BRANCH  25  26
ATOM     26  C   UNL     1       6.424   3.956  14.508  0.00  0.00    +0.000 A 
ATOM     27  C   UNL     1       5.748   3.473  13.381  0.00  0.00    +0.000 A 
ATOM     28  C   UNL     1       6.154   3.852  12.101  0.00  0.00    +0.000 A 
ATOM     29  C   UNL     1       7.206   4.750  11.943  0.00  0.00    +0.000 A 
ATOM     30  C   UNL     1       7.852   5.271  13.064  0.00  0.00    +0.000 A 
ATOM     31  C   UNL     1       7.461   4.876  14.345  0.00  0.00    +0.000 A 
ENDBRANCH  25  26
ENDBRANCH   6  25
TORSDOF 4
ENDMDL
MODEL 4
REMARK VINA RESULT:      -9.1      2.704      9.689
REMARK  Name = 
REMARK  5 active torsions:
REMARK  status: ('A' for Active; 'I' for Inactive)
REMARK    1  A    between atoms: C_1  and  N_2
REMARK    2  A    between atoms: C_4  and  C_5
REMARK    3  A    between atoms: C_10  and  O_11
REMARK    4  A    between atoms: O_11  and  C_12
REMARK    5  A    between atoms: N_20  and  C_21
REMARK                            x       y       z     vdW  Elec       q    Type
REMARK                         _______ _______ _______ _____ _____    ______ ____
ROOT
ATOM      1  C   UNL     1       2.081   7.992  19.149  0.00  0.00    +0.000 A 
ATOM      2  N   UNL     1       1.745   7.734  20.381  0.00  0.00    +0.000 NA
ATOM      3  C   UNL     1       1.063   8.729  21.098  0.00  0.00    +0.000 A 
ATOM      4  C   UNL     1       0.638   8.514  22.394  0.00  0.00    +0.000 A 
ATOM      5  N   UNL     1      -0.042   9.415  23.139  0.00  0.00    +0.000 NA
ATOM      6  C   UNL     1      -0.300  10.586  22.541  0.00  0.00    +0.000 A 
ATOM      7  N   UNL     1       0.104  10.924  21.307  0.00  0.00    +0.000 NA
ATOM      8  C   UNL     1       0.761   9.987  20.597  0.00  0.00    +0.000 A 
ATOM      9  N   UNL     1       1.124  10.286  19.262  0.00  0.00    +0.000 N 
ATOM     10  C   UNL     1       1.707   9.314  18.458  0.00  0.00    +0.000 A 
ATOM     11  O   UNL     1       1.908   9.448  17.255  0.00  0.00    +0.000 OA
ENDROOT
BRANCH   1  15
ATOM     12  C   UNL     1       5.508   5.924  16.209  0.00  0.00    +0.000 C 
ATOM     13  N   UNL     1       4.374   6.045  17.099  0.00  0.00    +0.000 N 
ATOM     14  C   UNL     1       3.976   7.210  17.690  0.00  0.00    +0.000 A 
ATOM     15  C   UNL     1       2.833   6.967  18.430  0.00  0.00    +0.000 A 
ATOM     16  C   UNL     1       2.558   5.565  18.305  0.00  0.00    +0.000 A 
ATOM     17  C   UNL     1       1.549   4.713  18.805  0.00  0.00    +0.000 A 
ATOM     18  C   UNL     1       1.529   3.364  18.433  0.00  0.00    +0.000 A 
ATOM     19  C   UNL     1       2.496   2.853  17.574  0.00  0.00    +0.000 A 
ATOM     20  C   UNL     1       3.511   3.668  17.070  0.00  0.00    +0.000 A 
ATOM     21  C   UNL     1       3.522   5.020  17.448  0.00  0.00    +0.000 A 
ENDBRANCH   1  15
BRANCH   9  22
ATOM     22  C   UNL     1       0.699  11.535  18.672  0.00  0.00    +0.000 C 
ATOM     23  C   UNL     1       0.579  12.820  19.454  0.00  0.00    +0.000 C 
ATOM     24  C   UNL     1       1.683  12.662  18.459  0.00  0.00    +0.000 C 
ENDBRANCH   9  22
BRANCH   6  25
ATOM     25  O   UNL     1      -1.052  11.493  23.275  0.00  0.00    +0.000 OA
BRANCH  25  26
ATOM     26  C   UNL     1      -1.533  12.604  22.614  0.00  0.00    +0.000 A 
ATOM     27  C   UNL     1      -2.721  12.608  21.873  0.00  0.00    +0.000 A 
ATOM     28  C   UNL     1      -3.147  13.771  21.233  0.00  0.00    +0.000 A 
ATOM     29  C   UNL     1      -2.413  14.948  21.368  0.00  0.00    +0.000 A 
ATOM     30  C   UNL     1      -1.254  14.961  22.143  0.00  0.00    +0.000 A 
ATOM     31  C   UNL     1      -0.814  13.790  22.767  0.00  0.00    +0.000 A 
ENDBRANCH  25  26
ENDBRANCH   6  25
TORSDOF 4
ENDMDL
MODEL 5
REMARK VINA RESULT:      -9.0      2.743      9.698
REMARK  Name = 
REMARK  5 active torsions:
REMARK  status: ('A' for Active; 'I' for Inactive)
REMARK    1  A    between atoms: C_1  and  N_2
REMARK    2  A    between atoms: C_4  and  C_5
REMARK    3  A    between atoms: C_10  and  O_11
REMARK    4  A    between atoms: O_11  and  C_12
REMARK    5  A    between atoms: N_20  and  C_21
REMARK                            x       y       z     vdW  Elec       q    Type
REMARK                         _______ _______ _______ _____ _____    ______ ____
ROOT
ATOM      1  C   UNL     1       1.871   8.050  19.220  0.00  0.00    +0.000 A 
ATOM      2  N   UNL     1       1.844   7.975  20.521  0.00  0.00    +0.000 NA
ATOM      3  C   UNL     1       1.098   8.938  21.219  0.00  0.00    +0.000 A 
ATOM      4  C   UNL     1       0.988   8.899  22.595  0.00  0.00    +0.000 A 
ATOM      5  N   UNL     1       0.271   9.776  23.333  0.00  0.00    +0.000 NA
ATOM      6  C   UNL     1      -0.360  10.735  22.643  0.00  0.00    +0.000 A 
ATOM      7  N   UNL     1      -0.288  10.900  21.314  0.00  0.00    +0.000 NA
ATOM      8  C   UNL     1       0.422   9.991  20.620  0.00  0.00    +0.000 A 
ATOM      9  N   UNL     1       0.446  10.090  19.208  0.00  0.00    +0.000 N 
ATOM     10  C   UNL     1       1.076   9.114  18.445  0.00  0.00    +0.000 A 
ATOM     11  O   UNL     1       1.008   9.049  17.221  0.00  0.00    +0.000 OA
ENDROOT
BRANCH   1  15
ATOM     12  C   UNL     1       5.460   6.191  16.336  0.00  0.00    +0.000 C 
ATOM     13  N   UNL     1       4.304   6.245  17.203  0.00  0.00    +0.000 N 
ATOM     14  C   UNL     1       3.833   7.381  17.795  0.00  0.00    +0.000 A 
ATOM     15  C   UNL     1       2.690   7.073  18.508  0.00  0.00    +0.000 A 
ATOM     16  C   UNL     1       2.491   5.659  18.367  0.00  0.00    +0.000 A 
ATOM     17  C   UNL     1       1.518   4.751  18.839  0.00  0.00    +0.000 A 
ATOM     18  C   UNL     1       1.576   3.407  18.455  0.00  0.00    +0.000 A 
ATOM     19  C   UNL     1       2.586   2.955  17.612  0.00  0.00    +0.000 A 
ATOM     20  C   UNL     1       3.567   3.826  17.136  0.00  0.00    +0.000 A 
ATOM     21  C   UNL     1       3.499   5.174  17.525  0.00  0.00    +0.000 A 
ENDBRANCH   1  15
BRANCH   9  22
ATOM     22  C   UNL     1      -0.362  11.093  18.552  0.00  0.00    +0.000 C 
ATOM     23  C   UNL     1      -1.499  10.758  17.619  0.00  0.00    +0.000 C 
ATOM     24  C   UNL     1      -1.796  11.324  18.970  0.00  0.00    +0.000 C 
ENDBRANCH   9  22
BRANCH   6  25
ATOM     25  O   UNL     1      -1.150  11.603  23.387  0.00  0.00    +0.000 OA
BRANCH  25  26
ATOM     26  C   UNL     1      -1.898  12.532  22.696  0.00  0.00    +0.000 A 
ATOM     27  C   UNL     1      -3.265  12.382  22.431  0.00  0.00    +0.000 A 
ATOM     28  C   UNL     1      -3.958  13.367  21.729  0.00  0.00    +0.000 A 
ATOM     29  C   UNL     1      -3.301  14.528  21.328  0.00  0.00    +0.000 A 
ATOM     30  C   UNL     1      -1.951  14.704  21.630  0.00  0.00    +0.000 A 
ATOM     31  C   UNL     1      -1.250  13.708  22.315  0.00  0.00    +0.000 A 
ENDBRANCH  25  26
ENDBRANCH   6  25
TORSDOF 4
ENDMDL
MODEL 6
REMARK VINA RESULT:      -9.0      1.050      2.222
REMARK  Name = 
REMARK  5 active torsions:
REMARK  status: ('A' for Active; 'I' for Inactive)
REMARK    1  A    between atoms: C_1  and  N_2
REMARK    2  A    between atoms: C_4  and  C_5
REMARK    3  A    between atoms: C_10  and  O_11
REMARK    4  A    between atoms: O_11  and  C_12
REMARK    5  A    between atoms: N_20  and  C_21
REMARK                            x       y       z     vdW  Elec       q    Type
REMARK                         _______ _______ _______ _____ _____    ______ ____
ROOT
ATOM      1  C   UNL     1       2.138   7.906  18.883  0.00  0.00    +0.000 A 
ATOM      2  N   UNL     1       2.874   8.177  17.842  0.00  0.00    +0.000 NA
ATOM      3  C   UNL     1       3.844   7.236  17.462  0.00  0.00    +0.000 A 
ATOM      4  C   UNL     1       4.633   7.434  16.346  0.00  0.00    +0.000 A 
ATOM      5  N   UNL     1       5.571   6.565  15.905  0.00  0.00    +0.000 NA
ATOM      6  C   UNL     1       5.714   5.448  16.631  0.00  0.00    +0.000 A 
ATOM      7  N   UNL     1       5.039   5.172  17.757  0.00  0.00    +0.000 NA
ATOM      8  C   UNL     1       4.102   6.057  18.145  0.00  0.00    +0.000 A 
ATOM      9  N   UNL     1       3.316   5.751  19.281  0.00  0.00    +0.000 N 
ATOM     10  C   UNL     1       2.267   6.583  19.656  0.00  0.00    +0.000 A 
ATOM     11  O   UNL     1       1.450   6.308  20.529  0.00  0.00    +0.000 OA
ENDROOT
BRANCH   1  15
ATOM     12  C   UNL     1      -1.075  11.682  18.600  0.00  0.00    +0.000 C 
ATOM     13  N   UNL     1      -0.272  10.619  19.164  0.00  0.00    +0.000 N 
ATOM     14  C   UNL     1       0.503   9.765  18.433  0.00  0.00    +0.000 A 
ATOM     15  C   UNL     1       1.166   8.915  19.298  0.00  0.00    +0.000 A 
ATOM     16  C   UNL     1       0.728   9.256  20.621  0.00  0.00    +0.000 A 
ATOM     17  C   UNL     1       1.032   8.774  21.913  0.00  0.00    +0.000 A 
ATOM     18  C   UNL     1       0.464   9.386  23.036  0.00  0.00    +0.000 A 
ATOM     19  C   UNL     1      -0.399  10.466  22.892  0.00  0.00    +0.000 A 
ATOM     20  C   UNL     1      -0.726  10.961  21.628  0.00  0.00    +0.000 A 
ATOM     21  C   UNL     1      -0.150  10.341  20.507  0.00  0.00    +0.000 A 
ENDBRANCH   1  15
BRANCH   9  22
ATOM     22  C   UNL     1       3.469   4.467  19.928  0.00  0.00    +0.000 C 
ATOM     23  C   UNL     1       2.381   3.820  20.747  0.00  0.00    +0.000 C 
ATOM     24  C   UNL     1       2.736   3.251  19.412  0.00  0.00    +0.000 C 
ENDBRANCH   9  22
BRANCH   6  25
ATOM     25  O   UNL     1       6.630   4.521  16.151  0.00  0.00    +0.000 OA
BRANCH  25  26
ATOM     26  C   UNL     1       6.734   4.379  14.783  0.00  0.00    +0.000 A 
ATOM     27  C   UNL     1       5.886   3.564  14.024  0.00  0.00    +0.000 A 
ATOM     28  C   UNL     1       6.049   3.472  12.642  0.00  0.00    +0.000 A 
ATOM     29  C   UNL     1       7.029   4.231  12.006  0.00  0.00    +0.000 A 
ATOM     30  C   UNL     1       7.846   5.081  12.752  0.00  0.00    +0.000 A 
ATOM     31  C   UNL     1       7.698   5.156  14.139  0.00  0.00    +0.000 A 
ENDBRANCH  25  26
ENDBRANCH   6  25
TORSDOF 4
ENDMDL
MODEL 7
REMARK VINA RESULT:      -8.9      2.674      9.603
REMARK  Name = 
REMARK  5 active torsions:
REMARK  status: ('A' for Active; 'I' for Inactive)
REMARK    1  A    between atoms: C_1  and  N_2
REMARK    2  A    between atoms: C_4  and  C_5
REMARK    3  A    between atoms: C_10  and  O_11
REMARK    4  A    between atoms: O_11  and  C_12
REMARK    5  A    between atoms: N_20  and  C_21
REMARK                            x       y       z     vdW  Elec       q    Type
REMARK                         _______ _______ _______ _____ _____    ______ ____
ROOT
ATOM      1  C   UNL     1       2.080   7.577  19.042  0.00  0.00    +0.000 A 
ATOM      2  N   UNL     1       1.681   7.441  20.275  0.00  0.00    +0.000 NA
ATOM      3  C   UNL     1       1.161   8.571  20.925  0.00  0.00    +0.000 A 
ATOM      4  C   UNL     1       0.680   8.495  22.218  0.00  0.00    +0.000 A 
ATOM      5  N   UNL     1       0.145   9.532  22.901  0.00  0.00    +0.000 NA
ATOM      6  C   UNL     1       0.098  10.698  22.242  0.00  0.00    +0.000 A 
ATOM      7  N   UNL     1       0.577  10.901  21.006  0.00  0.00    +0.000 NA
ATOM      8  C   UNL     1       1.083   9.835  20.359  0.00  0.00    +0.000 A 
ATOM      9  N   UNL     1       1.516  10.001  19.022  0.00  0.00    +0.000 N 
ATOM     10  C   UNL     1       1.945   8.907  18.281  0.00  0.00    +0.000 A 
ATOM     11  O   UNL     1       2.189   8.945  17.078  0.00  0.00    +0.000 OA
ENDROOT
BRANCH   1  15
ATOM     12  C   UNL     1       2.607   2.903  17.452  0.00  0.00    +0.000 C 
ATOM     13  N   UNL     1       2.898   4.300  17.687  0.00  0.00    +0.000 N 
ATOM     14  C   UNL     1       2.042   5.177  18.287  0.00  0.00    +0.000 A 
ATOM     15  C   UNL     1       2.665   6.407  18.392  0.00  0.00    +0.000 A 
ATOM     16  C   UNL     1       3.954   6.264  17.780  0.00  0.00    +0.000 A 
ATOM     17  C   UNL     1       5.047   7.134  17.575  0.00  0.00    +0.000 A 
ATOM     18  C   UNL     1       6.221   6.651  16.985  0.00  0.00    +0.000 A 
ATOM     19  C   UNL     1       6.320   5.320  16.597  0.00  0.00    +0.000 A 
ATOM     20  C   UNL     1       5.254   4.437  16.778  0.00  0.00    +0.000 A 
ATOM     21  C   UNL     1       4.081   4.930  17.372  0.00  0.00    +0.000 A 
ENDBRANCH   1  15
BRANCH   9  22
ATOM     22  C   UNL     1       1.318  11.272  18.363  0.00  0.00    +0.000 C 
ATOM     23  C   UNL     1       1.458  12.599  19.067  0.00  0.00    +0.000 C 
ATOM     24  C   UNL     1       2.489  12.181  18.070  0.00  0.00    +0.000 C 
ENDBRANCH   9  22
BRANCH   6  25
ATOM     25  O   UNL     1      -0.507  11.753  22.912  0.00  0.00    +0.000 OA
BRANCH  25  26
ATOM     26  C   UNL     1      -1.750  12.156  22.474  0.00  0.00    +0.000 A 
ATOM     27  C   UNL     1      -2.045  12.436  21.134  0.00  0.00    +0.000 A 
ATOM     28  C   UNL     1      -3.328  12.836  20.764  0.00  0.00    +0.000 A 
ATOM     29  C   UNL     1      -4.335  12.914  21.723  0.00  0.00    +0.000 A 
ATOM     30  C   UNL     1      -4.060  12.591  23.051  0.00  0.00    +0.000 A 
ATOM     31  C   UNL     1      -2.769  12.211  23.427  0.00  0.00    +0.000 A 
ENDBRANCH  25  26
ENDBRANCH   6  25
TORSDOF 4
ENDMDL
MODEL 8
REMARK VINA RESULT:      -8.8      2.777      9.598
REMARK  Name = 
REMARK  5 active torsions:
REMARK  status: ('A' for Active; 'I' for Inactive)
REMARK    1  A    between atoms: C_1  and  N_2
REMARK    2  A    between atoms: C_4  and  C_5
REMARK    3  A    between atoms: C_10  and  O_11
REMARK    4  A    between atoms: O_11  and  C_12
REMARK    5  A    between atoms: N_20  and  C_21
REMARK                            x       y       z     vdW  Elec       q    Type
REMARK                         _______ _______ _______ _____ _____    ______ ____
ROOT
ATOM      1  C   UNL     1       1.849   7.876  19.697  0.00  0.00    +0.000 A 
ATOM      2  N   UNL     1       1.440   7.862  20.934  0.00  0.00    +0.000 NA
ATOM      3  C   UNL     1       0.870   9.037  21.450  0.00  0.00    +0.000 A 
ATOM      4  C   UNL     1       0.377   9.086  22.740  0.00  0.00    +0.000 A 
ATOM      5  N   UNL     1      -0.204  10.171  23.298  0.00  0.00    +0.000 NA
ATOM      6  C   UNL     1      -0.287  11.254  22.513  0.00  0.00    +0.000 A 
ATOM      7  N   UNL     1       0.199  11.337  21.266  0.00  0.00    +0.000 NA
ATOM      8  C   UNL     1       0.752  10.226  20.746  0.00  0.00    +0.000 A 
ATOM      9  N   UNL     1       1.195  10.259  19.402  0.00  0.00    +0.000 N 
ATOM     10  C   UNL     1       1.674   9.107  18.791  0.00  0.00    +0.000 A 
ATOM     11  O   UNL     1       1.930   9.020  17.593  0.00  0.00    +0.000 OA
ENDROOT
BRANCH   1  15
ATOM     12  C   UNL     1       4.794   4.948  16.974  0.00  0.00    +0.000 C 
ATOM     13  N   UNL     1       3.808   5.353  17.952  0.00  0.00    +0.000 N 
ATOM     14  C   UNL     1       3.502   6.650  18.249  0.00  0.00    +0.000 A 
ATOM     15  C   UNL     1       2.485   6.665  19.186  0.00  0.00    +0.000 A 
ATOM     16  C   UNL     1       2.195   5.294  19.494  0.00  0.00    +0.000 A 
ATOM     17  C   UNL     1       1.275   4.652  20.352  0.00  0.00    +0.000 A 
ATOM     18  C   UNL     1       1.201   3.255  20.372  0.00  0.00    +0.000 A 
ATOM     19  C   UNL     1       2.027   2.490  19.556  0.00  0.00    +0.000 A 
ATOM     20  C   UNL     1       2.953   3.095  18.704  0.00  0.00    +0.000 A 
ATOM     21  C   UNL     1       3.019   4.498  18.689  0.00  0.00    +0.000 A 
ENDBRANCH   1  15
BRANCH   9  22
ATOM     22  C   UNL     1       0.956  11.440  18.604  0.00  0.00    +0.000 C 
ATOM     23  C   UNL     1       1.038  12.842  19.156  0.00  0.00    +0.000 C 
ATOM     24  C   UNL     1       2.097  12.355  18.220  0.00  0.00    +0.000 C 
ENDBRANCH   9  22
BRANCH   6  25
ATOM     25  O   UNL     1      -0.939  12.354  23.057  0.00  0.00    +0.000 OA
BRANCH  25  26
ATOM     26  C   UNL     1      -0.944  13.519  22.320  0.00  0.00    +0.000 A 
ATOM     27  C   UNL     1       0.089  14.463  22.357  0.00  0.00    +0.000 A 
ATOM     28  C   UNL     1       0.015  15.618  21.580  0.00  0.00    +0.000 A 
ATOM     29  C   UNL     1      -1.068  15.814  20.727  0.00  0.00    +0.000 A 
ATOM     30  C   UNL     1      -2.077  14.854  20.650  0.00  0.00    +0.000 A 
ATOM     31  C   UNL     1      -2.015  13.707  21.444  0.00  0.00    +0.000 A 
ENDBRANCH  25  26
ENDBRANCH   6  25
TORSDOF 4
ENDMDL
MODEL 9
REMARK VINA RESULT:      -8.8      4.176      7.652
REMARK  Name = 
REMARK  5 active torsions:
REMARK  status: ('A' for Active; 'I' for Inactive)
REMARK    1  A    between atoms: C_1  and  N_2
REMARK    2  A    between atoms: C_4  and  C_5
REMARK    3  A    between atoms: C_10  and  O_11
REMARK    4  A    between atoms: O_11  and  C_12
REMARK    5  A    between atoms: N_20  and  C_21
REMARK                            x       y       z     vdW  Elec       q    Type
REMARK                         _______ _______ _______ _____ _____    ______ ____
ROOT
ATOM      1  C   UNL     1      -1.787  11.886  21.981  0.00  0.00    +0.000 A 
ATOM      2  N   UNL     1      -1.018  11.066  22.640  0.00  0.00    +0.000 NA
ATOM      3  C   UNL     1      -0.185  10.212  21.902  0.00  0.00    +0.000 A 
ATOM      4  C   UNL     1       0.688   9.344  22.529  0.00  0.00    +0.000 A 
ATOM      5  N   UNL     1       1.535   8.509  21.887  0.00  0.00    +0.000 NA
ATOM      6  C   UNL     1       1.492   8.555  20.549  0.00  0.00    +0.000 A 
ATOM      7  N   UNL     1       0.654   9.320  19.833  0.00  0.00    +0.000 NA
ATOM      8  C   UNL     1      -0.157  10.149  20.516  0.00  0.00    +0.000 A 
ATOM      9  N   UNL     1      -0.990  11.029  19.785  0.00  0.00    +0.000 N 
ATOM     10  C   UNL     1      -1.764  11.976  20.447  0.00  0.00    +0.000 A 
ATOM     11  O   UNL     1      -2.389  12.868  19.881  0.00  0.00    +0.000 OA
ENDROOT
BRANCH   1  15
ATOM     12  C   UNL     1      -6.000  13.810  23.773  0.00  0.00    +0.000 C 
ATOM     13  N   UNL     1      -4.586  13.601  23.555  0.00  0.00    +0.000 N 
ATOM     14  C   UNL     1      -4.062  12.604  22.784  0.00  0.00    +0.000 A 
ATOM     15  C   UNL     1      -2.685  12.735  22.760  0.00  0.00    +0.000 A 
ATOM     16  C   UNL     1      -2.368  13.855  23.599  0.00  0.00    +0.000 A 
ATOM     17  C   UNL     1      -1.166  14.493  23.975  0.00  0.00    +0.000 A 
ATOM     18  C   UNL     1      -1.207  15.635  24.781  0.00  0.00    +0.000 A 
ATOM     19  C   UNL     1      -2.422  16.149  25.219  0.00  0.00    +0.000 A 
ATOM     20  C   UNL     1      -3.628  15.535  24.872  0.00  0.00    +0.000 A 
ATOM     21  C   UNL     1      -3.577  14.390  24.061  0.00  0.00    +0.000 A 
ENDBRANCH   1  15
BRANCH   9  22
ATOM     22  C   UNL     1      -0.879  11.083  18.346  0.00  0.00    +0.000 C 
ATOM     23  C   UNL     1      -1.335   9.967  17.439  0.00  0.00    +0.000 C 
ATOM     24  C   UNL     1      -2.109  11.245  17.482  0.00  0.00    +0.000 C 
ENDBRANCH   9  22
BRANCH   6  25
ATOM     25  O   UNL     1       2.402   7.746  19.881  0.00  0.00    +0.000 OA
BRANCH  25  26
ATOM     26  C   UNL     1       2.049   6.430  19.669  0.00  0.00    +0.000 A 
ATOM     27  C   UNL     1       1.506   5.606  20.662  0.00  0.00    +0.000 A 
ATOM     28  C   UNL     1       1.168   4.284  20.373  0.00  0.00    +0.000 A 
ATOM     29  C   UNL     1       1.328   3.793  19.079  0.00  0.00    +0.000 A 
ATOM     30  C   UNL     1       1.824   4.624  18.075  0.00  0.00    +0.000 A 
ATOM     31  C   UNL     1       2.183   5.942  18.369  0.00  0.00    +0.000 A 
ENDBRANCH  25  26
ENDBRANCH   6  25
TORSDOF 4
ENDMDL
