MODEL 1
REMARK VINA RESULT:      -8.1      0.000      0.000
REMARK  Name = 
REMARK  3 active torsions:
REMARK  status: ('A' for Active; 'I' for Inactive)
REMARK    1  A    between atoms: N_2  and  C_4
REMARK    2  A    between atoms: C_6  and  O_7
REMARK    3  A    between atoms: C_10  and  C_11
REMARK                            x       y       z     vdW  Elec       q    Type
REMARK                         _______ _______ _______ _____ _____    ______ ____
ROOT
ATOM      1  C   UNL     1       0.437   9.611  21.581  0.00  0.00    +0.000 A 
ATOM      2  C   UNL     1       0.201  10.445  20.480  0.00  0.00    +0.000 A 
ATOM      3  C   UNL     1       0.735  10.108  19.239  0.00  0.00    +0.000 A 
ATOM      4  C   UNL     1       1.500   8.935  19.101  0.00  0.00    +0.000 A 
ATOM      5  C   UNL     1       2.175   8.325  18.014  0.00  0.00    +0.000 A 
ATOM      6  C   UNL     1       2.766   7.157  18.459  0.00  0.00    +0.000 A 
ATOM      7  N   UNL     1       2.474   7.056  19.800  0.00  0.00    +0.000 N 
ATOM      8  C   UNL     1       1.709   8.121  20.216  0.00  0.00    +0.000 A 
ATOM      9  C   UNL     1       1.193   8.429  21.479  0.00  0.00    +0.000 A 
ATOM     10  H   UNL     1       2.791   6.310  20.403  0.00  0.00    +0.000 HD
ENDROOT
BRANCH   6  11
ATOM     11  C   UNL     1       3.559   6.176  17.727  0.00  0.00    +0.000 A 
ATOM     12  C   UNL     1       4.616   6.607  16.911  0.00  0.00    +0.000 A 
ATOM     13  C   UNL     1       5.357   5.687  16.171  0.00  0.00    +0.000 A 
ATOM     14  C   UNL     1       5.039   4.340  16.247  0.00  0.00    +0.000 A 
ATOM     15  F   UNL     1       5.739   3.456  15.523  0.00  0.00    +0.000 F 
ATOM     16  C   UNL     1       3.999   3.889  17.052  0.00  0.00    +0.000 A 
ATOM     17  C   UNL     1       3.259   4.809  17.795  0.00  0.00    +0.000 A 
ENDBRANCH   6  11
BRANCH   1  19
ATOM     18  O   UNL     1      -1.166  10.643  22.902  0.00  0.00    +0.000 OA
ATOM     19  N   UNL     1      -0.116   9.985  22.889  0.00  0.00    +0.000 N 
ATOM     20  O   UNL     1       0.499   9.623  23.901  0.00  0.00    +0.000 OA
ENDBRANCH   1  19
BRANCH   3  21
ATOM     21  O   UNL     1       0.527  10.906  18.144  0.00  0.00    +0.000 OA
ATOM     22  H   UNL     1       1.273  10.813  17.529  0.00  0.00    +0.000 HD
ENDBRANCH   3  21
TORSDOF 3
ENDMDL
MODEL 2
REMARK VINA RESULT:      -8.0      0.122      1.088
REMARK  Name = 
REMARK  3 active torsions:
REMARK  status: ('A' for Active; 'I' for Inactive)
REMARK    1  A    between atoms: N_2  and  C_4
REMARK    2  A    between atoms: C_6  and  O_7
REMARK    3  A    between atoms: C_10  and  C_11
REMARK                            x       y       z     vdW  Elec       q    Type
REMARK                         _______ _______ _______ _____ _____    ______ ____
ROOT
ATOM      1  C   UNL     1       0.365   9.664  21.610  0.00  0.00    +0.000 A 
ATOM      2  C   UNL     1       0.116  10.496  20.511  0.00  0.00    +0.000 A 
ATOM      3  C   UNL     1       0.644  10.164  19.265  0.00  0.00    +0.000 A 
ATOM      4  C   UNL     1       1.417   8.996  19.122  0.00  0.00    +0.000 A 
ATOM      5  C   UNL     1       2.089   8.392  18.030  0.00  0.00    +0.000 A 
ATOM      6  C   UNL     1       2.691   7.228  18.470  0.00  0.00    +0.000 A 
ATOM      7  N   UNL     1       2.409   7.124  19.813  0.00  0.00    +0.000 N 
ATOM      8  C   UNL     1       1.639   8.183  20.235  0.00  0.00    +0.000 A 
ATOM      9  C   UNL     1       1.129   8.487  21.501  0.00  0.00    +0.000 A 
ATOM     10  H   UNL     1       2.735   6.380  20.414  0.00  0.00    +0.000 HD
ENDROOT
BRANCH   6  11
ATOM     11  C   UNL     1       3.486   6.254  17.733  0.00  0.00    +0.000 A 
ATOM     12  C   UNL     1       3.158   4.891  17.804  0.00  0.00    +0.000 A 
ATOM     13  C   UNL     1       3.932   3.942  17.140  0.00  0.00    +0.000 A 
ATOM     14  C   UNL     1       5.035   4.356  16.407  0.00  0.00    +0.000 A 
ATOM     15  F   UNL     1       5.791   3.443  15.782  0.00  0.00    +0.000 F 
ATOM     16  C   UNL     1       5.376   5.700  16.318  0.00  0.00    +0.000 A 
ATOM     17  C   UNL     1       4.600   6.651  16.980  0.00  0.00    +0.000 A 
ENDBRANCH   6  11
BRANCH   1  19
ATOM     18  O   UNL     1      -1.212  10.721  22.941  0.00  0.00    +0.000 OA
ATOM     19  N   UNL     1      -0.181  10.033  22.921  0.00  0.00    +0.000 N 
ATOM     20  O   UNL     1       0.419   9.637  23.929  0.00  0.00    +0.000 OA
ENDBRANCH   1  19
BRANCH   3  21
ATOM     21  O   UNL     1       0.423  10.961  18.173  0.00  0.00    +0.000 OA
ATOM     22  H   UNL     1      -0.508  11.237  18.157  0.00  0.00    +0.000 HD
ENDBRANCH   3  21
TORSDOF 3
ENDMDL
MODEL 3
REMARK VINA RESULT:      -7.9      4.898      8.000
REMARK  Name = 
REMARK  3 active torsions:
REMARK  status: ('A' for Active; 'I' for Inactive)
REMARK    1  A    between atoms: N_2  and  C_4
REMARK    2  A    between atoms: C_6  and  O_7
REMARK    3  A    between atoms: C_10  and  C_11
REMARK                            x       y       z     vdW  Elec       q    Type
REMARK                         _______ _______ _______ _____ _____    ______ ____
ROOT
ATOM      1  C   UNL     1       5.902   4.935  15.435  0.00  0.00    +0.000 A 
ATOM      2  C   UNL     1       5.597   3.794  16.189  0.00  0.00    +0.000 A 
ATOM      3  C   UNL     1       4.713   3.898  17.261  0.00  0.00    +0.000 A 
ATOM      4  C   UNL     1       4.134   5.142  17.573  0.00  0.00    +0.000 A 
ATOM      5  C   UNL     1       3.231   5.581  18.573  0.00  0.00    +0.000 A 
ATOM      6  C   UNL     1       2.994   6.931  18.394  0.00  0.00    +0.000 A 
ATOM      7  N   UNL     1       3.750   7.322  17.312  0.00  0.00    +0.000 N 
ATOM      8  C   UNL     1       4.452   6.257  16.796  0.00  0.00    +0.000 A 
ATOM      9  C   UNL     1       5.338   6.193  15.716  0.00  0.00    +0.000 A 
ATOM     10  H   UNL     1       3.798   8.265  16.954  0.00  0.00    +0.000 HD
ENDROOT
BRANCH   6  11
ATOM     11  C   UNL     1       2.139   7.836  19.153  0.00  0.00    +0.000 A 
ATOM     12  C   UNL     1       1.786   7.516  20.472  0.00  0.00    +0.000 A 
ATOM     13  C   UNL     1       0.935   8.347  21.198  0.00  0.00    +0.000 A 
ATOM     14  C   UNL     1       0.437   9.497  20.603  0.00  0.00    +0.000 A 
ATOM     15  F   UNL     1      -0.394  10.289  21.293  0.00  0.00    +0.000 F 
ATOM     16  C   UNL     1       0.777   9.837  19.299  0.00  0.00    +0.000 A 
ATOM     17  C   UNL     1       1.631   9.007  18.573  0.00  0.00    +0.000 A 
ENDBRANCH   6  11
BRANCH   1  19
ATOM     18  O   UNL     1       6.554   4.045  13.395  0.00  0.00    +0.000 OA
ATOM     19  N   UNL     1       6.848   4.818  14.319  0.00  0.00    +0.000 N 
ATOM     20  O   UNL     1       7.884   5.496  14.366  0.00  0.00    +0.000 OA
ENDBRANCH   1  19
BRANCH   3  21
ATOM     21  O   UNL     1       4.400   2.802  18.022  0.00  0.00    +0.000 OA
ATOM     22  H   UNL     1       3.545   2.442  17.734  0.00  0.00    +0.000 HD
ENDBRANCH   3  21
TORSDOF 3
ENDMDL
MODEL 4
REMARK VINA RESULT:      -7.8      4.910      7.949
REMARK  Name = 
REMARK  3 active torsions:
REMARK  status: ('A' for Active; 'I' for Inactive)
REMARK    1  A    between atoms: N_2  and  C_4
REMARK    2  A    between atoms: C_6  and  O_7
REMARK    3  A    between atoms: C_10  and  C_11
REMARK                            x       y       z     vdW  Elec       q    Type
REMARK                         _______ _______ _______ _____ _____    ______ ____
ROOT
ATOM      1  C   UNL     1       5.898   4.925  15.416  0.00  0.00    +0.000 A 
ATOM      2  C   UNL     1       5.525   3.761  16.100  0.00  0.00    +0.000 A 
ATOM      3  C   UNL     1       4.609   3.845  17.146  0.00  0.00    +0.000 A 
ATOM      4  C   UNL     1       4.066   5.094  17.502  0.00  0.00    +0.000 A 
ATOM      5  C   UNL     1       3.145   5.518  18.493  0.00  0.00    +0.000 A 
ATOM      6  C   UNL     1       2.966   6.883  18.376  0.00  0.00    +0.000 A 
ATOM      7  N   UNL     1       3.773   7.298  17.341  0.00  0.00    +0.000 N 
ATOM      8  C   UNL     1       4.452   6.234  16.794  0.00  0.00    +0.000 A 
ATOM      9  C   UNL     1       5.372   6.189  15.742  0.00  0.00    +0.000 A 
ATOM     10  H   UNL     1       3.868   8.255  17.034  0.00  0.00    +0.000 HD
ENDROOT
BRANCH   6  11
ATOM     11  C   UNL     1       2.120   7.782  19.152  0.00  0.00    +0.000 A 
ATOM     12  C   UNL     1       1.654   8.972  18.573  0.00  0.00    +0.000 A 
ATOM     13  C   UNL     1       0.879   9.863  19.313  0.00  0.00    +0.000 A 
ATOM     14  C   UNL     1       0.573   9.563  20.632  0.00  0.00    +0.000 A 
ATOM     15  F   UNL     1      -0.157  10.426  21.351  0.00  0.00    +0.000 F 
ATOM     16  C   UNL     1       1.019   8.389  21.226  0.00  0.00    +0.000 A 
ATOM     17  C   UNL     1       1.792   7.495  20.484  0.00  0.00    +0.000 A 
ENDBRANCH   6  11
BRANCH   1  19
ATOM     18  O   UNL     1       6.643   4.023  13.413  0.00  0.00    +0.000 OA
ATOM     19  N   UNL     1       6.877   4.828  14.326  0.00  0.00    +0.000 N 
ATOM     20  O   UNL     1       7.880   5.553  14.384  0.00  0.00    +0.000 OA
ENDBRANCH   1  19
BRANCH   3  21
ATOM     21  O   UNL     1       4.228   2.726  17.839  0.00  0.00    +0.000 OA
ATOM     22  H   UNL     1       4.090   1.992  17.217  0.00  0.00    +0.000 HD
ENDBRANCH   3  21
TORSDOF 3
ENDMDL
MODEL 5
REMARK VINA RESULT:      -7.7      6.041      8.394
REMARK  Name = 
REMARK  3 active torsions:
REMARK  status: ('A' for Active; 'I' for Inactive)
REMARK    1  A    between atoms: N_2  and  C_4
REMARK    2  A    between atoms: C_6  and  O_7
REMARK    3  A    between atoms: C_10  and  C_11
REMARK                            x       y       z     vdW  Elec       q    Type
REMARK                         _______ _______ _______ _____ _____    ______ ____
ROOT
ATOM      1  C   UNL     1       6.515   4.471  14.386  0.00  0.00    +0.000 A 
ATOM      2  C   UNL     1       7.301   5.326  15.169  0.00  0.00    +0.000 A 
ATOM      3  C   UNL     1       6.973   5.524  16.509  0.00  0.00    +0.000 A 
ATOM      4  C   UNL     1       5.861   4.861  17.062  0.00  0.00    +0.000 A 
ATOM      5  C   UNL     1       5.266   4.849  18.348  0.00  0.00    +0.000 A 
ATOM      6  C   UNL     1       4.180   3.993  18.325  0.00  0.00    +0.000 A 
ATOM      7  N   UNL     1       4.098   3.498  17.044  0.00  0.00    +0.000 N 
ATOM      8  C   UNL     1       5.104   4.008  16.257  0.00  0.00    +0.000 A 
ATOM      9  C   UNL     1       5.400   3.790  14.907  0.00  0.00    +0.000 A 
ATOM     10  H   UNL     1       3.386   2.859  16.719  0.00  0.00    +0.000 HD
ENDROOT
BRANCH   6  11
ATOM     11  C   UNL     1       3.254   3.635  19.392  0.00  0.00    +0.000 A 
ATOM     12  C   UNL     1       3.689   2.817  20.446  0.00  0.00    +0.000 A 
ATOM     13  C   UNL     1       2.806   2.430  21.452  0.00  0.00    +0.000 A 
ATOM     14  C   UNL     1       1.489   2.859  21.402  0.00  0.00    +0.000 A 
ATOM     15  F   UNL     1       0.633   2.474  22.359  0.00  0.00    +0.000 F 
ATOM     16  C   UNL     1       1.035   3.674  20.371  0.00  0.00    +0.000 A 
ATOM     17  C   UNL     1       1.920   4.064  19.366  0.00  0.00    +0.000 A 
ENDBRANCH   6  11
BRANCH   1  19
ATOM     18  O   UNL     1       7.697   5.052  12.477  0.00  0.00    +0.000 OA
ATOM     19  N   UNL     1       6.859   4.284  12.971  0.00  0.00    +0.000 N 
ATOM     20  O   UNL     1       6.291   3.372  12.354  0.00  0.00    +0.000 OA
ENDBRANCH   1  19
BRANCH   3  21
ATOM     21  O   UNL     1       7.719   6.359  17.299  0.00  0.00    +0.000 OA
ATOM     22  H   UNL     1       7.402   6.305  18.215  0.00  0.00    +0.000 HD
ENDBRANCH   3  21
TORSDOF 3
ENDMDL
MODEL 6
REMARK VINA RESULT:      -7.7      6.089      8.338
REMARK  Name = 
REMARK  3 active torsions:
REMARK  status: ('A' for Active; 'I' for Inactive)
REMARK    1  A    between atoms: N_2  and  C_4
REMARK    2  A    between atoms: C_6  and  O_7
REMARK    3  A    between atoms: C_10  and  C_11
REMARK                            x       y       z     vdW  Elec       q    Type
REMARK                         _______ _______ _______ _____ _____    ______ ____
ROOT
ATOM      1  C   UNL     1       6.640   4.673  14.549  0.00  0.00    +0.000 A 
ATOM      2  C   UNL     1       7.437   5.437  15.411  0.00  0.00    +0.000 A 
ATOM      3  C   UNL     1       7.096   5.528  16.759  0.00  0.00    +0.000 A 
ATOM      4  C   UNL     1       5.961   4.851  17.241  0.00  0.00    +0.000 A 
ATOM      5  C   UNL     1       5.349   4.745  18.515  0.00  0.00    +0.000 A 
ATOM      6  C   UNL     1       4.242   3.923  18.407  0.00  0.00    +0.000 A 
ATOM      7  N   UNL     1       4.164   3.541  17.088  0.00  0.00    +0.000 N 
ATOM      8  C   UNL     1       5.194   4.090  16.358  0.00  0.00    +0.000 A 
ATOM      9  C   UNL     1       5.502   3.979  14.998  0.00  0.00    +0.000 A 
ATOM     10  H   UNL     1       3.441   2.951  16.701  0.00  0.00    +0.000 HD
ENDROOT
BRANCH   6  11
ATOM     11  C   UNL     1       3.293   3.500  19.430  0.00  0.00    +0.000 A 
ATOM     12  C   UNL     1       1.963   3.942  19.369  0.00  0.00    +0.000 A 
ATOM     13  C   UNL     1       1.052   3.583  20.361  0.00  0.00    +0.000 A 
ATOM     14  C   UNL     1       1.474   2.783  21.413  0.00  0.00    +0.000 A 
ATOM     15  F   UNL     1       0.604   2.450  22.377  0.00  0.00    +0.000 F 
ATOM     16  C   UNL     1       2.785   2.330  21.492  0.00  0.00    +0.000 A 
ATOM     17  C   UNL     1       3.696   2.687  20.498  0.00  0.00    +0.000 A 
ENDBRANCH   6  11
BRANCH   1  19
ATOM     18  O   UNL     1       6.453   3.719  12.444  0.00  0.00    +0.000 OA
ATOM     19  N   UNL     1       6.998   4.597  13.128  0.00  0.00    +0.000 N 
ATOM     20  O   UNL     1       7.824   5.414  12.696  0.00  0.00    +0.000 OA
ENDBRANCH   1  19
BRANCH   3  21
ATOM     21  O   UNL     1       7.852   6.274  17.626  0.00  0.00    +0.000 OA
ATOM     22  H   UNL     1       7.281   6.907  18.091  0.00  0.00    +0.000 HD
ENDBRANCH   3  21
TORSDOF 3
ENDMDL
MODEL 7
REMARK VINA RESULT:      -7.7      4.149      5.470
REMARK  Name = 
REMARK  3 active torsions:
REMARK  status: ('A' for Active; 'I' for Inactive)
REMARK    1  A    between atoms: N_2  and  C_4
REMARK    2  A    between atoms: C_6  and  O_7
REMARK    3  A    between atoms: C_10  and  C_11
REMARK                            x       y       z     vdW  Elec       q    Type
REMARK                         _______ _______ _______ _____ _____    ______ ____
ROOT
ATOM      1  C   UNL     1       2.791   3.543  20.268  0.00  0.00    +0.000 A 
ATOM      2  C   UNL     1       2.552   4.922  20.224  0.00  0.00    +0.000 A 
ATOM      3  C   UNL     1       3.034   5.667  19.150  0.00  0.00    +0.000 A 
ATOM      4  C   UNL     1       3.750   5.028  18.120  0.00  0.00    +0.000 A 
ATOM      5  C   UNL     1       4.367   5.480  16.927  0.00  0.00    +0.000 A 
ATOM      6  C   UNL     1       4.928   4.395  16.280  0.00  0.00    +0.000 A 
ATOM      7  N   UNL     1       4.674   3.295  17.067  0.00  0.00    +0.000 N 
ATOM      8  C   UNL     1       3.963   3.650  18.190  0.00  0.00    +0.000 A 
ATOM      9  C   UNL     1       3.499   2.871  19.254  0.00  0.00    +0.000 A 
ATOM     10  H   UNL     1       4.982   2.355  16.859  0.00  0.00    +0.000 HD
ENDROOT
BRANCH   6  11
ATOM     11  C   UNL     1       5.660   4.337  15.021  0.00  0.00    +0.000 A 
ATOM     12  C   UNL     1       6.876   5.025  14.892  0.00  0.00    +0.000 A 
ATOM     13  C   UNL     1       7.569   5.016  13.682  0.00  0.00    +0.000 A 
ATOM     14  C   UNL     1       7.043   4.322  12.603  0.00  0.00    +0.000 A 
ATOM     15  F   UNL     1       7.698   4.326  11.434  0.00  0.00    +0.000 F 
ATOM     16  C   UNL     1       5.842   3.629  12.708  0.00  0.00    +0.000 A 
ATOM     17  C   UNL     1       5.150   3.635  13.919  0.00  0.00    +0.000 A 
ENDBRANCH   6  11
BRANCH   1  19
ATOM     18  O   UNL     1       3.123   2.141  22.085  0.00  0.00    +0.000 OA
ATOM     19  N   UNL     1       2.294   2.770  21.413  0.00  0.00    +0.000 N 
ATOM     20  O   UNL     1       1.076   2.792  21.639  0.00  0.00    +0.000 OA
ENDBRANCH   1  19
BRANCH   3  21
ATOM     21  O   UNL     1       2.822   7.019  19.081  0.00  0.00    +0.000 OA
ATOM     22  H   UNL     1       3.446   7.413  18.449  0.00  0.00    +0.000 HD
ENDBRANCH   3  21
TORSDOF 3
ENDMDL
MODEL 8
REMARK VINA RESULT:      -7.7      1.903      2.247
REMARK  Name = 
REMARK  3 active torsions:
REMARK  status: ('A' for Active; 'I' for Inactive)
REMARK    1  A    between atoms: N_2  and  C_4
REMARK    2  A    between atoms: C_6  and  O_7
REMARK    3  A    between atoms: C_10  and  C_11
REMARK                            x       y       z     vdW  Elec       q    Type
REMARK                         _______ _______ _______ _____ _____    ______ ____
ROOT
ATOM      1  C   UNL     1       0.829  10.115  20.992  0.00  0.00    +0.000 A 
ATOM      2  C   UNL     1       1.025  10.583  19.686  0.00  0.00    +0.000 A 
ATOM      3  C   UNL     1       1.514   9.714  18.713  0.00  0.00    +0.000 A 
ATOM      4  C   UNL     1       1.801   8.378  19.049  0.00  0.00    +0.000 A 
ATOM      5  C   UNL     1       2.304   7.269  18.322  0.00  0.00    +0.000 A 
ATOM      6  C   UNL     1       2.375   6.180  19.170  0.00  0.00    +0.000 A 
ATOM      7  N   UNL     1       1.939   6.612  20.401  0.00  0.00    +0.000 N 
ATOM      8  C   UNL     1       1.585   7.941  20.356  0.00  0.00    +0.000 A 
ATOM      9  C   UNL     1       1.101   8.785  21.361  0.00  0.00    +0.000 A 
ATOM     10  H   UNL     1       1.898   6.037  21.231  0.00  0.00    +0.000 HD
ENDROOT
BRANCH   6  11
ATOM     11  C   UNL     1       2.816   4.817  18.900  0.00  0.00    +0.000 A 
ATOM     12  C   UNL     1       2.089   4.014  18.009  0.00  0.00    +0.000 A 
ATOM     13  C   UNL     1       2.471   2.695  17.771  0.00  0.00    +0.000 A 
ATOM     14  C   UNL     1       3.579   2.180  18.427  0.00  0.00    +0.000 A 
ATOM     15  F   UNL     1       3.939   0.907  18.213  0.00  0.00    +0.000 F 
ATOM     16  C   UNL     1       4.319   2.958  19.310  0.00  0.00    +0.000 A 
ATOM     17  C   UNL     1       3.938   4.279  19.546  0.00  0.00    +0.000 A 
ENDBRANCH   6  11
BRANCH   1  19
ATOM     18  O   UNL     1      -0.121  10.557  23.060  0.00  0.00    +0.000 OA
ATOM     19  N   UNL     1       0.330  11.044  22.013  0.00  0.00    +0.000 N 
ATOM     20  O   UNL     1       0.388  12.257  21.769  0.00  0.00    +0.000 OA
ENDBRANCH   1  19
BRANCH   3  21
ATOM     21  O   UNL     1       1.723  10.143  17.428  0.00  0.00    +0.000 OA
ATOM     22  H   UNL     1       1.059   9.744  16.842  0.00  0.00    +0.000 HD
ENDBRANCH   3  21
TORSDOF 3
ENDMDL
MODEL 9
REMARK VINA RESULT:      -7.6      4.181      5.538
REMARK  Name = 
REMARK  3 active torsions:
REMARK  status: ('A' for Active; 'I' for Inactive)
REMARK    1  A    between atoms: N_2  and  C_4
REMARK    2  A    between atoms: C_6  and  O_7
REMARK    3  A    between atoms: C_10  and  C_11
REMARK                            x       y       z     vdW  Elec       q    Type
REMARK                         _______ _______ _______ _____ _____    ______ ____
ROOT
ATOM      1  C   UNL     1       2.978   3.470  20.401  0.00  0.00    +0.000 A 
ATOM      2  C   UNL     1       2.639   4.829  20.355  0.00  0.00    +0.000 A 
ATOM      3  C   UNL     1       3.038   5.598  19.264  0.00  0.00    +0.000 A 
ATOM      4  C   UNL     1       3.772   5.004  18.221  0.00  0.00    +0.000 A 
ATOM      5  C   UNL     1       4.324   5.490  17.009  0.00  0.00    +0.000 A 
ATOM      6  C   UNL     1       4.944   4.442  16.353  0.00  0.00    +0.000 A 
ATOM      7  N   UNL     1       4.791   3.333  17.154  0.00  0.00    +0.000 N 
ATOM      8  C   UNL     1       4.085   3.645  18.293  0.00  0.00    +0.000 A 
ATOM      9  C   UNL     1       3.706   2.843  19.374  0.00  0.00    +0.000 A 
ATOM     10  H   UNL     1       5.160   2.416  16.944  0.00  0.00    +0.000 HD
ENDROOT
BRANCH   6  11
ATOM     11  C   UNL     1       5.646   4.427  15.076  0.00  0.00    +0.000 A 
ATOM     12  C   UNL     1       5.097   3.731  13.989  0.00  0.00    +0.000 A 
ATOM     13  C   UNL     1       5.775   3.670  12.772  0.00  0.00    +0.000 A 
ATOM     14  C   UNL     1       7.002   4.304  12.646  0.00  0.00    +0.000 A 
ATOM     15  F   UNL     1       7.663   4.233  11.483  0.00  0.00    +0.000 F 
ATOM     16  C   UNL     1       7.563   5.003  13.707  0.00  0.00    +0.000 A 
ATOM     17  C   UNL     1       6.884   5.067  14.924  0.00  0.00    +0.000 A 
ENDBRANCH   6  11
BRANCH   1  19
ATOM     18  O   UNL     1       1.417   2.837  21.995  0.00  0.00    +0.000 OA
ATOM     19  N   UNL     1       2.567   2.673  21.564  0.00  0.00    +0.000 N 
ATOM     20  O   UNL     1       3.393   1.886  22.045  0.00  0.00    +0.000 OA
ENDBRANCH   1  19
BRANCH   3  21
ATOM     21  O   UNL     1       2.728   6.931  19.193  0.00  0.00    +0.000 OA
ATOM     22  H   UNL     1       2.246   7.194  19.994  0.00  0.00    +0.000 HD
ENDBRANCH   3  21
TORSDOF 3
ENDMDL
