MODEL 1
REMARK VINA RESULT:      -7.6      0.000      0.000
REMARK  Name = 
REMARK  9 active torsions:
REMARK  status: ('A' for Active; 'I' for Inactive)
REMARK    1  A    between atoms: C_1  and  C_2
REMARK    2  A    between atoms: C_2  and  C_4
REMARK    3  A    between atoms: C_5  and  C_6
REMARK    4  A    between atoms: N_11  and  C_12
REMARK    5  A    between atoms: C_12  and  C_13
REMARK    6  A    between atoms: C_13  and  N_14
REMARK    7  A    between atoms: C_13  and  C_15
REMARK    8  A    between atoms: C_15  and  C_16
REMARK    9  A    between atoms: C_23  and  C_24
REMARK                            x       y       z     vdW  Elec       q    Type
REMARK                         _______ _______ _______ _____ _____    ______ ____
ROOT
ATOM      1  C   UNL     1      -0.683  12.040  22.389  0.00  0.00    +0.000 A 
ATOM      2  C   UNL     1      -1.037  10.749  22.697  0.00  0.00    +0.000 A 
ATOM      3  S   UNL     1      -0.428   9.615  21.577  0.00  0.00    +0.000 S 
ATOM      4  C   UNL     1       0.331  10.842  20.634  0.00  0.00    +0.000 A 
ATOM      5  C   UNL     1       1.067  10.706  19.444  0.00  0.00    +0.000 A 
ATOM      6  N   UNL     1       1.201   9.476  18.804  0.00  0.00    +0.000 N 
ATOM      7  N   UNL     1       1.581  11.827  18.908  0.00  0.00    +0.000 NA
ATOM      8  C   UNL     1       1.355  13.017  19.506  0.00  0.00    +0.000 A 
ATOM      9  N   UNL     1       0.659  13.219  20.637  0.00  0.00    +0.000 NA
ATOM     10  C   UNL     1       0.134  12.102  21.201  0.00  0.00    +0.000 A 
ATOM     11  H   UNL     1       0.903   8.706  19.396  0.00  0.00    +0.000 HD
ENDROOT
BRANCH   8  12
ATOM     12  C   UNL     1       1.922  14.211  18.844  0.00  0.00    +0.000 A 
ATOM     13  C   UNL     1       1.267  15.453  18.881  0.00  0.00    +0.000 A 
ATOM     14  C   UNL     1       1.830  16.541  18.234  0.00  0.00    +0.000 A 
ATOM     15  N   UNL     1       2.992  16.488  17.553  0.00  0.00    +0.000 NA
ATOM     16  C   UNL     1       3.623  15.297  17.529  0.00  0.00    +0.000 A 
ATOM     17  C   UNL     1       3.140  14.156  18.150  0.00  0.00    +0.000 A 
ENDBRANCH   8  12
BRANCH   1  19
ATOM     18  C   UNL     1      -1.513  14.151  23.937  0.00  0.00    +0.000 C 
ATOM     19  C   UNL     1      -1.128  13.139  23.211  0.00  0.00    +0.000 C 
BRANCH  18  21
ATOM     20  C   UNL     1      -3.167  16.007  24.166  0.00  0.00    +0.000 C 
ATOM     21  C   UNL     1      -1.961  15.330  24.785  0.00  0.00    +0.000 C 
ATOM     22  F   UNL     1      -2.308  14.854  26.010  0.00  0.00    +0.000 F 
ENDBRANCH  18  21
ENDBRANCH   1  19
BRANCH   6  23
ATOM     23  C   UNL     1       2.410   9.195  18.016  0.00  0.00    +0.000 C 
BRANCH  23  24
ATOM     24  C   UNL     1       2.639   7.645  18.001  0.00  0.00    +0.000 C 
BRANCH  24  25
ATOM     25  N   UNL     1       3.965   7.344  17.418  0.00  0.00    +0.000 NA
ATOM     26  H   UNL     1       4.131   6.340  17.470  0.00  0.00    +0.000 HD
ATOM     27  H   UNL     1       4.673   7.754  18.032  0.00  0.00    +0.000 HD
ENDBRANCH  24  25
BRANCH  24  28
ATOM     28  C   UNL     1       2.456   7.004  19.397  0.00  0.00    +0.000 C 
BRANCH  28  29
ATOM     29  C   UNL     1       1.975   5.561  19.401  0.00  0.00    +0.000 A 
ATOM     30  C   UNL     1       1.600   4.951  20.608  0.00  0.00    +0.000 A 
ATOM     31  C   UNL     1       1.149   3.629  20.640  0.00  0.00    +0.000 A 
ATOM     32  C   UNL     1       1.061   2.890  19.458  0.00  0.00    +0.000 A 
ATOM     33  C   UNL     1       1.420   3.484  18.250  0.00  0.00    +0.000 A 
ATOM     34  C   UNL     1       1.870   4.810  18.219  0.00  0.00    +0.000 A 
ENDBRANCH  28  29
ENDBRANCH  24  28
ENDBRANCH  23  24
ENDBRANCH   6  23
TORSDOF 8
ENDMDL
MODEL 2
REMARK VINA RESULT:      -7.4      5.371      8.203
REMARK  Name = 
REMARK  9 active torsions:
REMARK  status: ('A' for Active; 'I' for Inactive)
REMARK    1  A    between atoms: C_1  and  C_2
REMARK    2  A    between atoms: C_2  and  C_4
REMARK    3  A    between atoms: C_5  and  C_6
REMARK    4  A    between atoms: N_11  and  C_12
REMARK    5  A    between atoms: C_12  and  C_13
REMARK    6  A    between atoms: C_13  and  N_14
REMARK    7  A    between atoms: C_13  and  C_15
REMARK    8  A    between atoms: C_15  and  C_16
REMARK    9  A    between atoms: C_23  and  C_24
REMARK                            x       y       z     vdW  Elec       q    Type
REMARK                         _______ _______ _______ _____ _____    ______ ____
ROOT
ATOM      1  C   UNL     1       7.097   7.089  17.464  0.00  0.00    +0.000 A 
ATOM      2  C   UNL     1       7.804   5.987  17.047  0.00  0.00    +0.000 A 
ATOM      3  S   UNL     1       6.816   4.610  16.846  0.00  0.00    +0.000 S 
ATOM      4  C   UNL     1       5.398   5.465  17.325  0.00  0.00    +0.000 A 
ATOM      5  C   UNL     1       4.083   4.984  17.452  0.00  0.00    +0.000 A 
ATOM      6  N   UNL     1       3.776   3.638  17.269  0.00  0.00    +0.000 N 
ATOM      7  N   UNL     1       3.139   5.866  17.825  0.00  0.00    +0.000 NA
ATOM      8  C   UNL     1       3.487   7.146  18.082  0.00  0.00    +0.000 A 
ATOM      9  N   UNL     1       4.721   7.670  17.987  0.00  0.00    +0.000 NA
ATOM     10  C   UNL     1       5.691   6.800  17.606  0.00  0.00    +0.000 A 
ATOM     11  H   UNL     1       4.545   3.129  16.842  0.00  0.00    +0.000 HD
ENDROOT
BRANCH   8  12
ATOM     12  C   UNL     1       2.405   8.053  18.519  0.00  0.00    +0.000 A 
ATOM     13  C   UNL     1       1.953   8.073  19.848  0.00  0.00    +0.000 A 
ATOM     14  C   UNL     1       0.926   8.930  20.208  0.00  0.00    +0.000 A 
ATOM     15  N   UNL     1       0.313   9.767  19.348  0.00  0.00    +0.000 NA
ATOM     16  C   UNL     1       0.757   9.754  18.075  0.00  0.00    +0.000 A 
ATOM     17  C   UNL     1       1.781   8.936  17.624  0.00  0.00    +0.000 A 
ENDBRANCH   8  12
BRANCH   1  19
ATOM     18  C   UNL     1       8.378   9.466  17.964  0.00  0.00    +0.000 C 
ATOM     19  C   UNL     1       7.770   8.341  17.711  0.00  0.00    +0.000 C 
BRANCH  18  21
ATOM     20  C   UNL     1       9.489  10.853  19.718  0.00  0.00    +0.000 C 
ATOM     21  C   UNL     1       9.085  10.779  18.259  0.00  0.00    +0.000 C 
ATOM     22  F   UNL     1      10.206  10.829  17.492  0.00  0.00    +0.000 F 
ENDBRANCH  18  21
ENDBRANCH   1  19
BRANCH   6  23
ATOM     23  C   UNL     1       2.449   3.256  16.767  0.00  0.00    +0.000 C 
BRANCH  23  24
ATOM     24  C   UNL     1       2.016   1.928  17.476  0.00  0.00    +0.000 C 
BRANCH  24  25
ATOM     25  N   UNL     1       3.206   1.251  18.035  0.00  0.00    +0.000 NA
ATOM     26  H   UNL     1       3.161   0.258  17.811  0.00  0.00    +0.000 HD
ATOM     27  H   UNL     1       3.134   1.289  19.055  0.00  0.00    +0.000 HD
ENDBRANCH  24  25
BRANCH  24  28
ATOM     28  C   UNL     1       0.920   2.155  18.543  0.00  0.00    +0.000 C 
BRANCH  28  29
ATOM     29  C   UNL     1       1.354   2.933  19.777  0.00  0.00    +0.000 A 
ATOM     30  C   UNL     1       1.888   2.253  20.883  0.00  0.00    +0.000 A 
ATOM     31  C   UNL     1       2.299   2.943  22.025  0.00  0.00    +0.000 A 
ATOM     32  C   UNL     1       2.187   4.333  22.083  0.00  0.00    +0.000 A 
ATOM     33  C   UNL     1       1.668   5.026  20.990  0.00  0.00    +0.000 A 
ATOM     34  C   UNL     1       1.258   4.333  19.844  0.00  0.00    +0.000 A 
ENDBRANCH  28  29
ENDBRANCH  24  28
ENDBRANCH  23  24
ENDBRANCH   6  23
TORSDOF 8
ENDMDL
MODEL 3
REMARK VINA RESULT:      -7.4      5.384      8.233
REMARK  Name = 
REMARK  9 active torsions:
REMARK  status: ('A' for Active; 'I' for Inactive)
REMARK    1  A    between atoms: C_1  and  C_2
REMARK    2  A    between atoms: C_2  and  C_4
REMARK    3  A    between atoms: C_5  and  C_6
REMARK    4  A    between atoms: N_11  and  C_12
REMARK    5  A    between atoms: C_12  and  C_13
REMARK    6  A    between atoms: C_13  and  N_14
REMARK    7  A    between atoms: C_13  and  C_15
REMARK    8  A    between atoms: C_15  and  C_16
REMARK    9  A    between atoms: C_23  and  C_24
REMARK                            x       y       z     vdW  Elec       q    Type
REMARK                         _______ _______ _______ _____ _____    ______ ____
ROOT
ATOM      1  C   UNL     1       7.096   7.096  17.444  0.00  0.00    +0.000 A 
ATOM      2  C   UNL     1       7.809   6.001  17.021  0.00  0.00    +0.000 A 
ATOM      3  S   UNL     1       6.831   4.619  16.815  0.00  0.00    +0.000 S 
ATOM      4  C   UNL     1       5.408   5.461  17.302  0.00  0.00    +0.000 A 
ATOM      5  C   UNL     1       4.097   4.970  17.429  0.00  0.00    +0.000 A 
ATOM      6  N   UNL     1       3.799   3.622  17.241  0.00  0.00    +0.000 N 
ATOM      7  N   UNL     1       3.148   5.843  17.809  0.00  0.00    +0.000 NA
ATOM      8  C   UNL     1       3.487   7.124  18.072  0.00  0.00    +0.000 A 
ATOM      9  N   UNL     1       4.717   7.657  17.977  0.00  0.00    +0.000 NA
ATOM     10  C   UNL     1       5.692   6.797  17.589  0.00  0.00    +0.000 A 
ATOM     11  H   UNL     1       4.570   3.121  16.809  0.00  0.00    +0.000 HD
ENDROOT
BRANCH   8  12
ATOM     12  C   UNL     1       2.399   8.021  18.517  0.00  0.00    +0.000 A 
ATOM     13  C   UNL     1       1.738   8.875  17.620  0.00  0.00    +0.000 A 
ATOM     14  C   UNL     1       0.733   9.709  18.085  0.00  0.00    +0.000 A 
ATOM     15  N   UNL     1       0.339   9.759  19.373  0.00  0.00    +0.000 NA
ATOM     16  C   UNL     1       0.969   8.930  20.229  0.00  0.00    +0.000 A 
ATOM     17  C   UNL     1       1.980   8.059  19.855  0.00  0.00    +0.000 A 
ENDBRANCH   8  12
BRANCH   1  19
ATOM     18  C   UNL     1       8.375   9.474  17.948  0.00  0.00    +0.000 C 
ATOM     19  C   UNL     1       7.760   8.352  17.697  0.00  0.00    +0.000 C 
BRANCH  18  21
ATOM     20  C   UNL     1       9.512  10.848  19.695  0.00  0.00    +0.000 C 
ATOM     21  C   UNL     1       9.091  10.782  18.241  0.00  0.00    +0.000 C 
ATOM     22  F   UNL     1      10.202  10.832  17.460  0.00  0.00    +0.000 F 
ENDBRANCH  18  21
ENDBRANCH   1  19
BRANCH   6  23
ATOM     23  C   UNL     1       2.474   3.234  16.740  0.00  0.00    +0.000 C 
BRANCH  23  24
ATOM     24  C   UNL     1       2.033   1.922  17.475  0.00  0.00    +0.000 C 
BRANCH  24  25
ATOM     25  N   UNL     1       3.216   1.259  18.063  0.00  0.00    +0.000 NA
ATOM     26  H   UNL     1       2.987   0.939  19.003  0.00  0.00    +0.000 HD
ATOM     27  H   UNL     1       3.935   1.973  18.201  0.00  0.00    +0.000 HD
ENDBRANCH  24  25
BRANCH  24  28
ATOM     28  C   UNL     1       0.925   2.175  18.525  0.00  0.00    +0.000 C 
BRANCH  28  29
ATOM     29  C   UNL     1       1.365   2.914  19.781  0.00  0.00    +0.000 A 
ATOM     30  C   UNL     1       1.267   4.314  19.842  0.00  0.00    +0.000 A 
ATOM     31  C   UNL     1       1.658   5.016  20.984  0.00  0.00    +0.000 A 
ATOM     32  C   UNL     1       2.153   4.329  22.094  0.00  0.00    +0.000 A 
ATOM     33  C   UNL     1       2.248   2.939  22.054  0.00  0.00    +0.000 A 
ATOM     34  C   UNL     1       1.854   2.236  20.909  0.00  0.00    +0.000 A 
ENDBRANCH  28  29
ENDBRANCH  24  28
ENDBRANCH  23  24
ENDBRANCH   6  23
TORSDOF 8
ENDMDL
MODEL 4
REMARK VINA RESULT:      -7.4      3.091      3.941
REMARK  Name = 
REMARK  9 active torsions:
REMARK  status: ('A' for Active; 'I' for Inactive)
REMARK    1  A    between atoms: C_1  and  C_2
REMARK    2  A    between atoms: C_2  and  C_4
REMARK    3  A    between atoms: C_5  and  C_6
REMARK    4  A    between atoms: N_11  and  C_12
REMARK    5  A    between atoms: C_12  and  C_13
REMARK    6  A    between atoms: C_13  and  N_14
REMARK    7  A    between atoms: C_13  and  C_15
REMARK    8  A    between atoms: C_15  and  C_16
REMARK    9  A    between atoms: C_23  and  C_24
REMARK                            x       y       z     vdW  Elec       q    Type
REMARK                         _______ _______ _______ _____ _____    ______ ____
ROOT
ATOM      1  C   UNL     1      -1.622  11.971  21.691  0.00  0.00    +0.000 A 
ATOM      2  C   UNL     1      -0.611  11.754  22.596  0.00  0.00    +0.000 A 
ATOM      3  S   UNL     1       0.641  10.783  21.964  0.00  0.00    +0.000 S 
ATOM      4  C   UNL     1      -0.153  10.619  20.443  0.00  0.00    +0.000 A 
ATOM      5  C   UNL     1       0.258   9.893  19.311  0.00  0.00    +0.000 A 
ATOM      6  N   UNL     1       1.401   9.097  19.328  0.00  0.00    +0.000 N 
ATOM      7  N   UNL     1      -0.536   9.944  18.227  0.00  0.00    +0.000 NA
ATOM      8  C   UNL     1      -1.685  10.653  18.274  0.00  0.00    +0.000 A 
ATOM      9  N   UNL     1      -2.140  11.363  19.321  0.00  0.00    +0.000 NA
ATOM     10  C   UNL     1      -1.352  11.333  20.425  0.00  0.00    +0.000 A 
ATOM     11  H   UNL     1       1.977   9.279  20.144  0.00  0.00    +0.000 HD
ENDROOT
BRANCH   8  12
ATOM     12  C   UNL     1      -2.526  10.637  17.058  0.00  0.00    +0.000 A 
ATOM     13  C   UNL     1      -3.722  11.368  16.982  0.00  0.00    +0.000 A 
ATOM     14  C   UNL     1      -4.485  11.312  15.826  0.00  0.00    +0.000 A 
ATOM     15  N   UNL     1      -4.149  10.584  14.742  0.00  0.00    +0.000 NA
ATOM     16  C   UNL     1      -2.994   9.892  14.816  0.00  0.00    +0.000 A 
ATOM     17  C   UNL     1      -2.164   9.891  15.926  0.00  0.00    +0.000 A 
ENDBRANCH   8  12
BRANCH   1  19
ATOM     18  C   UNL     1      -3.809  13.482  22.381  0.00  0.00    +0.000 C 
ATOM     19  C   UNL     1      -2.778  12.751  22.057  0.00  0.00    +0.000 C 
BRANCH  18  21
ATOM     20  C   UNL     1      -5.993  13.531  23.588  0.00  0.00    +0.000 C 
ATOM     21  C   UNL     1      -5.010  14.333  22.760  0.00  0.00    +0.000 C 
ATOM     22  F   UNL     1      -4.561  15.378  23.503  0.00  0.00    +0.000 F 
ENDBRANCH  18  21
ENDBRANCH   1  19
BRANCH   6  23
ATOM     23  C   UNL     1       2.162   8.892  18.088  0.00  0.00    +0.000 C 
BRANCH  23  24
ATOM     24  C   UNL     1       2.619   7.394  18.031  0.00  0.00    +0.000 C 
BRANCH  24  25
ATOM     25  N   UNL     1       3.972   7.308  17.441  0.00  0.00    +0.000 NA
ATOM     26  H   UNL     1       4.090   6.392  17.010  0.00  0.00    +0.000 HD
ATOM     27  H   UNL     1       4.647   7.321  18.209  0.00  0.00    +0.000 HD
ENDBRANCH  24  25
BRANCH  24  28
ATOM     28  C   UNL     1       2.540   6.698  19.411  0.00  0.00    +0.000 C 
BRANCH  28  29
ATOM     29  C   UNL     1       2.009   5.271  19.398  0.00  0.00    +0.000 A 
ATOM     30  C   UNL     1       1.578   4.674  20.594  0.00  0.00    +0.000 A 
ATOM     31  C   UNL     1       1.081   3.368  20.609  0.00  0.00    +0.000 A 
ATOM     32  C   UNL     1       1.001   2.634  19.425  0.00  0.00    +0.000 A 
ATOM     33  C   UNL     1       1.415   3.216  18.228  0.00  0.00    +0.000 A 
ATOM     34  C   UNL     1       1.911   4.525  18.213  0.00  0.00    +0.000 A 
ENDBRANCH  28  29
ENDBRANCH  24  28
ENDBRANCH  23  24
ENDBRANCH   6  23
TORSDOF 8
ENDMDL
MODEL 5
REMARK VINA RESULT:      -7.1      4.285      5.266
REMARK  Name = 
REMARK  9 active torsions:
REMARK  status: ('A' for Active; 'I' for Inactive)
REMARK    1  A    between atoms: C_1  and  C_2
REMARK    2  A    between atoms: C_2  and  C_4
REMARK    3  A    between atoms: C_5  and  C_6
REMARK    4  A    between atoms: N_11  and  C_12
REMARK    5  A    between atoms: C_12  and  C_13
REMARK    6  A    between atoms: C_13  and  N_14
REMARK    7  A    between atoms: C_13  and  C_15
REMARK    8  A    between atoms: C_15  and  C_16
REMARK    9  A    between atoms: C_23  and  C_24
REMARK                            x       y       z     vdW  Elec       q    Type
REMARK                         _______ _______ _______ _____ _____    ______ ____
ROOT
ATOM      1  C   UNL     1      -4.111  11.469  17.141  0.00  0.00    +0.000 A 
ATOM      2  C   UNL     1      -3.910  10.617  16.082  0.00  0.00    +0.000 A 
ATOM      3  S   UNL     1      -2.376   9.872  16.119  0.00  0.00    +0.000 S 
ATOM      4  C   UNL     1      -1.932  10.688  17.571  0.00  0.00    +0.000 A 
ATOM      5  C   UNL     1      -0.720  10.622  18.280  0.00  0.00    +0.000 A 
ATOM      6  N   UNL     1       0.369   9.897  17.802  0.00  0.00    +0.000 N 
ATOM      7  N   UNL     1      -0.629  11.346  19.410  0.00  0.00    +0.000 NA
ATOM      8  C   UNL     1      -1.672  12.112  19.797  0.00  0.00    +0.000 A 
ATOM      9  N   UNL     1      -2.853  12.225  19.166  0.00  0.00    +0.000 NA
ATOM     10  C   UNL     1      -2.972  11.499  18.026  0.00  0.00    +0.000 A 
ATOM     11  H   UNL     1       0.108   9.283  17.036  0.00  0.00    +0.000 HD
ENDROOT
BRANCH   8  12
ATOM     12  C   UNL     1      -1.491  12.906  21.030  0.00  0.00    +0.000 A 
ATOM     13  C   UNL     1      -1.692  12.347  22.302  0.00  0.00    +0.000 A 
ATOM     14  C   UNL     1      -1.524  13.135  23.430  0.00  0.00    +0.000 A 
ATOM     15  N   UNL     1      -1.173  14.435  23.389  0.00  0.00    +0.000 NA
ATOM     16  C   UNL     1      -0.970  14.966  22.166  0.00  0.00    +0.000 A 
ATOM     17  C   UNL     1      -1.109  14.256  20.984  0.00  0.00    +0.000 A 
ENDBRANCH   8  12
BRANCH   1  19
ATOM     18  C   UNL     1      -6.464  12.870  17.346  0.00  0.00    +0.000 C 
ATOM     19  C   UNL     1      -5.343  12.208  17.264  0.00  0.00    +0.000 C 
BRANCH  18  21
ATOM     20  C   UNL     1      -7.916  14.277  18.811  0.00  0.00    +0.000 C 
ATOM     21  C   UNL     1      -7.769  13.643  17.442  0.00  0.00    +0.000 C 
ATOM     22  F   UNL     1      -7.739  14.627  16.505  0.00  0.00    +0.000 F 
ENDBRANCH  18  21
ENDBRANCH   1  19
BRANCH   6  23
ATOM     23  C   UNL     1       1.319   9.301  18.752  0.00  0.00    +0.000 C 
BRANCH  23  24
ATOM     24  C   UNL     1       1.950   8.030  18.088  0.00  0.00    +0.000 C 
BRANCH  24  25
ATOM     25  N   UNL     1       3.144   8.417  17.306  0.00  0.00    +0.000 NA
ATOM     26  H   UNL     1       3.129   7.930  16.411  0.00  0.00    +0.000 HD
ATOM     27  H   UNL     1       3.965   8.043  17.789  0.00  0.00    +0.000 HD
ENDBRANCH  24  25
BRANCH  24  28
ATOM     28  C   UNL     1       2.262   6.917  19.116  0.00  0.00    +0.000 C 
BRANCH  28  29
ATOM     29  C   UNL     1       2.761   5.603  18.533  0.00  0.00    +0.000 A 
ATOM     30  C   UNL     1       1.863   4.734  17.892  0.00  0.00    +0.000 A 
ATOM     31  C   UNL     1       2.296   3.525  17.343  0.00  0.00    +0.000 A 
ATOM     32  C   UNL     1       3.642   3.162  17.421  0.00  0.00    +0.000 A 
ATOM     33  C   UNL     1       4.548   4.017  18.045  0.00  0.00    +0.000 A 
ATOM     34  C   UNL     1       4.113   5.230  18.594  0.00  0.00    +0.000 A 
ENDBRANCH  28  29
ENDBRANCH  24  28
ENDBRANCH  23  24
ENDBRANCH   6  23
TORSDOF 8
ENDMDL
MODEL 6
REMARK VINA RESULT:      -7.1      3.479      4.032
REMARK  Name = 
REMARK  9 active torsions:
REMARK  status: ('A' for Active; 'I' for Inactive)
REMARK    1  A    between atoms: C_1  and  C_2
REMARK    2  A    between atoms: C_2  and  C_4
REMARK    3  A    between atoms: C_5  and  C_6
REMARK    4  A    between atoms: N_11  and  C_12
REMARK    5  A    between atoms: C_12  and  C_13
REMARK    6  A    between atoms: C_13  and  N_14
REMARK    7  A    between atoms: C_13  and  C_15
REMARK    8  A    between atoms: C_15  and  C_16
REMARK    9  A    between atoms: C_23  and  C_24
REMARK                            x       y       z     vdW  Elec       q    Type
REMARK                         _______ _______ _______ _____ _____    ______ ____
ROOT
ATOM      1  C   UNL     1      -0.926  10.725  22.519  0.00  0.00    +0.000 A 
ATOM      2  C   UNL     1       0.098  10.259  23.308  0.00  0.00    +0.000 A 
ATOM      3  S   UNL     1       1.256   9.370  22.425  0.00  0.00    +0.000 S 
ATOM      4  C   UNL     1       0.400   9.583  20.944  0.00  0.00    +0.000 A 
ATOM      5  C   UNL     1       0.719   9.090  19.666  0.00  0.00    +0.000 A 
ATOM      6  N   UNL     1       1.803   8.240  19.460  0.00  0.00    +0.000 N 
ATOM      7  N   UNL     1      -0.108   9.418  18.657  0.00  0.00    +0.000 NA
ATOM      8  C   UNL     1      -1.202  10.170  18.909  0.00  0.00    +0.000 A 
ATOM      9  N   UNL     1      -1.568  10.667  20.102  0.00  0.00    +0.000 NA
ATOM     10  C   UNL     1      -0.746  10.355  21.136  0.00  0.00    +0.000 A 
ATOM     11  H   UNL     1       2.419   8.209  20.267  0.00  0.00    +0.000 HD
ENDROOT
BRANCH   8  12
ATOM     12  C   UNL     1      -2.083  10.464  17.759  0.00  0.00    +0.000 A 
ATOM     13  C   UNL     1      -1.864   9.888  16.498  0.00  0.00    +0.000 A 
ATOM     14  C   UNL     1      -2.709  10.205  15.446  0.00  0.00    +0.000 A 
ATOM     15  N   UNL     1      -3.752  11.051  15.553  0.00  0.00    +0.000 NA
ATOM     16  C   UNL     1      -3.966  11.594  16.768  0.00  0.00    +0.000 A 
ATOM     17  C   UNL     1      -3.179  11.333  17.879  0.00  0.00    +0.000 A 
ENDBRANCH   8  12
BRANCH   1  19
ATOM     18  C   UNL     1      -2.992  12.142  23.642  0.00  0.00    +0.000 C 
ATOM     19  C   UNL     1      -2.012  11.479  23.096  0.00  0.00    +0.000 C 
BRANCH  18  21
ATOM     20  C   UNL     1      -5.206  13.230  23.252  0.00  0.00    +0.000 C 
ATOM     21  C   UNL     1      -4.137  12.915  24.278  0.00  0.00    +0.000 C 
ATOM     22  F   UNL     1      -4.678  12.133  25.249  0.00  0.00    +0.000 F 
ENDBRANCH  18  21
ENDBRANCH   1  19
BRANCH   6  23
ATOM     23  C   UNL     1       2.504   8.257  18.169  0.00  0.00    +0.000 C 
BRANCH  23  24
ATOM     24  C   UNL     1       2.829   6.779  17.764  0.00  0.00    +0.000 C 
BRANCH  24  25
ATOM     25  N   UNL     1       4.295   6.586  17.716  0.00  0.00    +0.000 NA
ATOM     26  H   UNL     1       4.497   5.653  17.359  0.00  0.00    +0.000 HD
ATOM     27  H   UNL     1       4.638   6.575  18.679  0.00  0.00    +0.000 HD
ENDBRANCH  24  25
BRANCH  24  28
ATOM     28  C   UNL     1       2.136   5.746  18.684  0.00  0.00    +0.000 C 
BRANCH  28  29
ATOM     29  C   UNL     1       2.669   4.323  18.596  0.00  0.00    +0.000 A 
ATOM     30  C   UNL     1       2.247   3.481  17.555  0.00  0.00    +0.000 A 
ATOM     31  C   UNL     1       2.725   2.173  17.447  0.00  0.00    +0.000 A 
ATOM     32  C   UNL     1       3.640   1.681  18.379  0.00  0.00    +0.000 A 
ATOM     33  C   UNL     1       4.077   2.507  19.413  0.00  0.00    +0.000 A 
ATOM     34  C   UNL     1       3.599   3.819  19.519  0.00  0.00    +0.000 A 
ENDBRANCH  28  29
ENDBRANCH  24  28
ENDBRANCH  23  24
ENDBRANCH   6  23
TORSDOF 8
ENDMDL
MODEL 7
REMARK VINA RESULT:      -7.0      4.190      5.588
REMARK  Name = 
REMARK  9 active torsions:
REMARK  status: ('A' for Active; 'I' for Inactive)
REMARK    1  A    between atoms: C_1  and  C_2
REMARK    2  A    between atoms: C_2  and  C_4
REMARK    3  A    between atoms: C_5  and  C_6
REMARK    4  A    between atoms: N_11  and  C_12
REMARK    5  A    between atoms: C_12  and  C_13
REMARK    6  A    between atoms: C_13  and  N_14
REMARK    7  A    between atoms: C_13  and  C_15
REMARK    8  A    between atoms: C_15  and  C_16
REMARK    9  A    between atoms: C_23  and  C_24
REMARK                            x       y       z     vdW  Elec       q    Type
REMARK                         _______ _______ _______ _____ _____    ______ ____
ROOT
ATOM      1  C   UNL     1      -3.541  11.254  17.535  0.00  0.00    +0.000 A 
ATOM      2  C   UNL     1      -3.078  10.387  16.574  0.00  0.00    +0.000 A 
ATOM      3  S   UNL     1      -1.599   9.654  17.006  0.00  0.00    +0.000 S 
ATOM      4  C   UNL     1      -1.535  10.495  18.509  0.00  0.00    +0.000 A 
ATOM      5  C   UNL     1      -0.539  10.449  19.500  0.00  0.00    +0.000 A 
ATOM      6  N   UNL     1       0.637   9.724  19.322  0.00  0.00    +0.000 N 
ATOM      7  N   UNL     1      -0.736  11.190  20.605  0.00  0.00    +0.000 NA
ATOM      8  C   UNL     1      -1.846  11.953  20.707  0.00  0.00    +0.000 A 
ATOM      9  N   UNL     1      -2.832  12.049  19.799  0.00  0.00    +0.000 NA
ATOM     10  C   UNL     1      -2.659  11.305  18.677  0.00  0.00    +0.000 A 
ATOM     11  H   UNL     1       0.577   9.096  18.524  0.00  0.00    +0.000 HD
ENDROOT
BRANCH   8  12
ATOM     12  C   UNL     1      -1.981  12.768  21.933  0.00  0.00    +0.000 A 
ATOM     13  C   UNL     1      -3.145  12.728  22.717  0.00  0.00    +0.000 A 
ATOM     14  C   UNL     1      -3.232  13.520  23.851  0.00  0.00    +0.000 A 
ATOM     15  N   UNL     1      -2.252  14.348  24.263  0.00  0.00    +0.000 NA
ATOM     16  C   UNL     1      -1.132  14.375  23.514  0.00  0.00    +0.000 A 
ATOM     17  C   UNL     1      -0.952  13.616  22.368  0.00  0.00    +0.000 A 
ENDBRANCH   8  12
BRANCH   1  19
ATOM     18  C   UNL     1      -5.886  12.625  17.137  0.00  0.00    +0.000 C 
ATOM     19  C   UNL     1      -4.767  11.986  17.335  0.00  0.00    +0.000 C 
BRANCH  18  21
ATOM     20  C   UNL     1      -7.913  13.604  18.217  0.00  0.00    +0.000 C 
ATOM     21  C   UNL     1      -7.190  13.370  16.906  0.00  0.00    +0.000 C 
ATOM     22  F   UNL     1      -6.889  14.574  16.351  0.00  0.00    +0.000 F 
ENDBRANCH  18  21
ENDBRANCH   1  19
BRANCH   6  23
ATOM     23  C   UNL     1       1.321   9.149  20.488  0.00  0.00    +0.000 C 
BRANCH  23  24
ATOM     24  C   UNL     1       2.084   7.861  20.028  0.00  0.00    +0.000 C 
BRANCH  24  25
ATOM     25  N   UNL     1       1.611   6.696  20.807  0.00  0.00    +0.000 NA
ATOM     26  H   UNL     1       0.953   6.162  20.241  0.00  0.00    +0.000 HD
ATOM     27  H   UNL     1       1.052   7.052  21.587  0.00  0.00    +0.000 HD
ENDBRANCH  24  25
BRANCH  24  28
ATOM     28  C   UNL     1       1.980   7.623  18.503  0.00  0.00    +0.000 C 
BRANCH  28  29
ATOM     29  C   UNL     1       2.953   6.603  17.928  0.00  0.00    +0.000 A 
ATOM     30  C   UNL     1       2.616   5.240  17.919  0.00  0.00    +0.000 A 
ATOM     31  C   UNL     1       3.488   4.285  17.391  0.00  0.00    +0.000 A 
ATOM     32  C   UNL     1       4.717   4.676  16.858  0.00  0.00    +0.000 A 
ATOM     33  C   UNL     1       5.064   6.026  16.850  0.00  0.00    +0.000 A 
ATOM     34  C   UNL     1       4.188   6.983  17.377  0.00  0.00    +0.000 A 
ENDBRANCH  28  29
ENDBRANCH  24  28
ENDBRANCH  23  24
ENDBRANCH   6  23
TORSDOF 8
ENDMDL
MODEL 8
REMARK VINA RESULT:      -7.0      3.446      3.809
REMARK  Name = 
REMARK  9 active torsions:
REMARK  status: ('A' for Active; 'I' for Inactive)
REMARK    1  A    between atoms: C_1  and  C_2
REMARK    2  A    between atoms: C_2  and  C_4
REMARK    3  A    between atoms: C_5  and  C_6
REMARK    4  A    between atoms: N_11  and  C_12
REMARK    5  A    between atoms: C_12  and  C_13
REMARK    6  A    between atoms: C_13  and  N_14
REMARK    7  A    between atoms: C_13  and  C_15
REMARK    8  A    between atoms: C_15  and  C_16
REMARK    9  A    between atoms: C_23  and  C_24
REMARK                            x       y       z     vdW  Elec       q    Type
REMARK                         _______ _______ _______ _____ _____    ______ ____
ROOT
ATOM      1  C   UNL     1      -0.809  10.640  22.498  0.00  0.00    +0.000 A 
ATOM      2  C   UNL     1       0.224  10.159  23.266  0.00  0.00    +0.000 A 
ATOM      3  S   UNL     1       1.360   9.268  22.355  0.00  0.00    +0.000 S 
ATOM      4  C   UNL     1       0.481   9.501  20.891  0.00  0.00    +0.000 A 
ATOM      5  C   UNL     1       0.774   9.017  19.604  0.00  0.00    +0.000 A 
ATOM      6  N   UNL     1       1.848   8.160  19.372  0.00  0.00    +0.000 N 
ATOM      7  N   UNL     1      -0.066   9.359  18.612  0.00  0.00    +0.000 NA
ATOM      8  C   UNL     1      -1.150  10.118  18.888  0.00  0.00    +0.000 A 
ATOM      9  N   UNL     1      -1.492  10.608  20.092  0.00  0.00    +0.000 NA
ATOM     10  C   UNL     1      -0.656  10.280  21.109  0.00  0.00    +0.000 A 
ATOM     11  H   UNL     1       2.477   8.117  20.169  0.00  0.00    +0.000 HD
ENDROOT
BRANCH   8  12
ATOM     12  C   UNL     1      -2.048  10.429  17.757  0.00  0.00    +0.000 A 
ATOM     13  C   UNL     1      -3.147  11.291  17.905  0.00  0.00    +0.000 A 
ATOM     14  C   UNL     1      -3.970  11.542  16.819  0.00  0.00    +0.000 A 
ATOM     15  N   UNL     1      -3.785  11.001  15.599  0.00  0.00    +0.000 NA
ATOM     16  C   UNL     1      -2.723  10.182  15.457  0.00  0.00    +0.000 A 
ATOM     17  C   UNL     1      -1.843   9.876  16.483  0.00  0.00    +0.000 A 
ENDBRANCH   8  12
BRANCH   1  19
ATOM     18  C   UNL     1      -2.837  12.072  23.671  0.00  0.00    +0.000 C 
ATOM     19  C   UNL     1      -1.879  11.397  23.100  0.00  0.00    +0.000 C 
BRANCH  18  21
ATOM     20  C   UNL     1      -4.717  13.676  23.314  0.00  0.00    +0.000 C 
ATOM     21  C   UNL     1      -3.955  12.858  24.337  0.00  0.00    +0.000 C 
ATOM     22  F   UNL     1      -4.808  11.966  24.907  0.00  0.00    +0.000 F 
ENDBRANCH  18  21
ENDBRANCH   1  19
BRANCH   6  23
ATOM     23  C   UNL     1       2.528   8.183  18.070  0.00  0.00    +0.000 C 
BRANCH  23  24
ATOM     24  C   UNL     1       3.076   6.745  17.774  0.00  0.00    +0.000 C 
BRANCH  24  25
ATOM     25  N   UNL     1       4.214   6.452  18.671  0.00  0.00    +0.000 NA
ATOM     26  H   UNL     1       4.310   5.442  18.769  0.00  0.00    +0.000 HD
ATOM     27  H   UNL     1       3.963   6.779  19.608  0.00  0.00    +0.000 HD
ENDBRANCH  24  25
BRANCH  24  28
ATOM     28  C   UNL     1       1.975   5.661  17.857  0.00  0.00    +0.000 C 
BRANCH  28  29
ATOM     29  C   UNL     1       2.151   4.626  18.959  0.00  0.00    +0.000 A 
ATOM     30  C   UNL     1       1.743   4.921  20.269  0.00  0.00    +0.000 A 
ATOM     31  C   UNL     1       1.888   3.987  21.298  0.00  0.00    +0.000 A 
ATOM     32  C   UNL     1       2.443   2.734  21.033  0.00  0.00    +0.000 A 
ATOM     33  C   UNL     1       2.844   2.421  19.736  0.00  0.00    +0.000 A 
ATOM     34  C   UNL     1       2.696   3.358  18.705  0.00  0.00    +0.000 A 
ENDBRANCH  28  29
ENDBRANCH  24  28
ENDBRANCH  23  24
ENDBRANCH   6  23
TORSDOF 8
ENDMDL
MODEL 9
REMARK VINA RESULT:      -6.9      1.155      1.454
REMARK  Name = 
REMARK  9 active torsions:
REMARK  status: ('A' for Active; 'I' for Inactive)
REMARK    1  A    between atoms: C_1  and  C_2
REMARK    2  A    between atoms: C_2  and  C_4
REMARK    3  A    between atoms: C_5  and  C_6
REMARK    4  A    between atoms: N_11  and  C_12
REMARK    5  A    between atoms: C_12  and  C_13
REMARK    6  A    between atoms: C_13  and  N_14
REMARK    7  A    between atoms: C_13  and  C_15
REMARK    8  A    between atoms: C_15  and  C_16
REMARK    9  A    between atoms: C_23  and  C_24
REMARK                            x       y       z     vdW  Elec       q    Type
REMARK                         _______ _______ _______ _____ _____    ______ ____
ROOT
ATOM      1  C   UNL     1      -0.802  12.207  22.590  0.00  0.00    +0.000 A 
ATOM      2  C   UNL     1      -1.196  10.941  22.952  0.00  0.00    +0.000 A 
ATOM      3  S   UNL     1      -0.606   9.741  21.892  0.00  0.00    +0.000 S 
ATOM      4  C   UNL     1       0.197  10.903  20.903  0.00  0.00    +0.000 A 
ATOM      5  C   UNL     1       0.941  10.693  19.729  0.00  0.00    +0.000 A 
ATOM      6  N   UNL     1       1.049   9.433  19.147  0.00  0.00    +0.000 N 
ATOM      7  N   UNL     1       1.492  11.774  19.149  0.00  0.00    +0.000 NA
ATOM      8  C   UNL     1       1.292  12.996  19.691  0.00  0.00    +0.000 A 
ATOM      9  N   UNL     1       0.590  13.268  20.803  0.00  0.00    +0.000 NA
ATOM     10  C   UNL     1       0.029  12.192  21.411  0.00  0.00    +0.000 A 
ATOM     11  H   UNL     1       0.723   8.699  19.770  0.00  0.00    +0.000 HD
ENDROOT
BRANCH   8  12
ATOM     12  C   UNL     1       1.899  14.143  18.983  0.00  0.00    +0.000 A 
ATOM     13  C   UNL     1       1.292  15.409  18.978  0.00  0.00    +0.000 A 
ATOM     14  C   UNL     1       1.891  16.451  18.288  0.00  0.00    +0.000 A 
ATOM     15  N   UNL     1       3.045  16.330  17.603  0.00  0.00    +0.000 NA
ATOM     16  C   UNL     1       3.631  15.116  17.619  0.00  0.00    +0.000 A 
ATOM     17  C   UNL     1       3.110  14.017  18.284  0.00  0.00    +0.000 A 
ENDBRANCH   8  12
BRANCH   1  19
ATOM     18  C   UNL     1      -1.629  14.397  24.026  0.00  0.00    +0.000 C 
ATOM     19  C   UNL     1      -1.226  13.353  23.356  0.00  0.00    +0.000 C 
BRANCH  18  21
ATOM     20  C   UNL     1      -1.330  15.743  26.107  0.00  0.00    +0.000 C 
ATOM     21  C   UNL     1      -2.097  15.614  24.807  0.00  0.00    +0.000 C 
ATOM     22  F   UNL     1      -1.858  16.714  24.046  0.00  0.00    +0.000 F 
ENDBRANCH  18  21
ENDBRANCH   1  19
BRANCH   6  23
ATOM     23  C   UNL     1       2.257   9.083  18.387  0.00  0.00    +0.000 C 
BRANCH  23  24
ATOM     24  C   UNL     1       2.648   7.606  18.733  0.00  0.00    +0.000 C 
BRANCH  24  25
ATOM     25  N   UNL     1       2.148   7.261  20.081  0.00  0.00    +0.000 NA
ATOM     26  H   UNL     1       1.247   7.714  20.229  0.00  0.00    +0.000 HD
ATOM     27  H   UNL     1       2.772   7.698  20.764  0.00  0.00    +0.000 HD
ENDBRANCH  24  25
BRANCH  24  28
ATOM     28  C   UNL     1       2.169   6.599  17.660  0.00  0.00    +0.000 C 
BRANCH  28  29
ATOM     29  C   UNL     1       2.492   5.138  17.936  0.00  0.00    +0.000 A 
ATOM     30  C   UNL     1       3.828   4.730  18.077  0.00  0.00    +0.000 A 
ATOM     31  C   UNL     1       4.152   3.397  18.337  0.00  0.00    +0.000 A 
ATOM     32  C   UNL     1       3.142   2.442  18.466  0.00  0.00    +0.000 A 
ATOM     33  C   UNL     1       1.810   2.832  18.339  0.00  0.00    +0.000 A 
ATOM     34  C   UNL     1       1.486   4.170  18.080  0.00  0.00    +0.000 A 
ENDBRANCH  28  29
ENDBRANCH  24  28
ENDBRANCH  23  24
ENDBRANCH   6  23
TORSDOF 8
ENDMDL
