MODEL 1
REMARK VINA RESULT:      -7.7      0.000      0.000
REMARK  Name = 
REMARK  6 active torsions:
REMARK  status: ('A' for Active; 'I' for Inactive)
REMARK    1  A    between atoms: C_1  and  O_2
REMARK    2  A    between atoms: O_2  and  C_3
REMARK    3  A    between atoms: C_6  and  C_7
REMARK    4  A    between atoms: C_9  and  S_10
REMARK    5  A    between atoms: S_10  and  N_13
REMARK    6  A    between atoms: C_15  and  N_16
REMARK                            x       y       z     vdW  Elec       q    Type
REMARK                         _______ _______ _______ _____ _____    ______ ____
ROOT
ATOM      1  N   UNL     1       2.653   5.286  18.406  0.00  0.00    +0.000 NA
ATOM      2  C   UNL     1       3.030   5.888  19.721  0.00  0.00    +0.000 C 
ATOM      3  C   UNL     1       3.161   7.292  19.085  0.00  0.00    +0.000 C 
ATOM      4  C   UNL     1       3.095   6.544  17.727  0.00  0.00    +0.000 C 
ENDROOT
BRANCH   3   5
ATOM      5  N   UNL     1       2.032   8.220  19.293  0.00  0.00    +0.000 N 
ATOM      6  C   UNL     1       1.649   9.145  18.367  0.00  0.00    +0.000 C 
ATOM      7  O   UNL     1       2.269   9.440  17.352  0.00  0.00    +0.000 OA
ATOM      8  C   UNL     1       0.311   9.721  18.765  0.00  0.00    +0.000 C 
ATOM      9  C   UNL     1       0.214  11.230  18.555  0.00  0.00    +0.000 C 
ATOM     10  C   UNL     1       0.084  12.051  19.794  0.00  0.00    +0.000 C 
ATOM     11  C   UNL     1      -0.140  11.550  21.012  0.00  0.00    +0.000 C 
ATOM     12  C   UNL     1      -0.291  10.095  21.303  0.00  0.00    +0.000 C 
ATOM     13  C   UNL     1       0.076   9.147  20.165  0.00  0.00    +0.000 C 
ATOM     14  C   UNL     1       1.330   8.361  20.459  0.00  0.00    +0.000 C 
ATOM     15  O   UNL     1       1.626   7.896  21.547  0.00  0.00    +0.000 OA
ENDBRANCH   3   5
BRANCH   1  16
ATOM     16  S   UNL     1       3.160   3.747  17.888  0.00  0.00    +0.000 S 
ATOM     17  O   UNL     1       2.193   3.231  16.943  0.00  0.00    +0.000 OA
ATOM     18  O   UNL     1       3.470   3.006  19.093  0.00  0.00    +0.000 OA
BRANCH  16  25
ATOM     19  C   UNL     1       5.860   4.452  17.711  0.00  0.00    +0.000 A 
ATOM     20  C   UNL     1       7.009   4.721  16.954  0.00  0.00    +0.000 A 
ATOM     21  C   UNL     1       7.006   4.587  15.562  0.00  0.00    +0.000 A 
ATOM     22  C   UNL     1       5.849   4.191  14.893  0.00  0.00    +0.000 A 
ATOM     23  C   UNL     1       5.820   4.060  13.399  0.00  0.00    +0.000 C 
ATOM     24  C   UNL     1       4.695   3.931  15.637  0.00  0.00    +0.000 A 
ATOM     25  C   UNL     1       4.695   4.058  17.039  0.00  0.00    +0.000 A 
BRANCH  19  27
ATOM     26  C   UNL     1       6.863   5.394  19.646  0.00  0.00    +0.000 C 
ATOM     27  O   UNL     1       5.824   4.605  19.069  0.00  0.00    +0.000 OA
ENDBRANCH  19  27
ENDBRANCH  16  25
ENDBRANCH   1  16
TORSDOF 4
ENDMDL
MODEL 2
REMARK VINA RESULT:      -7.6      1.181      2.122
REMARK  Name = 
REMARK  6 active torsions:
REMARK  status: ('A' for Active; 'I' for Inactive)
REMARK    1  A    between atoms: C_1  and  O_2
REMARK    2  A    between atoms: O_2  and  C_3
REMARK    3  A    between atoms: C_6  and  C_7
REMARK    4  A    between atoms: C_9  and  S_10
REMARK    5  A    between atoms: S_10  and  N_13
REMARK    6  A    between atoms: C_15  and  N_16
REMARK                            x       y       z     vdW  Elec       q    Type
REMARK                         _______ _______ _______ _____ _____    ______ ____
ROOT
ATOM      1  N   UNL     1       3.325   4.723  18.828  0.00  0.00    +0.000 NA
ATOM      2  C   UNL     1       1.959   4.718  19.435  0.00  0.00    +0.000 C 
ATOM      3  C   UNL     1       2.336   5.878  20.388  0.00  0.00    +0.000 C 
ATOM      4  C   UNL     1       3.798   5.594  19.949  0.00  0.00    +0.000 C 
ENDROOT
BRANCH   3   5
ATOM      5  N   UNL     1       1.866   7.224  20.009  0.00  0.00    +0.000 N 
ATOM      6  C   UNL     1       1.193   8.046  20.865  0.00  0.00    +0.000 C 
ATOM      7  O   UNL     1       0.753   7.727  21.963  0.00  0.00    +0.000 OA
ATOM      8  C   UNL     1       1.115   9.430  20.266  0.00  0.00    +0.000 C 
ATOM      9  C   UNL     1      -0.243  10.098  20.458  0.00  0.00    +0.000 C 
ATOM     10  C   UNL     1      -1.031  10.338  19.215  0.00  0.00    +0.000 C 
ATOM     11  C   UNL     1      -0.551  10.188  17.977  0.00  0.00    +0.000 C 
ATOM     12  C   UNL     1       0.842   9.757  17.666  0.00  0.00    +0.000 C 
ATOM     13  C   UNL     1       1.657   9.237  18.846  0.00  0.00    +0.000 C 
ATOM     14  C   UNL     1       1.922   7.755  18.749  0.00  0.00    +0.000 C 
ATOM     15  O   UNL     1       2.188   7.157  17.719  0.00  0.00    +0.000 OA
ENDBRANCH   3   5
BRANCH   1  16
ATOM     16  S   UNL     1       4.157   3.315  18.357  0.00  0.00    +0.000 S 
ATOM     17  O   UNL     1       3.232   2.429  17.685  0.00  0.00    +0.000 OA
ATOM     18  O   UNL     1       4.874   2.867  19.533  0.00  0.00    +0.000 OA
BRANCH  16  25
ATOM     19  C   UNL     1       6.531   4.568  17.573  0.00  0.00    +0.000 A 
ATOM     20  C   UNL     1       7.400   5.031  16.575  0.00  0.00    +0.000 A 
ATOM     21  C   UNL     1       7.125   4.820  15.220  0.00  0.00    +0.000 A 
ATOM     22  C   UNL     1       5.966   4.149  14.831  0.00  0.00    +0.000 A 
ATOM     23  C   UNL     1       5.643   3.930  13.383  0.00  0.00    +0.000 C 
ATOM     24  C   UNL     1       5.087   3.693  15.818  0.00  0.00    +0.000 A 
ATOM     25  C   UNL     1       5.365   3.897  17.182  0.00  0.00    +0.000 A 
BRANCH  19  27
ATOM     26  C   UNL     1       7.772   5.738  19.224  0.00  0.00    +0.000 C 
ATOM     27  O   UNL     1       6.758   4.787  18.903  0.00  0.00    +0.000 OA
ENDBRANCH  19  27
ENDBRANCH  16  25
ENDBRANCH   1  16
TORSDOF 4
ENDMDL
MODEL 3
REMARK VINA RESULT:      -7.5      1.022      1.221
REMARK  Name = 
REMARK  6 active torsions:
REMARK  status: ('A' for Active; 'I' for Inactive)
REMARK    1  A    between atoms: C_1  and  O_2
REMARK    2  A    between atoms: O_2  and  C_3
REMARK    3  A    between atoms: C_6  and  C_7
REMARK    4  A    between atoms: C_9  and  S_10
REMARK    5  A    between atoms: S_10  and  N_13
REMARK    6  A    between atoms: C_15  and  N_16
REMARK                            x       y       z     vdW  Elec       q    Type
REMARK                         _______ _______ _______ _____ _____    ______ ____
ROOT
ATOM      1  N   UNL     1       3.161   4.942  18.717  0.00  0.00    +0.000 NA
ATOM      2  C   UNL     1       1.933   5.037  19.563  0.00  0.00    +0.000 C 
ATOM      3  C   UNL     1       2.475   6.301  20.275  0.00  0.00    +0.000 C 
ATOM      4  C   UNL     1       3.830   5.938  19.610  0.00  0.00    +0.000 C 
ENDROOT
BRANCH   3   5
ATOM      5  N   UNL     1       1.934   7.597  19.823  0.00  0.00    +0.000 N 
ATOM      6  C   UNL     1       2.230   8.144  18.609  0.00  0.00    +0.000 C 
ATOM      7  O   UNL     1       3.086   7.739  17.831  0.00  0.00    +0.000 OA
ATOM      8  C   UNL     1       1.303   9.308  18.350  0.00  0.00    +0.000 C 
ATOM      9  C   UNL     1       2.002  10.511  17.722  0.00  0.00    +0.000 C 
ATOM     10  C   UNL     1       2.073  11.736  18.571  0.00  0.00    +0.000 C 
ATOM     11  C   UNL     1       1.416  11.895  19.723  0.00  0.00    +0.000 C 
ATOM     12  C   UNL     1       0.517  10.867  20.323  0.00  0.00    +0.000 C 
ATOM     13  C   UNL     1       0.568   9.484  19.681  0.00  0.00    +0.000 C 
ATOM     14  C   UNL     1       1.195   8.455  20.590  0.00  0.00    +0.000 C 
ATOM     15  O   UNL     1       1.022   8.388  21.796  0.00  0.00    +0.000 OA
ENDBRANCH   3   5
BRANCH   1  16
ATOM     16  S   UNL     1       3.900   3.471  18.282  0.00  0.00    +0.000 S 
ATOM     17  O   UNL     1       2.941   2.666  17.556  0.00  0.00    +0.000 OA
ATOM     18  O   UNL     1       4.514   2.963  19.490  0.00  0.00    +0.000 OA
BRANCH  16  25
ATOM     19  C   UNL     1       6.411   4.513  17.631  0.00  0.00    +0.000 A 
ATOM     20  C   UNL     1       7.367   4.907  16.684  0.00  0.00    +0.000 A 
ATOM     21  C   UNL     1       7.141   4.737  15.314  0.00  0.00    +0.000 A 
ATOM     22  C   UNL     1       5.947   4.177  14.860  0.00  0.00    +0.000 A 
ATOM     23  C   UNL     1       5.677   4.004  13.395  0.00  0.00    +0.000 C 
ATOM     24  C   UNL     1       4.983   3.791  15.796  0.00  0.00    +0.000 A 
ATOM     25  C   UNL     1       5.210   3.955  17.175  0.00  0.00    +0.000 A 
BRANCH  19  27
ATOM     26  C   UNL     1       7.577   5.655  19.356  0.00  0.00    +0.000 C 
ATOM     27  O   UNL     1       6.592   4.697  18.974  0.00  0.00    +0.000 OA
ENDBRANCH  19  27
ENDBRANCH  16  25
ENDBRANCH   1  16
TORSDOF 4
ENDMDL
MODEL 4
REMARK VINA RESULT:      -7.2      1.104      2.100
REMARK  Name = 
REMARK  6 active torsions:
REMARK  status: ('A' for Active; 'I' for Inactive)
REMARK    1  A    between atoms: C_1  and  O_2
REMARK    2  A    between atoms: O_2  and  C_3
REMARK    3  A    between atoms: C_6  and  C_7
REMARK    4  A    between atoms: C_9  and  S_10
REMARK    5  A    between atoms: S_10  and  N_13
REMARK    6  A    between atoms: C_15  and  N_16
REMARK                            x       y       z     vdW  Elec       q    Type
REMARK                         _______ _______ _______ _____ _____    ______ ____
ROOT
ATOM      1  N   UNL     1       3.504   5.158  18.789  0.00  0.00    +0.000 NA
ATOM      2  C   UNL     1       3.771   6.421  18.035  0.00  0.00    +0.000 C 
ATOM      3  C   UNL     1       2.275   6.812  18.085  0.00  0.00    +0.000 C 
ATOM      4  C   UNL     1       2.039   5.352  18.554  0.00  0.00    +0.000 C 
ENDROOT
BRANCH   3   5
ATOM      5  N   UNL     1       1.888   7.817  19.093  0.00  0.00    +0.000 N 
ATOM      6  C   UNL     1       1.672   7.510  20.405  0.00  0.00    +0.000 C 
ATOM      7  O   UNL     1       1.603   6.380  20.873  0.00  0.00    +0.000 OA
ATOM      8  C   UNL     1       1.577   8.789  21.204  0.00  0.00    +0.000 C 
ATOM      9  C   UNL     1       0.474   8.764  22.257  0.00  0.00    +0.000 C 
ATOM     10  C   UNL     1      -0.658   9.711  22.036  0.00  0.00    +0.000 C 
ATOM     11  C   UNL     1      -0.664  10.676  21.112  0.00  0.00    +0.000 C 
ATOM     12  C   UNL     1       0.463  10.941  20.171  0.00  0.00    +0.000 C 
ATOM     13  C   UNL     1       1.560   9.882  20.132  0.00  0.00    +0.000 C 
ATOM     14  C   UNL     1       1.573   9.122  18.828  0.00  0.00    +0.000 C 
ATOM     15  O   UNL     1       1.381   9.615  17.728  0.00  0.00    +0.000 OA
ENDBRANCH   3   5
BRANCH   1  16
ATOM     16  S   UNL     1       4.287   3.681  18.471  0.00  0.00    +0.000 S 
ATOM     17  O   UNL     1       3.316   2.738  17.959  0.00  0.00    +0.000 OA
ATOM     18  O   UNL     1       5.047   3.370  19.664  0.00  0.00    +0.000 OA
BRANCH  16  25
ATOM     19  C   UNL     1       6.708   4.636  17.449  0.00  0.00    +0.000 A 
ATOM     20  C   UNL     1       7.539   4.958  16.366  0.00  0.00    +0.000 A 
ATOM     21  C   UNL     1       7.139   4.715  15.048  0.00  0.00    +0.000 A 
ATOM     22  C   UNL     1       5.890   4.153  14.782  0.00  0.00    +0.000 A 
ATOM     23  C   UNL     1       5.434   3.903  13.376  0.00  0.00    +0.000 C 
ATOM     24  C   UNL     1       5.049   3.839  15.854  0.00  0.00    +0.000 A 
ATOM     25  C   UNL     1       5.452   4.076  17.181  0.00  0.00    +0.000 A 
BRANCH  19  27
ATOM     26  C   UNL     1       7.849   6.059  18.969  0.00  0.00    +0.000 C 
ATOM     27  O   UNL     1       7.060   4.892  18.744  0.00  0.00    +0.000 OA
ENDBRANCH  19  27
ENDBRANCH  16  25
ENDBRANCH   1  16
TORSDOF 4
ENDMDL
MODEL 5
REMARK VINA RESULT:      -7.2      1.479      2.970
REMARK  Name = 
REMARK  6 active torsions:
REMARK  status: ('A' for Active; 'I' for Inactive)
REMARK    1  A    between atoms: C_1  and  O_2
REMARK    2  A    between atoms: O_2  and  C_3
REMARK    3  A    between atoms: C_6  and  C_7
REMARK    4  A    between atoms: C_9  and  S_10
REMARK    5  A    between atoms: S_10  and  N_13
REMARK    6  A    between atoms: C_15  and  N_16
REMARK                            x       y       z     vdW  Elec       q    Type
REMARK                         _______ _______ _______ _____ _____    ______ ____
ROOT
ATOM      1  N   UNL     1       4.934   6.395  18.587  0.00  0.00    +0.000 NA
ATOM      2  C   UNL     1       4.001   6.802  17.493  0.00  0.00    +0.000 C 
ATOM      3  C   UNL     1       2.771   6.571  18.403  0.00  0.00    +0.000 C 
ATOM      4  C   UNL     1       3.768   5.854  19.353  0.00  0.00    +0.000 C 
ENDROOT
BRANCH   3   5
ATOM      5  N   UNL     1       2.158   7.772  19.002  0.00  0.00    +0.000 N 
ATOM      6  C   UNL     1       1.615   7.784  20.254  0.00  0.00    +0.000 C 
ATOM      7  O   UNL     1       1.413   6.800  20.956  0.00  0.00    +0.000 OA
ATOM      8  C   UNL     1       1.341   9.212  20.661  0.00  0.00    +0.000 C 
ATOM      9  C   UNL     1       0.007   9.392  21.381  0.00  0.00    +0.000 C 
ATOM     10  C   UNL     1      -1.019  10.199  20.659  0.00  0.00    +0.000 C 
ATOM     11  C   UNL     1      -0.778  10.908  19.553  0.00  0.00    +0.000 C 
ATOM     12  C   UNL     1       0.553  10.991  18.884  0.00  0.00    +0.000 C 
ATOM     13  C   UNL     1       1.609  10.009  19.381  0.00  0.00    +0.000 C 
ATOM     14  C   UNL     1       1.939   8.955  18.352  0.00  0.00    +0.000 C 
ATOM     15  O   UNL     1       2.037   9.155  17.152  0.00  0.00    +0.000 OA
ENDBRANCH   3   5
BRANCH   1  16
ATOM     16  S   UNL     1       6.354   5.491  18.335  0.00  0.00    +0.000 S 
ATOM     17  O   UNL     1       6.377   4.388  19.272  0.00  0.00    +0.000 OA
ATOM     18  O   UNL     1       7.437   6.451  18.311  0.00  0.00    +0.000 OA
BRANCH  16  25
ATOM     19  C   UNL     1       5.254   3.836  16.367  0.00  0.00    +0.000 A 
ATOM     20  C   UNL     1       5.213   3.359  15.050  0.00  0.00    +0.000 A 
ATOM     21  C   UNL     1       6.054   3.885  14.063  0.00  0.00    +0.000 A 
ATOM     22  C   UNL     1       6.964   4.895  14.376  0.00  0.00    +0.000 A 
ATOM     23  C   UNL     1       7.887   5.459  13.337  0.00  0.00    +0.000 C 
ATOM     24  C   UNL     1       7.020   5.370  15.689  0.00  0.00    +0.000 A 
ATOM     25  C   UNL     1       6.171   4.848  16.683  0.00  0.00    +0.000 A 
BRANCH  19  27
ATOM     26  C   UNL     1       3.080   3.174  17.057  0.00  0.00    +0.000 C 
ATOM     27  O   UNL     1       4.467   3.319  17.358  0.00  0.00    +0.000 OA
ENDBRANCH  19  27
ENDBRANCH  16  25
ENDBRANCH   1  16
TORSDOF 4
ENDMDL
MODEL 6
REMARK VINA RESULT:      -7.1      3.115      8.159
REMARK  Name = 
REMARK  6 active torsions:
REMARK  status: ('A' for Active; 'I' for Inactive)
REMARK    1  A    between atoms: C_1  and  O_2
REMARK    2  A    between atoms: O_2  and  C_3
REMARK    3  A    between atoms: C_6  and  C_7
REMARK    4  A    between atoms: C_9  and  S_10
REMARK    5  A    between atoms: S_10  and  N_13
REMARK    6  A    between atoms: C_15  and  N_16
REMARK                            x       y       z     vdW  Elec       q    Type
REMARK                         _______ _______ _______ _____ _____    ______ ____
ROOT
ATOM      1  N   UNL     1       1.223   9.061  19.212  0.00  0.00    +0.000 NA
ATOM      2  C   UNL     1       2.309   8.635  18.279  0.00  0.00    +0.000 C 
ATOM      3  C   UNL     1       2.769   7.528  19.257  0.00  0.00    +0.000 C 
ATOM      4  C   UNL     1       1.854   8.238  20.291  0.00  0.00    +0.000 C 
ENDROOT
BRANCH   3   5
ATOM      5  N   UNL     1       2.337   6.151  18.948  0.00  0.00    +0.000 N 
ATOM      6  C   UNL     1       1.560   5.409  19.788  0.00  0.00    +0.000 C 
ATOM      7  O   UNL     1       1.270   5.703  20.942  0.00  0.00    +0.000 OA
ATOM      8  C   UNL     1       1.071   4.181  19.056  0.00  0.00    +0.000 C 
ATOM      9  C   UNL     1       1.107   2.914  19.906  0.00  0.00    +0.000 C 
ATOM     10  C   UNL     1       2.070   1.864  19.467  0.00  0.00    +0.000 C 
ATOM     11  C   UNL     1       2.734   1.886  18.308  0.00  0.00    +0.000 C 
ATOM     12  C   UNL     1       2.604   2.969  17.290  0.00  0.00    +0.000 C 
ATOM     13  C   UNL     1       1.849   4.216  17.738  0.00  0.00    +0.000 C 
ATOM     14  C   UNL     1       2.756   5.414  17.874  0.00  0.00    +0.000 C 
ATOM     15  O   UNL     1       3.672   5.689  17.117  0.00  0.00    +0.000 OA
ENDBRANCH   3   5
BRANCH   1  16
ATOM     16  S   UNL     1       0.764  10.682  19.456  0.00  0.00    +0.000 S 
ATOM     17  O   UNL     1       1.673  11.538  18.724  0.00  0.00    +0.000 OA
ATOM     18  O   UNL     1       0.606  10.838  20.887  0.00  0.00    +0.000 OA
BRANCH  16  25
ATOM     19  C   UNL     1      -1.905  11.504  19.317  0.00  0.00    +0.000 A 
ATOM     20  C   UNL     1      -3.159  11.493  18.691  0.00  0.00    +0.000 A 
ATOM     21  C   UNL     1      -3.364  10.802  17.492  0.00  0.00    +0.000 A 
ATOM     22  C   UNL     1      -2.320  10.095  16.897  0.00  0.00    +0.000 A 
ATOM     23  C   UNL     1      -2.524   9.331  15.623  0.00  0.00    +0.000 C 
ATOM     24  C   UNL     1      -1.068  10.090  17.520  0.00  0.00    +0.000 A 
ATOM     25  C   UNL     1      -0.856  10.790  18.722  0.00  0.00    +0.000 A 
BRANCH  19  27
ATOM     26  C   UNL     1      -1.816  13.564  20.493  0.00  0.00    +0.000 C 
ATOM     27  O   UNL     1      -1.684  12.144  20.504  0.00  0.00    +0.000 OA
ENDBRANCH  19  27
ENDBRANCH  16  25
ENDBRANCH   1  16
TORSDOF 4
ENDMDL
MODEL 7
REMARK VINA RESULT:      -7.0      3.142      8.300
REMARK  Name = 
REMARK  6 active torsions:
REMARK  status: ('A' for Active; 'I' for Inactive)
REMARK    1  A    between atoms: C_1  and  O_2
REMARK    2  A    between atoms: O_2  and  C_3
REMARK    3  A    between atoms: C_6  and  C_7
REMARK    4  A    between atoms: C_9  and  S_10
REMARK    5  A    between atoms: S_10  and  N_13
REMARK    6  A    between atoms: C_15  and  N_16
REMARK                            x       y       z     vdW  Elec       q    Type
REMARK                         _______ _______ _______ _____ _____    ______ ____
ROOT
ATOM      1  N   UNL     1       0.804   8.643  20.549  0.00  0.00    +0.000 NA
ATOM      2  C   UNL     1       1.728   8.650  19.374  0.00  0.00    +0.000 C 
ATOM      3  C   UNL     1       2.525   7.452  19.945  0.00  0.00    +0.000 C 
ATOM      4  C   UNL     1       1.748   7.727  21.261  0.00  0.00    +0.000 C 
ENDROOT
BRANCH   3   5
ATOM      5  N   UNL     1       2.234   6.128  19.364  0.00  0.00    +0.000 N 
ATOM      6  C   UNL     1       1.676   5.108  20.079  0.00  0.00    +0.000 C 
ATOM      7  O   UNL     1       1.507   5.094  21.292  0.00  0.00    +0.000 OA
ATOM      8  C   UNL     1       1.255   4.011  19.130  0.00  0.00    +0.000 C 
ATOM      9  C   UNL     1       1.564   2.609  19.649  0.00  0.00    +0.000 C 
ATOM     10  C   UNL     1       2.586   1.842  18.880  0.00  0.00    +0.000 C 
ATOM     11  C   UNL     1       3.082   2.221  17.699  0.00  0.00    +0.000 C 
ATOM     12  C   UNL     1       2.682   3.467  16.983  0.00  0.00    +0.000 C 
ATOM     13  C   UNL     1       1.840   4.453  17.786  0.00  0.00    +0.000 C 
ATOM     14  C   UNL     1       2.598   5.718  18.110  0.00  0.00    +0.000 C 
ATOM     15  O   UNL     1       3.363   6.290  17.352  0.00  0.00    +0.000 OA
ENDBRANCH   3   5
BRANCH   1  16
ATOM     16  S   UNL     1       0.184  10.053  21.274  0.00  0.00    +0.000 S 
ATOM     17  O   UNL     1       1.269  10.989  21.475  0.00  0.00    +0.000 OA
ATOM     18  O   UNL     1      -0.609   9.603  22.399  0.00  0.00    +0.000 OA
BRANCH  16  25
ATOM     19  C   UNL     1      -1.685  11.876  20.274  0.00  0.00    +0.000 A 
ATOM     20  C   UNL     1      -2.577  12.293  19.276  0.00  0.00    +0.000 A 
ATOM     21  C   UNL     1      -2.712  11.578  18.081  0.00  0.00    +0.000 A 
ATOM     22  C   UNL     1      -1.964  10.422  17.861  0.00  0.00    +0.000 A 
ATOM     23  C   UNL     1      -2.108   9.631  16.596  0.00  0.00    +0.000 C 
ATOM     24  C   UNL     1      -1.080   9.992  18.855  0.00  0.00    +0.000 A 
ATOM     25  C   UNL     1      -0.936  10.712  20.055  0.00  0.00    +0.000 A 
BRANCH  19  27
ATOM     26  C   UNL     1      -2.681  12.490  22.340  0.00  0.00    +0.000 C 
ATOM     27  O   UNL     1      -1.556  12.536  21.464  0.00  0.00    +0.000 OA
ENDBRANCH  19  27
ENDBRANCH  16  25
ENDBRANCH   1  16
TORSDOF 4
ENDMDL
MODEL 8
REMARK VINA RESULT:      -6.9      3.072      8.076
REMARK  Name = 
REMARK  6 active torsions:
REMARK  status: ('A' for Active; 'I' for Inactive)
REMARK    1  A    between atoms: C_1  and  O_2
REMARK    2  A    between atoms: O_2  and  C_3
REMARK    3  A    between atoms: C_6  and  C_7
REMARK    4  A    between atoms: C_9  and  S_10
REMARK    5  A    between atoms: S_10  and  N_13
REMARK    6  A    between atoms: C_15  and  N_16
REMARK                            x       y       z     vdW  Elec       q    Type
REMARK                         _______ _______ _______ _____ _____    ______ ____
ROOT
ATOM      1  N   UNL     1       0.907   8.542  20.363  0.00  0.00    +0.000 NA
ATOM      2  C   UNL     1       1.893   8.498  19.241  0.00  0.00    +0.000 C 
ATOM      3  C   UNL     1       2.624   7.293  19.879  0.00  0.00    +0.000 C 
ATOM      4  C   UNL     1       1.786   7.616  21.144  0.00  0.00    +0.000 C 
ENDROOT
BRANCH   3   5
ATOM      5  N   UNL     1       2.329   5.964  19.309  0.00  0.00    +0.000 N 
ATOM      6  C   UNL     1       1.732   4.965  20.020  0.00  0.00    +0.000 C 
ATOM      7  O   UNL     1       1.525   4.973  21.228  0.00  0.00    +0.000 OA
ATOM      8  C   UNL     1       1.321   3.861  19.076  0.00  0.00    +0.000 C 
ATOM      9  C   UNL     1       1.590   2.462  19.625  0.00  0.00    +0.000 C 
ATOM     10  C   UNL     1       2.622   1.666  18.901  0.00  0.00    +0.000 C 
ATOM     11  C   UNL     1       3.161   2.018  17.730  0.00  0.00    +0.000 C 
ATOM     12  C   UNL     1       2.805   3.259  16.983  0.00  0.00    +0.000 C 
ATOM     13  C   UNL     1       1.956   4.272  17.744  0.00  0.00    +0.000 C 
ATOM     14  C   UNL     1       2.724   5.529  18.073  0.00  0.00    +0.000 C 
ATOM     15  O   UNL     1       3.523   6.076  17.331  0.00  0.00    +0.000 OA
ENDBRANCH   3   5
BRANCH   1  16
ATOM     16  S   UNL     1       0.288   9.982  21.026  0.00  0.00    +0.000 S 
ATOM     17  O   UNL     1       1.393  10.798  21.482  0.00  0.00    +0.000 OA
ATOM     18  O   UNL     1      -0.751   9.579  21.950  0.00  0.00    +0.000 OA
BRANCH  16  25
ATOM     19  C   UNL     1      -0.316  12.149  19.365  0.00  0.00    +0.000 A 
ATOM     20  C   UNL     1      -1.016  12.709  18.288  0.00  0.00    +0.000 A 
ATOM     21  C   UNL     1      -1.871  11.933  17.498  0.00  0.00    +0.000 A 
ATOM     22  C   UNL     1      -2.054  10.579  17.776  0.00  0.00    +0.000 A 
ATOM     23  C   UNL     1      -2.981   9.734  16.954  0.00  0.00    +0.000 C 
ATOM     24  C   UNL     1      -1.369  10.013  18.855  0.00  0.00    +0.000 A 
ATOM     25  C   UNL     1      -0.502  10.789  19.648  0.00  0.00    +0.000 A 
BRANCH  19  27
ATOM     26  C   UNL     1       1.375  13.809  19.519  0.00  0.00    +0.000 C 
ATOM     27  O   UNL     1       0.502  12.890  20.173  0.00  0.00    +0.000 OA
ENDBRANCH  19  27
ENDBRANCH  16  25
ENDBRANCH   1  16
TORSDOF 4
ENDMDL
MODEL 9
REMARK VINA RESULT:      -6.9      1.042      1.139
REMARK  Name = 
REMARK  6 active torsions:
REMARK  status: ('A' for Active; 'I' for Inactive)
REMARK    1  A    between atoms: C_1  and  O_2
REMARK    2  A    between atoms: O_2  and  C_3
REMARK    3  A    between atoms: C_6  and  C_7
REMARK    4  A    between atoms: C_9  and  S_10
REMARK    5  A    between atoms: S_10  and  N_13
REMARK    6  A    between atoms: C_15  and  N_16
REMARK                            x       y       z     vdW  Elec       q    Type
REMARK                         _______ _______ _______ _____ _____    ______ ____
ROOT
ATOM      1  N   UNL     1       1.972   5.632  18.551  0.00  0.00    +0.000 NA
ATOM      2  C   UNL     1       2.291   6.104  19.933  0.00  0.00    +0.000 C 
ATOM      3  C   UNL     1       2.629   7.521  19.413  0.00  0.00    +0.000 C 
ATOM      4  C   UNL     1       2.606   6.871  18.003  0.00  0.00    +0.000 C 
ENDROOT
BRANCH   3   5
ATOM      5  N   UNL     1       1.592   8.556  19.593  0.00  0.00    +0.000 N 
ATOM      6  C   UNL     1       1.261   9.454  18.621  0.00  0.00    +0.000 C 
ATOM      7  O   UNL     1       1.871   9.631  17.573  0.00  0.00    +0.000 OA
ATOM      8  C   UNL     1      -0.009  10.169  19.018  0.00  0.00    +0.000 C 
ATOM      9  C   UNL     1       0.018  11.665  18.717  0.00  0.00    +0.000 C 
ATOM     10  C   UNL     1       0.001  12.567  19.905  0.00  0.00    +0.000 C 
ATOM     11  C   UNL     1      -0.227  12.161  21.157  0.00  0.00    +0.000 C 
ATOM     12  C   UNL     1      -0.494  10.746  21.543  0.00  0.00    +0.000 C 
ATOM     13  C   UNL     1      -0.248   9.703  20.458  0.00  0.00    +0.000 C 
ATOM     14  C   UNL     1       0.942   8.827  20.766  0.00  0.00    +0.000 C 
ATOM     15  O   UNL     1       1.233   8.405  21.873  0.00  0.00    +0.000 OA
ENDBRANCH   3   5
BRANCH   1  16
ATOM     16  S   UNL     1       2.356   4.080  17.968  0.00  0.00    +0.000 S 
ATOM     17  O   UNL     1       1.614   3.844  16.748  0.00  0.00    +0.000 OA
ATOM     18  O   UNL     1       2.208   3.184  19.096  0.00  0.00    +0.000 OA
BRANCH  16  25
ATOM     19  C   UNL     1       5.088   4.037  18.561  0.00  0.00    +0.000 A 
ATOM     20  C   UNL     1       6.428   4.176  18.174  0.00  0.00    +0.000 A 
ATOM     21  C   UNL     1       6.774   4.435  16.843  0.00  0.00    +0.000 A 
ATOM     22  C   UNL     1       5.785   4.570  15.870  0.00  0.00    +0.000 A 
ATOM     23  C   UNL     1       6.134   4.866  14.442  0.00  0.00    +0.000 C 
ATOM     24  C   UNL     1       4.445   4.444  16.248  0.00  0.00    +0.000 A 
ATOM     25  C   UNL     1       4.093   4.177  17.584  0.00  0.00    +0.000 A 
BRANCH  19  27
ATOM     26  C   UNL     1       4.772   2.465  20.312  0.00  0.00    +0.000 C 
ATOM     27  O   UNL     1       4.719   3.816  19.859  0.00  0.00    +0.000 OA
ENDBRANCH  19  27
ENDBRANCH  16  25
ENDBRANCH   1  16
TORSDOF 4
ENDMDL
