MODEL 1
REMARK VINA RESULT:      -8.6      0.000      0.000
REMARK  Name = 
REMARK  4 active torsions:
REMARK  status: ('A' for Active; 'I' for Inactive)
REMARK    1  A    between atoms: C_1  and  O_2
REMARK    2  A    between atoms: O_2  and  C_3
REMARK    3  A    between atoms: C_6  and  C_7
REMARK    4  A    between atoms: C_9  and  C_10
REMARK                            x       y       z     vdW  Elec       q    Type
REMARK                         _______ _______ _______ _____ _____    ______ ____
ROOT
ATOM      1  C   UNL     1       2.644   7.246  19.491  0.00  0.00    +0.000 C 
ATOM      2  C   UNL     1       2.839   7.398  17.964  0.00  0.00    +0.000 C 
ATOM      3  C   UNL     1       3.676   6.230  17.404  0.00  0.00    +0.000 C 
ATOM      4  N   UNL     1       2.922   5.005  17.709  0.00  0.00    +0.000 N 
ATOM      5  C   UNL     1       2.554   4.806  18.997  0.00  0.00    +0.000 A 
ATOM      6  N   UNL     1       2.410   3.687  19.655  0.00  0.00    +0.000 NA
ATOM      7  C   UNL     1       2.248   4.114  20.940  0.00  0.00    +0.000 A 
ATOM      8  N   UNL     1       2.164   3.206  21.906  0.00  0.00    +0.000 N 
ATOM      9  N   UNL     1       2.212   5.433  21.117  0.00  0.00    +0.000 NA
ATOM     10  N   UNL     1       2.366   5.860  19.851  0.00  0.00    +0.000 N 
ATOM     11  H   UNL     1       3.217   4.175  17.205  0.00  0.00    +0.000 HD
ATOM     12  H   UNL     1       1.936   2.258  21.636  0.00  0.00    +0.000 HD
ATOM     13  H   UNL     1       1.806   3.508  22.801  0.00  0.00    +0.000 HD
ENDROOT
BRANCH   1  17
ATOM     14  C   UNL     1      -0.213  10.100  21.065  0.00  0.00    +0.000 A 
ATOM     15  C   UNL     1       0.237  10.219  19.750  0.00  0.00    +0.000 A 
ATOM     16  C   UNL     1       1.118   9.278  19.209  0.00  0.00    +0.000 A 
ATOM     17  C   UNL     1       1.585   8.213  19.994  0.00  0.00    +0.000 A 
ATOM     18  C   UNL     1       1.108   8.087  21.307  0.00  0.00    +0.000 A 
ATOM     19  C   UNL     1       0.216   9.023  21.839  0.00  0.00    +0.000 A 
BRANCH  14  21
ATOM     20  C   UNL     1      -1.151  11.251  22.906  0.00  0.00    +0.000 C 
ATOM     21  O   UNL     1      -1.026  11.111  21.495  0.00  0.00    +0.000 OA
ENDBRANCH  14  21
ENDBRANCH   1  17
BRANCH   3  22
ATOM     22  C   UNL     1       5.126   6.161  17.892  0.00  0.00    +0.000 A 
ATOM     23  C   UNL     1       6.119   6.987  17.331  0.00  0.00    +0.000 A 
ATOM     24  C   UNL     1       7.445   6.931  17.763  0.00  0.00    +0.000 A 
ATOM     25  C   UNL     1       7.808   6.060  18.785  0.00  0.00    +0.000 A 
ATOM     26  C   UNL     1       6.843   5.253  19.376  0.00  0.00    +0.000 A 
ATOM     27  C   UNL     1       5.514   5.311  18.943  0.00  0.00    +0.000 A 
ENDBRANCH   3  22
TORSDOF 3
ENDMDL
MODEL 2
REMARK VINA RESULT:      -8.4      3.537      7.256
REMARK  Name = 
REMARK  4 active torsions:
REMARK  status: ('A' for Active; 'I' for Inactive)
REMARK    1  A    between atoms: C_1  and  O_2
REMARK    2  A    between atoms: O_2  and  C_3
REMARK    3  A    between atoms: C_6  and  C_7
REMARK    4  A    between atoms: C_9  and  C_10
REMARK                            x       y       z     vdW  Elec       q    Type
REMARK                         _______ _______ _______ _____ _____    ______ ____
ROOT
ATOM      1  C   UNL     1       1.091   8.894  19.123  0.00  0.00    +0.000 C 
ATOM      2  C   UNL     1       1.380  10.050  18.138  0.00  0.00    +0.000 C 
ATOM      3  C   UNL     1       0.495  11.272  18.458  0.00  0.00    +0.000 C 
ATOM      4  N   UNL     1       0.830  11.670  19.833  0.00  0.00    +0.000 N 
ATOM      5  C   UNL     1       0.758  10.715  20.790  0.00  0.00    +0.000 A 
ATOM      6  N   UNL     1       0.449  10.830  22.054  0.00  0.00    +0.000 NA
ATOM      7  C   UNL     1       0.331   9.530  22.452  0.00  0.00    +0.000 A 
ATOM      8  N   UNL     1      -0.075   9.280  23.692  0.00  0.00    +0.000 N 
ATOM      9  N   UNL     1       0.615   8.610  21.534  0.00  0.00    +0.000 NA
ATOM     10  N   UNL     1       0.931   9.391  20.485  0.00  0.00    +0.000 N 
ATOM     11  H   UNL     1       0.509  12.592  20.110  0.00  0.00    +0.000 HD
ATOM     12  H   UNL     1      -0.001  10.030  24.368  0.00  0.00    +0.000 HD
ATOM     13  H   UNL     1       0.073   8.346  24.052  0.00  0.00    +0.000 HD
ENDROOT
BRANCH   1  17
ATOM     14  C   UNL     1       3.952   5.662  18.738  0.00  0.00    +0.000 A 
ATOM     15  C   UNL     1       3.922   6.681  17.787  0.00  0.00    +0.000 A 
ATOM     16  C   UNL     1       3.042   7.758  17.923  0.00  0.00    +0.000 A 
ATOM     17  C   UNL     1       2.154   7.814  19.007  0.00  0.00    +0.000 A 
ATOM     18  C   UNL     1       2.208   6.798  19.973  0.00  0.00    +0.000 A 
ATOM     19  C   UNL     1       3.100   5.729  19.839  0.00  0.00    +0.000 A 
BRANCH  14  21
ATOM     20  C   UNL     1       4.471   3.371  19.018  0.00  0.00    +0.000 C 
ATOM     21  O   UNL     1       4.815   4.637  18.466  0.00  0.00    +0.000 OA
ENDBRANCH  14  21
ENDBRANCH   1  17
BRANCH   3  22
ATOM     22  C   UNL     1      -1.010  11.069  18.258  0.00  0.00    +0.000 A 
ATOM     23  C   UNL     1      -1.945  11.933  18.861  0.00  0.00    +0.000 A 
ATOM     24  C   UNL     1      -3.319  11.755  18.690  0.00  0.00    +0.000 A 
ATOM     25  C   UNL     1      -3.794  10.721  17.892  0.00  0.00    +0.000 A 
ATOM     26  C   UNL     1      -2.894   9.870  17.261  0.00  0.00    +0.000 A 
ATOM     27  C   UNL     1      -1.517  10.049  17.432  0.00  0.00    +0.000 A 
ENDBRANCH   3  22
TORSDOF 3
ENDMDL
MODEL 3
REMARK VINA RESULT:      -8.4      0.935      1.177
REMARK  Name = 
REMARK  4 active torsions:
REMARK  status: ('A' for Active; 'I' for Inactive)
REMARK    1  A    between atoms: C_1  and  O_2
REMARK    2  A    between atoms: O_2  and  C_3
REMARK    3  A    between atoms: C_6  and  C_7
REMARK    4  A    between atoms: C_9  and  C_10
REMARK                            x       y       z     vdW  Elec       q    Type
REMARK                         _______ _______ _______ _____ _____    ______ ____
ROOT
ATOM      1  C   UNL     1       2.833   7.303  18.921  0.00  0.00    +0.000 C 
ATOM      2  C   UNL     1       3.213   7.253  17.422  0.00  0.00    +0.000 C 
ATOM      3  C   UNL     1       4.137   6.052  17.135  0.00  0.00    +0.000 C 
ATOM      4  N   UNL     1       3.377   4.852  17.515  0.00  0.00    +0.000 N 
ATOM      5  C   UNL     1       2.857   4.817  18.765  0.00  0.00    +0.000 A 
ATOM      6  N   UNL     1       2.656   3.793  19.551  0.00  0.00    +0.000 NA
ATOM      7  C   UNL     1       2.326   4.385  20.735  0.00  0.00    +0.000 A 
ATOM      8  N   UNL     1       2.142   3.615  21.801  0.00  0.00    +0.000 N 
ATOM      9  N   UNL     1       2.241   5.713  20.720  0.00  0.00    +0.000 NA
ATOM     10  N   UNL     1       2.541   5.970  19.434  0.00  0.00    +0.000 N 
ATOM     11  H   UNL     1       3.749   3.973  17.172  0.00  0.00    +0.000 HD
ATOM     12  H   UNL     1       1.968   2.630  21.641  0.00  0.00    +0.000 HD
ATOM     13  H   UNL     1       1.669   4.022  22.596  0.00  0.00    +0.000 HD
ENDROOT
BRANCH   1  17
ATOM     14  C   UNL     1      -0.243  10.259  19.683  0.00  0.00    +0.000 A 
ATOM     15  C   UNL     1       0.190  10.026  18.378  0.00  0.00    +0.000 A 
ATOM     16  C   UNL     1       1.143   9.040  18.107  0.00  0.00    +0.000 A 
ATOM     17  C   UNL     1       1.700   8.289  19.153  0.00  0.00    +0.000 A 
ATOM     18  C   UNL     1       1.242   8.513  20.459  0.00  0.00    +0.000 A 
ATOM     19  C   UNL     1       0.278   9.491  20.723  0.00  0.00    +0.000 A 
BRANCH  14  21
ATOM     20  C   UNL     1      -1.546  11.924  18.624  0.00  0.00    +0.000 C 
ATOM     21  O   UNL     1      -1.135  11.285  19.826  0.00  0.00    +0.000 OA
ENDBRANCH  14  21
ENDBRANCH   1  17
BRANCH   3  22
ATOM     22  C   UNL     1       5.516   6.105  17.798  0.00  0.00    +0.000 A 
ATOM     23  C   UNL     1       6.481   7.047  17.390  0.00  0.00    +0.000 A 
ATOM     24  C   UNL     1       7.743   7.103  17.983  0.00  0.00    +0.000 A 
ATOM     25  C   UNL     1       8.067   6.230  19.016  0.00  0.00    +0.000 A 
ATOM     26  C   UNL     1       7.125   5.308  19.459  0.00  0.00    +0.000 A 
ATOM     27  C   UNL     1       5.859   5.254  18.864  0.00  0.00    +0.000 A 
ENDBRANCH   3  22
TORSDOF 3
ENDMDL
MODEL 4
REMARK VINA RESULT:      -8.4      1.007      1.588
REMARK  Name = 
REMARK  4 active torsions:
REMARK  status: ('A' for Active; 'I' for Inactive)
REMARK    1  A    between atoms: C_1  and  O_2
REMARK    2  A    between atoms: O_2  and  C_3
REMARK    3  A    between atoms: C_6  and  C_7
REMARK    4  A    between atoms: C_9  and  C_10
REMARK                            x       y       z     vdW  Elec       q    Type
REMARK                         _______ _______ _______ _____ _____    ______ ____
ROOT
ATOM      1  C   UNL     1       2.883   7.427  18.864  0.00  0.00    +0.000 C 
ATOM      2  C   UNL     1       3.294   7.393  17.373  0.00  0.00    +0.000 C 
ATOM      3  C   UNL     1       4.179   6.163  17.081  0.00  0.00    +0.000 C 
ATOM      4  N   UNL     1       3.366   4.986  17.420  0.00  0.00    +0.000 N 
ATOM      5  C   UNL     1       2.816   4.946  18.657  0.00  0.00    +0.000 A 
ATOM      6  N   UNL     1       2.559   3.915  19.417  0.00  0.00    +0.000 NA
ATOM      7  C   UNL     1       2.225   4.495  20.605  0.00  0.00    +0.000 A 
ATOM      8  N   UNL     1       1.988   3.711  21.651  0.00  0.00    +0.000 N 
ATOM      9  N   UNL     1       2.190   5.825  20.616  0.00  0.00    +0.000 NA
ATOM     10  N   UNL     1       2.529   6.096  19.343  0.00  0.00    +0.000 N 
ATOM     11  H   UNL     1       3.713   4.100  17.066  0.00  0.00    +0.000 HD
ATOM     12  H   UNL     1       1.781   2.737  21.467  0.00  0.00    +0.000 HD
ATOM     13  H   UNL     1       1.512   4.120  22.443  0.00  0.00    +0.000 HD
ENDROOT
BRANCH   1  17
ATOM     14  C   UNL     1      -0.406  10.195  19.412  0.00  0.00    +0.000 A 
ATOM     15  C   UNL     1       0.157   9.557  20.517  0.00  0.00    +0.000 A 
ATOM     16  C   UNL     1       1.252   8.701  20.365  0.00  0.00    +0.000 A 
ATOM     17  C   UNL     1       1.782   8.450  19.091  0.00  0.00    +0.000 A 
ATOM     18  C   UNL     1       1.226   9.116  17.989  0.00  0.00    +0.000 A 
ATOM     19  C   UNL     1       0.139   9.981  18.148  0.00  0.00    +0.000 A 
BRANCH  14  21
ATOM     20  C   UNL     1      -2.030  11.704  18.586  0.00  0.00    +0.000 C 
ATOM     21  O   UNL     1      -1.506  10.962  19.682  0.00  0.00    +0.000 OA
ENDBRANCH  14  21
ENDBRANCH   1  17
BRANCH   3  22
ATOM     22  C   UNL     1       5.544   6.150  17.776  0.00  0.00    +0.000 A 
ATOM     23  C   UNL     1       6.549   7.068  17.414  0.00  0.00    +0.000 A 
ATOM     24  C   UNL     1       7.799   7.064  18.037  0.00  0.00    +0.000 A 
ATOM     25  C   UNL     1       8.069   6.154  19.053  0.00  0.00    +0.000 A 
ATOM     26  C   UNL     1       7.085   5.255  19.450  0.00  0.00    +0.000 A 
ATOM     27  C   UNL     1       5.833   5.261  18.827  0.00  0.00    +0.000 A 
ENDBRANCH   3  22
TORSDOF 3
ENDMDL
MODEL 5
REMARK VINA RESULT:      -8.3      3.491      7.269
REMARK  Name = 
REMARK  4 active torsions:
REMARK  status: ('A' for Active; 'I' for Inactive)
REMARK    1  A    between atoms: C_1  and  O_2
REMARK    2  A    between atoms: O_2  and  C_3
REMARK    3  A    between atoms: C_6  and  C_7
REMARK    4  A    between atoms: C_9  and  C_10
REMARK                            x       y       z     vdW  Elec       q    Type
REMARK                         _______ _______ _______ _____ _____    ______ ____
ROOT
ATOM      1  C   UNL     1       1.088   8.750  19.122  0.00  0.00    +0.000 C 
ATOM      2  C   UNL     1       1.420   9.873  18.111  0.00  0.00    +0.000 C 
ATOM      3  C   UNL     1       0.596  11.141  18.416  0.00  0.00    +0.000 C 
ATOM      4  N   UNL     1       0.965  11.548  19.779  0.00  0.00    +0.000 N 
ATOM      5  C   UNL     1       0.860  10.617  20.756  0.00  0.00    +0.000 A 
ATOM      6  N   UNL     1       0.571  10.770  22.020  0.00  0.00    +0.000 NA
ATOM      7  C   UNL     1       0.396   9.486  22.445  0.00  0.00    +0.000 A 
ATOM      8  N   UNL     1      -0.006   9.279  23.694  0.00  0.00    +0.000 N 
ATOM      9  N   UNL     1       0.627   8.536  21.543  0.00  0.00    +0.000 NA
ATOM     10  N   UNL     1       0.967   9.281  20.475  0.00  0.00    +0.000 N 
ATOM     11  H   UNL     1       0.691  12.490  20.041  0.00  0.00    +0.000 HD
ATOM     12  H   UNL     1       0.110  10.037  24.354  0.00  0.00    +0.000 HD
ATOM     13  H   UNL     1       0.101   8.347  24.071  0.00  0.00    +0.000 HD
ENDROOT
BRANCH   1  17
ATOM     14  C   UNL     1       4.136   5.679  18.881  0.00  0.00    +0.000 A 
ATOM     15  C   UNL     1       3.200   5.651  19.915  0.00  0.00    +0.000 A 
ATOM     16  C   UNL     1       2.179   6.603  19.979  0.00  0.00    +0.000 A 
ATOM     17  C   UNL     1       2.098   7.620  19.017  0.00  0.00    +0.000 A 
ATOM     18  C   UNL     1       3.028   7.626  17.966  0.00  0.00    +0.000 A 
ATOM     19  C   UNL     1       4.040   6.664  17.900  0.00  0.00    +0.000 A 
BRANCH  14  21
ATOM     20  C   UNL     1       4.681   3.404  19.227  0.00  0.00    +0.000 C 
ATOM     21  O   UNL     1       5.118   4.731  18.959  0.00  0.00    +0.000 OA
ENDBRANCH  14  21
ENDBRANCH   1  17
BRANCH   3  22
ATOM     22  C   UNL     1      -0.919  11.005  18.235  0.00  0.00    +0.000 A 
ATOM     23  C   UNL     1      -1.807  11.890  18.876  0.00  0.00    +0.000 A 
ATOM     24  C   UNL     1      -3.190  11.773  18.723  0.00  0.00    +0.000 A 
ATOM     25  C   UNL     1      -3.720  10.780  17.907  0.00  0.00    +0.000 A 
ATOM     26  C   UNL     1      -2.865   9.910  17.240  0.00  0.00    +0.000 A 
ATOM     27  C   UNL     1      -1.480  10.028  17.392  0.00  0.00    +0.000 A 
ENDBRANCH   3  22
TORSDOF 3
ENDMDL
MODEL 6
REMARK VINA RESULT:      -8.3      0.375      1.053
REMARK  Name = 
REMARK  4 active torsions:
REMARK  status: ('A' for Active; 'I' for Inactive)
REMARK    1  A    between atoms: C_1  and  O_2
REMARK    2  A    between atoms: O_2  and  C_3
REMARK    3  A    between atoms: C_6  and  C_7
REMARK    4  A    between atoms: C_9  and  C_10
REMARK                            x       y       z     vdW  Elec       q    Type
REMARK                         _______ _______ _______ _____ _____    ______ ____
ROOT
ATOM      1  C   UNL     1       2.616   7.190  19.496  0.00  0.00    +0.000 C 
ATOM      2  C   UNL     1       2.660   7.314  17.955  0.00  0.00    +0.000 C 
ATOM      3  C   UNL     1       3.352   6.085  17.330  0.00  0.00    +0.000 C 
ATOM      4  N   UNL     1       2.552   4.919  17.732  0.00  0.00    +0.000 N 
ATOM      5  C   UNL     1       2.309   4.758  19.054  0.00  0.00    +0.000 A 
ATOM      6  N   UNL     1       2.158   3.657  19.741  0.00  0.00    +0.000 NA
ATOM      7  C   UNL     1       2.161   4.106  21.029  0.00  0.00    +0.000 A 
ATOM      8  N   UNL     1       2.117   3.215  22.013  0.00  0.00    +0.000 N 
ATOM      9  N   UNL     1       2.233   5.426  21.187  0.00  0.00    +0.000 NA
ATOM     10  N   UNL     1       2.283   5.830  19.905  0.00  0.00    +0.000 N 
ATOM     11  H   UNL     1       2.736   4.066  17.213  0.00  0.00    +0.000 HD
ATOM     12  H   UNL     1       1.797   2.283  21.784  0.00  0.00    +0.000 HD
ATOM     13  H   UNL     1       1.875   3.550  22.936  0.00  0.00    +0.000 HD
ENDROOT
BRANCH   1  17
ATOM     14  C   UNL     1      -0.217  10.073  21.061  0.00  0.00    +0.000 A 
ATOM     15  C   UNL     1       0.270   9.058  21.885  0.00  0.00    +0.000 A 
ATOM     16  C   UNL     1       1.223   8.151  21.413  0.00  0.00    +0.000 A 
ATOM     17  C   UNL     1       1.683   8.233  20.091  0.00  0.00    +0.000 A 
ATOM     18  C   UNL     1       1.208   9.272  19.277  0.00  0.00    +0.000 A 
ATOM     19  C   UNL     1       0.264  10.185  19.757  0.00  0.00    +0.000 A 
BRANCH  14  21
ATOM     20  C   UNL     1      -1.180  10.942  23.039  0.00  0.00    +0.000 C 
ATOM     21  O   UNL     1      -1.185  10.861  21.618  0.00  0.00    +0.000 OA
ENDBRANCH  14  21
ENDBRANCH   1  17
BRANCH   3  22
ATOM     22  C   UNL     1       4.837   5.921  17.666  0.00  0.00    +0.000 A 
ATOM     23  C   UNL     1       5.765   6.935  17.363  0.00  0.00    +0.000 A 
ATOM     24  C   UNL     1       7.122   6.795  17.659  0.00  0.00    +0.000 A 
ATOM     25  C   UNL     1       7.583   5.644  18.288  0.00  0.00    +0.000 A 
ATOM     26  C   UNL     1       6.684   4.637  18.624  0.00  0.00    +0.000 A 
ATOM     27  C   UNL     1       5.325   4.779  18.328  0.00  0.00    +0.000 A 
ENDBRANCH   3  22
TORSDOF 3
ENDMDL
MODEL 7
REMARK VINA RESULT:      -8.1      0.850      1.078
REMARK  Name = 
REMARK  4 active torsions:
REMARK  status: ('A' for Active; 'I' for Inactive)
REMARK    1  A    between atoms: C_1  and  O_2
REMARK    2  A    between atoms: O_2  and  C_3
REMARK    3  A    between atoms: C_6  and  C_7
REMARK    4  A    between atoms: C_9  and  C_10
REMARK                            x       y       z     vdW  Elec       q    Type
REMARK                         _______ _______ _______ _____ _____    ______ ____
ROOT
ATOM      1  C   UNL     1       2.816   6.695  19.389  0.00  0.00    +0.000 C 
ATOM      2  C   UNL     1       2.925   6.766  17.848  0.00  0.00    +0.000 C 
ATOM      3  C   UNL     1       3.605   5.498  17.292  0.00  0.00    +0.000 C 
ATOM      4  N   UNL     1       2.756   4.368  17.698  0.00  0.00    +0.000 N 
ATOM      5  C   UNL     1       2.456   4.259  19.014  0.00  0.00    +0.000 A 
ATOM      6  N   UNL     1       2.246   3.187  19.730  0.00  0.00    +0.000 NA
ATOM      7  C   UNL     1       2.210   3.679  21.002  0.00  0.00    +0.000 A 
ATOM      8  N   UNL     1       2.101   2.824  22.012  0.00  0.00    +0.000 N 
ATOM      9  N   UNL     1       2.315   5.001  21.120  0.00  0.00    +0.000 NA
ATOM     10  N   UNL     1       2.427   5.360  19.828  0.00  0.00    +0.000 N 
ATOM     11  H   UNL     1       2.935   3.494  17.216  0.00  0.00    +0.000 HD
ATOM     12  H   UNL     1       1.763   1.893  21.801  0.00  0.00    +0.000 HD
ATOM     13  H   UNL     1       1.833   3.196  22.913  0.00  0.00    +0.000 HD
ENDROOT
BRANCH   1  17
ATOM     14  C   UNL     1       0.362   9.884  20.999  0.00  0.00    +0.000 A 
ATOM     15  C   UNL     1       0.729   9.900  19.653  0.00  0.00    +0.000 A 
ATOM     16  C   UNL     1       1.475   8.854  19.105  0.00  0.00    +0.000 A 
ATOM     17  C   UNL     1       1.892   7.784  19.910  0.00  0.00    +0.000 A 
ATOM     18  C   UNL     1       1.498   7.763  21.256  0.00  0.00    +0.000 A 
ATOM     19  C   UNL     1       0.739   8.805  21.797  0.00  0.00    +0.000 A 
BRANCH  14  21
ATOM     20  C   UNL     1      -0.861  10.911  22.743  0.00  0.00    +0.000 C 
ATOM     21  O   UNL     1      -0.319  10.988  21.430  0.00  0.00    +0.000 OA
ENDBRANCH  14  21
ENDBRANCH   1  17
BRANCH   3  22
ATOM     22  C   UNL     1       5.070   5.303  17.693  0.00  0.00    +0.000 A 
ATOM     23  C   UNL     1       5.533   5.702  18.962  0.00  0.00    +0.000 A 
ATOM     24  C   UNL     1       6.867   5.534  19.338  0.00  0.00    +0.000 A 
ATOM     25  C   UNL     1       7.769   4.942  18.462  0.00  0.00    +0.000 A 
ATOM     26  C   UNL     1       7.334   4.512  17.213  0.00  0.00    +0.000 A 
ATOM     27  C   UNL     1       5.997   4.680  16.837  0.00  0.00    +0.000 A 
ENDBRANCH   3  22
TORSDOF 3
ENDMDL
MODEL 8
REMARK VINA RESULT:      -7.9      3.353      4.724
REMARK  Name = 
REMARK  4 active torsions:
REMARK  status: ('A' for Active; 'I' for Inactive)
REMARK    1  A    between atoms: C_1  and  O_2
REMARK    2  A    between atoms: O_2  and  C_3
REMARK    3  A    between atoms: C_6  and  C_7
REMARK    4  A    between atoms: C_9  and  C_10
REMARK                            x       y       z     vdW  Elec       q    Type
REMARK                         _______ _______ _______ _____ _____    ______ ____
ROOT
ATOM      1  C   UNL     1       4.580   6.183  17.156  0.00  0.00    +0.000 C 
ATOM      2  C   UNL     1       4.406   4.648  17.246  0.00  0.00    +0.000 C 
ATOM      3  C   UNL     1       5.683   3.927  16.766  0.00  0.00    +0.000 C 
ATOM      4  N   UNL     1       6.764   4.378  17.654  0.00  0.00    +0.000 N 
ATOM      5  C   UNL     1       6.944   5.713  17.787  0.00  0.00    +0.000 A 
ATOM      6  N   UNL     1       8.044   6.385  17.998  0.00  0.00    +0.000 NA
ATOM      7  C   UNL     1       7.645   7.677  17.820  0.00  0.00    +0.000 A 
ATOM      8  N   UNL     1       8.560   8.638  17.873  0.00  0.00    +0.000 N 
ATOM      9  N   UNL     1       6.349   7.860  17.578  0.00  0.00    +0.000 NA
ATOM     10  N   UNL     1       5.907   6.589  17.605  0.00  0.00    +0.000 N 
ATOM     11  H   UNL     1       7.613   3.823  17.622  0.00  0.00    +0.000 HD
ATOM     12  H   UNL     1       9.441   8.419  18.320  0.00  0.00    +0.000 HD
ATOM     13  H   UNL     1       8.234   9.588  17.984  0.00  0.00    +0.000 HD
ENDROOT
BRANCH   1  17
ATOM     14  C   UNL     1       1.545   8.283  19.427  0.00  0.00    +0.000 A 
ATOM     15  C   UNL     1       1.916   8.748  18.165  0.00  0.00    +0.000 A 
ATOM     16  C   UNL     1       2.855   8.054  17.397  0.00  0.00    +0.000 A 
ATOM     17  C   UNL     1       3.460   6.892  17.899  0.00  0.00    +0.000 A 
ATOM     18  C   UNL     1       3.063   6.418  19.158  0.00  0.00    +0.000 A 
ATOM     19  C   UNL     1       2.113   7.109  19.917  0.00  0.00    +0.000 A 
BRANCH  14  21
ATOM     20  C   UNL     1       0.555   8.840  21.502  0.00  0.00    +0.000 C 
ATOM     21  O   UNL     1       0.661   9.077  20.103  0.00  0.00    +0.000 OA
ENDBRANCH  14  21
ENDBRANCH   1  17
BRANCH   3  22
ATOM     22  C   UNL     1       6.028   4.110  15.285  0.00  0.00    +0.000 A 
ATOM     23  C   UNL     1       7.197   4.791  14.892  0.00  0.00    +0.000 A 
ATOM     24  C   UNL     1       7.520   4.968  13.545  0.00  0.00    +0.000 A 
ATOM     25  C   UNL     1       6.693   4.449  12.556  0.00  0.00    +0.000 A 
ATOM     26  C   UNL     1       5.548   3.747  12.915  0.00  0.00    +0.000 A 
ATOM     27  C   UNL     1       5.225   3.569  14.264  0.00  0.00    +0.000 A 
ENDBRANCH   3  22
TORSDOF 3
ENDMDL
MODEL 9
REMARK VINA RESULT:      -7.6      2.157      4.348
REMARK  Name = 
REMARK  4 active torsions:
REMARK  status: ('A' for Active; 'I' for Inactive)
REMARK    1  A    between atoms: C_1  and  O_2
REMARK    2  A    between atoms: O_2  and  C_3
REMARK    3  A    between atoms: C_6  and  C_7
REMARK    4  A    between atoms: C_9  and  C_10
REMARK                            x       y       z     vdW  Elec       q    Type
REMARK                         _______ _______ _______ _____ _____    ______ ____
ROOT
ATOM      1  C   UNL     1       2.322   7.033  18.855  0.00  0.00    +0.000 C 
ATOM      2  C   UNL     1       2.443   6.498  20.301  0.00  0.00    +0.000 C 
ATOM      3  C   UNL     1       3.204   5.155  20.322  0.00  0.00    +0.000 C 
ATOM      4  N   UNL     1       4.534   5.432  19.761  0.00  0.00    +0.000 N 
ATOM      5  C   UNL     1       4.584   6.035  18.550  0.00  0.00    +0.000 A 
ATOM      6  N   UNL     1       5.471   5.912  17.598  0.00  0.00    +0.000 NA
ATOM      7  C   UNL     1       4.888   6.575  16.558  0.00  0.00    +0.000 A 
ATOM      8  N   UNL     1       5.496   6.566  15.378  0.00  0.00    +0.000 N 
ATOM      9  N   UNL     1       3.723   7.164  16.821  0.00  0.00    +0.000 NA
ATOM     10  N   UNL     1       3.566   6.843  18.118  0.00  0.00    +0.000 N 
ATOM     11  H   UNL     1       5.232   4.713  19.921  0.00  0.00    +0.000 HD
ATOM     12  H   UNL     1       6.480   6.327  15.361  0.00  0.00    +0.000 HD
ATOM     13  H   UNL     1       5.196   7.245  14.692  0.00  0.00    +0.000 HD
ENDROOT
BRANCH   1  17
ATOM     14  C   UNL     1       1.127  11.194  19.032  0.00  0.00    +0.000 A 
ATOM     15  C   UNL     1       1.837  10.721  17.928  0.00  0.00    +0.000 A 
ATOM     16  C   UNL     1       2.185   9.371  17.830  0.00  0.00    +0.000 A 
ATOM     17  C   UNL     1       1.848   8.477  18.857  0.00  0.00    +0.000 A 
ATOM     18  C   UNL     1       1.113   8.956  19.951  0.00  0.00    +0.000 A 
ATOM     19  C   UNL     1       0.755  10.305  20.038  0.00  0.00    +0.000 A 
BRANCH  14  21
ATOM     20  C   UNL     1      -0.346  12.962  18.483  0.00  0.00    +0.000 C 
ATOM     21  O   UNL     1       0.894  12.542  19.039  0.00  0.00    +0.000 OA
ENDBRANCH  14  21
ENDBRANCH   1  17
BRANCH   3  22
ATOM     22  C   UNL     1       2.504   3.987  19.622  0.00  0.00    +0.000 A 
ATOM     23  C   UNL     1       3.221   3.106  18.789  0.00  0.00    +0.000 A 
ATOM     24  C   UNL     1       2.594   2.041  18.141  0.00  0.00    +0.000 A 
ATOM     25  C   UNL     1       1.235   1.815  18.326  0.00  0.00    +0.000 A 
ATOM     26  C   UNL     1       0.507   2.652  19.165  0.00  0.00    +0.000 A 
ATOM     27  C   UNL     1       1.136   3.719  19.815  0.00  0.00    +0.000 A 
ENDBRANCH   3  22
TORSDOF 3
ENDMDL
