MODEL 1
REMARK VINA RESULT:      -8.1      0.000      0.000
REMARK  Name = 
REMARK  8 active torsions:
REMARK  status: ('A' for Active; 'I' for Inactive)
REMARK    1  A    between atoms: N_11  and  C_12
REMARK    2  A    between atoms: C_12  and  C_13
REMARK    3  A    between atoms: C_13  and  C_14
REMARK    4  A    between atoms: C_14  and  C_15
REMARK    5  A    between atoms: C_15  and  C_16
REMARK    6  A    between atoms: C_16  and  N_17
REMARK    7  A    between atoms: N_20  and  C_21
REMARK    8  A    between atoms: C_21  and  C_22
REMARK                            x       y       z     vdW  Elec       q    Type
REMARK                         _______ _______ _______ _____ _____    ______ ____
ROOT
ATOM      1  C   UNL     1       8.162   7.699  18.147  0.00  0.00    +0.000 C 
ENDROOT
BRANCH   1   2
ATOM      2  C   UNL     1       7.726   9.156  17.954  0.00  0.00    +0.000 C 
BRANCH   2   3
ATOM      3  C   UNL     1       8.916  10.115  18.045  0.00  0.00    +0.000 C 
BRANCH   3   4
ATOM      4  C   UNL     1       9.474  10.186  19.467  0.00  0.00    +0.000 C 
BRANCH   4  15
ATOM      5  O   UNL     1       8.468  11.800  21.722  0.00  0.00    +0.000 OA
ATOM      6  C   UNL     1       9.293  12.189  20.928  0.00  0.00    +0.000 C 
ATOM      7  C   UNL     1       9.952  13.492  20.989  0.00  0.00    +0.000 A 
ATOM      8  C   UNL     1       9.799  14.524  21.895  0.00  0.00    +0.000 A 
ATOM      9  C   UNL     1      10.595  15.660  21.711  0.00  0.00    +0.000 A 
ATOM     10  C   UNL     1      11.512  15.731  20.641  0.00  0.00    +0.000 A 
ATOM     11  C   UNL     1      11.650  14.670  19.738  0.00  0.00    +0.000 A 
ATOM     12  C   UNL     1      10.852  13.560  19.941  0.00  0.00    +0.000 A 
ATOM     13  C   UNL     1      10.776  12.295  19.211  0.00  0.00    +0.000 C 
ATOM     14  O   UNL     1      11.464  12.014  18.251  0.00  0.00    +0.000 OA
ATOM     15  N   UNL     1       9.819  11.544  19.837  0.00  0.00    +0.000 N 
ENDBRANCH   4  15
ENDBRANCH   3   4
ENDBRANCH   2   3
ENDBRANCH   1   2
BRANCH   1  16
ATOM     16  C   UNL     1       7.405   6.715  17.246  0.00  0.00    +0.000 C 
BRANCH  16  17
ATOM     17  N   UNL     1       6.710   5.604  17.907  0.00  0.00    +0.000 NA
ATOM     18  C   UNL     1       5.457   5.919  18.640  0.00  0.00    +0.000 C 
ATOM     19  C   UNL     1       4.062   5.635  17.966  0.00  0.00    +0.000 C 
ATOM     20  N   UNL     1       3.997   4.545  16.959  0.00  0.00    +0.000 NA
ATOM     21  C   UNL     1       5.194   4.702  16.117  0.00  0.00    +0.000 C 
ATOM     22  C   UNL     1       6.491   4.525  16.928  0.00  0.00    +0.000 C 
BRANCH  20  23
ATOM     23  C   UNL     1       3.923   3.206  17.596  0.00  0.00    +0.000 C 
BRANCH  23  24
ATOM     24  C   UNL     1       3.007   3.109  18.816  0.00  0.00    +0.000 A 
ATOM     25  C   UNL     1       1.616   3.275  18.682  0.00  0.00    +0.000 A 
ATOM     26  C   UNL     1       0.761   3.160  19.787  0.00  0.00    +0.000 A 
ATOM     27  C   UNL     1       1.283   2.860  21.039  0.00  0.00    +0.000 A 
ATOM     28  C   UNL     1       2.655   2.691  21.194  0.00  0.00    +0.000 A 
ATOM     29  C   UNL     1       3.514   2.822  20.091  0.00  0.00    +0.000 A 
ENDBRANCH  23  24
ENDBRANCH  20  23
ENDBRANCH  16  17
ENDBRANCH   1  16
TORSDOF 8
ENDMDL
MODEL 2
REMARK VINA RESULT:      -7.9      0.836      2.034
REMARK  Name = 
REMARK  8 active torsions:
REMARK  status: ('A' for Active; 'I' for Inactive)
REMARK    1  A    between atoms: N_11  and  C_12
REMARK    2  A    between atoms: C_12  and  C_13
REMARK    3  A    between atoms: C_13  and  C_14
REMARK    4  A    between atoms: C_14  and  C_15
REMARK    5  A    between atoms: C_15  and  C_16
REMARK    6  A    between atoms: C_16  and  N_17
REMARK    7  A    between atoms: N_20  and  C_21
REMARK    8  A    between atoms: C_21  and  C_22
REMARK                            x       y       z     vdW  Elec       q    Type
REMARK                         _______ _______ _______ _____ _____    ______ ____
ROOT
ATOM      1  C   UNL     1       8.071   7.824  18.355  0.00  0.00    +0.000 C 
ENDROOT
BRANCH   1   2
ATOM      2  C   UNL     1       7.836   9.172  17.664  0.00  0.00    +0.000 C 
BRANCH   2   3
ATOM      3  C   UNL     1       8.935  10.180  18.010  0.00  0.00    +0.000 C 
BRANCH   3   4
ATOM      4  C   UNL     1       9.350  10.079  19.477  0.00  0.00    +0.000 C 
BRANCH   4  15
ATOM      5  O   UNL     1      11.207  12.081  18.363  0.00  0.00    +0.000 OA
ATOM      6  C   UNL     1      10.591  12.230  19.393  0.00  0.00    +0.000 C 
ATOM      7  C   UNL     1      10.633  13.438  20.216  0.00  0.00    +0.000 A 
ATOM      8  C   UNL     1      11.340  14.611  20.038  0.00  0.00    +0.000 A 
ATOM      9  C   UNL     1      11.159  15.618  20.992  0.00  0.00    +0.000 A 
ATOM     10  C   UNL     1      10.287  15.427  22.085  0.00  0.00    +0.000 A 
ATOM     11  C   UNL     1       9.580  14.228  22.241  0.00  0.00    +0.000 A 
ATOM     12  C   UNL     1       9.776  13.250  21.285  0.00  0.00    +0.000 A 
ATOM     13  C   UNL     1       9.178  11.923  21.143  0.00  0.00    +0.000 C 
ATOM     14  O   UNL     1       8.351  11.458  21.902  0.00  0.00    +0.000 OA
ATOM     15  N   UNL     1       9.722  11.370  20.017  0.00  0.00    +0.000 N 
ENDBRANCH   4  15
ENDBRANCH   3   4
ENDBRANCH   2   3
ENDBRANCH   1   2
BRANCH   1  16
ATOM     16  C   UNL     1       7.659   6.622  17.497  0.00  0.00    +0.000 C 
BRANCH  16  17
ATOM     17  N   UNL     1       6.234   6.492  17.171  0.00  0.00    +0.000 NA
ATOM     18  C   UNL     1       5.879   5.740  15.940  0.00  0.00    +0.000 C 
ATOM     19  C   UNL     1       5.403   4.241  16.046  0.00  0.00    +0.000 C 
ATOM     20  N   UNL     1       4.738   3.821  17.307  0.00  0.00    +0.000 NA
ATOM     21  C   UNL     1       5.531   4.413  18.396  0.00  0.00    +0.000 C 
ATOM     22  C   UNL     1       5.521   5.952  18.341  0.00  0.00    +0.000 C 
BRANCH  20  23
ATOM     23  C   UNL     1       3.315   4.241  17.348  0.00  0.00    +0.000 C 
BRANCH  23  24
ATOM     24  C   UNL     1       2.543   3.825  18.600  0.00  0.00    +0.000 A 
ATOM     25  C   UNL     1       1.993   4.796  19.457  0.00  0.00    +0.000 A 
ATOM     26  C   UNL     1       1.258   4.431  20.593  0.00  0.00    +0.000 A 
ATOM     27  C   UNL     1       1.047   3.087  20.879  0.00  0.00    +0.000 A 
ATOM     28  C   UNL     1       1.581   2.111  20.044  0.00  0.00    +0.000 A 
ATOM     29  C   UNL     1       2.331   2.476  18.915  0.00  0.00    +0.000 A 
ENDBRANCH  23  24
ENDBRANCH  20  23
ENDBRANCH  16  17
ENDBRANCH   1  16
TORSDOF 8
ENDMDL
MODEL 3
REMARK VINA RESULT:      -7.9      2.231      2.866
REMARK  Name = 
REMARK  8 active torsions:
REMARK  status: ('A' for Active; 'I' for Inactive)
REMARK    1  A    between atoms: N_11  and  C_12
REMARK    2  A    between atoms: C_12  and  C_13
REMARK    3  A    between atoms: C_13  and  C_14
REMARK    4  A    between atoms: C_14  and  C_15
REMARK    5  A    between atoms: C_15  and  C_16
REMARK    6  A    between atoms: C_16  and  N_17
REMARK    7  A    between atoms: N_20  and  C_21
REMARK    8  A    between atoms: C_21  and  C_22
REMARK                            x       y       z     vdW  Elec       q    Type
REMARK                         _______ _______ _______ _____ _____    ______ ____
ROOT
ATOM      1  C   UNL     1       8.336   9.193  17.892  0.00  0.00    +0.000 C 
ENDROOT
BRANCH   1   2
ATOM      2  C   UNL     1       8.832   9.833  19.194  0.00  0.00    +0.000 C 
BRANCH   2   3
ATOM      3  C   UNL     1      10.148  10.587  18.983  0.00  0.00    +0.000 C 
BRANCH   3   4
ATOM      4  C   UNL     1      10.104  11.455  17.726  0.00  0.00    +0.000 C 
BRANCH   4  15
ATOM      5  O   UNL     1       7.454  12.465  16.916  0.00  0.00    +0.000 OA
ATOM      6  C   UNL     1       8.247  13.099  17.572  0.00  0.00    +0.000 C 
ATOM      7  C   UNL     1       7.999  14.438  18.105  0.00  0.00    +0.000 A 
ATOM      8  C   UNL     1       6.886  15.249  17.990  0.00  0.00    +0.000 A 
ATOM      9  C   UNL     1       6.928  16.488  18.637  0.00  0.00    +0.000 A 
ATOM     10  C   UNL     1       8.067  16.878  19.374  0.00  0.00    +0.000 A 
ATOM     11  C   UNL     1       9.181  16.036  19.478  0.00  0.00    +0.000 A 
ATOM     12  C   UNL     1       9.115  14.818  18.829  0.00  0.00    +0.000 A 
ATOM     13  C   UNL     1      10.077  13.718  18.767  0.00  0.00    +0.000 C 
ATOM     14  O   UNL     1      11.154  13.715  19.328  0.00  0.00    +0.000 OA
ATOM     15  N   UNL     1       9.506  12.747  17.990  0.00  0.00    +0.000 N 
ENDBRANCH   4  15
ENDBRANCH   3   4
ENDBRANCH   2   3
ENDBRANCH   1   2
BRANCH   1  16
ATOM     16  C   UNL     1       8.059   7.690  18.022  0.00  0.00    +0.000 C 
BRANCH  16  17
ATOM     17  N   UNL     1       7.014   7.127  17.159  0.00  0.00    +0.000 NA
ATOM     18  C   UNL     1       7.398   6.009  16.259  0.00  0.00    +0.000 C 
ATOM     19  C   UNL     1       7.061   4.524  16.665  0.00  0.00    +0.000 C 
ATOM     20  N   UNL     1       5.885   4.306  17.547  0.00  0.00    +0.000 NA
ATOM     21  C   UNL     1       5.962   5.346  18.586  0.00  0.00    +0.000 C 
ATOM     22  C   UNL     1       5.853   6.760  17.988  0.00  0.00    +0.000 C 
BRANCH  20  23
ATOM     23  C   UNL     1       4.609   4.353  16.790  0.00  0.00    +0.000 C 
BRANCH  23  24
ATOM     24  C   UNL     1       3.413   3.693  17.476  0.00  0.00    +0.000 A 
ATOM     25  C   UNL     1       3.486   2.357  17.913  0.00  0.00    +0.000 A 
ATOM     26  C   UNL     1       2.408   1.747  18.568  0.00  0.00    +0.000 A 
ATOM     27  C   UNL     1       1.246   2.470  18.813  0.00  0.00    +0.000 A 
ATOM     28  C   UNL     1       1.154   3.792  18.390  0.00  0.00    +0.000 A 
ATOM     29  C   UNL     1       2.227   4.399  17.719  0.00  0.00    +0.000 A 
ENDBRANCH  23  24
ENDBRANCH  20  23
ENDBRANCH  16  17
ENDBRANCH   1  16
TORSDOF 8
ENDMDL
MODEL 4
REMARK VINA RESULT:      -7.8      0.436      1.673
REMARK  Name = 
REMARK  8 active torsions:
REMARK  status: ('A' for Active; 'I' for Inactive)
REMARK    1  A    between atoms: N_11  and  C_12
REMARK    2  A    between atoms: C_12  and  C_13
REMARK    3  A    between atoms: C_13  and  C_14
REMARK    4  A    between atoms: C_14  and  C_15
REMARK    5  A    between atoms: C_15  and  C_16
REMARK    6  A    between atoms: C_16  and  N_17
REMARK    7  A    between atoms: N_20  and  C_21
REMARK    8  A    between atoms: C_21  and  C_22
REMARK                            x       y       z     vdW  Elec       q    Type
REMARK                         _______ _______ _______ _____ _____    ______ ____
ROOT
ATOM      1  C   UNL     1       7.869   7.810  17.594  0.00  0.00    +0.000 C 
ENDROOT
BRANCH   1   2
ATOM      2  C   UNL     1       7.673   9.305  17.872  0.00  0.00    +0.000 C 
BRANCH   2   3
ATOM      3  C   UNL     1       9.010  10.014  18.097  0.00  0.00    +0.000 C 
BRANCH   3   4
ATOM      4  C   UNL     1       9.332  10.152  19.585  0.00  0.00    +0.000 C 
BRANCH   4  15
ATOM      5  O   UNL     1      11.477  11.639  18.213  0.00  0.00    +0.000 OA
ATOM      6  C   UNL     1      10.867  12.061  19.167  0.00  0.00    +0.000 C 
ATOM      7  C   UNL     1      11.061  13.385  19.757  0.00  0.00    +0.000 A 
ATOM      8  C   UNL     1      11.931  14.398  19.400  0.00  0.00    +0.000 A 
ATOM      9  C   UNL     1      11.874  15.580  20.144  0.00  0.00    +0.000 A 
ATOM     10  C   UNL     1      10.960  15.718  21.211  0.00  0.00    +0.000 A 
ATOM     11  C   UNL     1      10.087  14.677  21.550  0.00  0.00    +0.000 A 
ATOM     12  C   UNL     1      10.163  13.519  20.800  0.00  0.00    +0.000 A 
ATOM     13  C   UNL     1       9.386  12.282  20.875  0.00  0.00    +0.000 C 
ATOM     14  O   UNL     1       8.485  12.085  21.665  0.00  0.00    +0.000 OA
ATOM     15  N   UNL     1       9.871  11.460  19.896  0.00  0.00    +0.000 N 
ENDBRANCH   4  15
ENDBRANCH   3   4
ENDBRANCH   2   3
ENDBRANCH   1   2
BRANCH   1  16
ATOM     16  C   UNL     1       6.604   7.120  17.068  0.00  0.00    +0.000 C 
BRANCH  16  17
ATOM     17  N   UNL     1       6.080   5.998  17.856  0.00  0.00    +0.000 NA
ATOM     18  C   UNL     1       4.691   6.112  18.372  0.00  0.00    +0.000 C 
ATOM     19  C   UNL     1       3.513   5.387  17.618  0.00  0.00    +0.000 C 
ATOM     20  N   UNL     1       3.845   4.162  16.846  0.00  0.00    +0.000 NA
ATOM     21  C   UNL     1       5.092   4.467  16.126  0.00  0.00    +0.000 C 
ATOM     22  C   UNL     1       6.256   4.751  17.092  0.00  0.00    +0.000 C 
BRANCH  20  23
ATOM     23  C   UNL     1       3.973   2.972  17.723  0.00  0.00    +0.000 C 
BRANCH  23  24
ATOM     24  C   UNL     1       3.050   2.952  18.942  0.00  0.00    +0.000 A 
ATOM     25  C   UNL     1       1.656   3.064  18.786  0.00  0.00    +0.000 A 
ATOM     26  C   UNL     1       0.794   3.018  19.890  0.00  0.00    +0.000 A 
ATOM     27  C   UNL     1       1.314   2.842  21.167  0.00  0.00    +0.000 A 
ATOM     28  C   UNL     1       2.690   2.727  21.344  0.00  0.00    +0.000 A 
ATOM     29  C   UNL     1       3.554   2.789  20.239  0.00  0.00    +0.000 A 
ENDBRANCH  23  24
ENDBRANCH  20  23
ENDBRANCH  16  17
ENDBRANCH   1  16
TORSDOF 8
ENDMDL
MODEL 5
REMARK VINA RESULT:      -7.7      6.507      9.372
REMARK  Name = 
REMARK  8 active torsions:
REMARK  status: ('A' for Active; 'I' for Inactive)
REMARK    1  A    between atoms: N_11  and  C_12
REMARK    2  A    between atoms: C_12  and  C_13
REMARK    3  A    between atoms: C_13  and  C_14
REMARK    4  A    between atoms: C_14  and  C_15
REMARK    5  A    between atoms: C_15  and  C_16
REMARK    6  A    between atoms: C_16  and  N_17
REMARK    7  A    between atoms: N_20  and  C_21
REMARK    8  A    between atoms: C_21  and  C_22
REMARK                            x       y       z     vdW  Elec       q    Type
REMARK                         _______ _______ _______ _____ _____    ______ ____
ROOT
ATOM      1  C   UNL     1       1.466   8.206  20.678  0.00  0.00    +0.000 C 
ENDROOT
BRANCH   1   2
ATOM      2  C   UNL     1       1.376   9.014  21.979  0.00  0.00    +0.000 C 
BRANCH   2   3
ATOM      3  C   UNL     1       0.449  10.222  21.827  0.00  0.00    +0.000 C 
BRANCH   3   4
ATOM      4  C   UNL     1       0.787  11.037  20.578  0.00  0.00    +0.000 C 
BRANCH   4  15
ATOM      5  O   UNL     1       0.585   9.555  18.036  0.00  0.00    +0.000 OA
ATOM      6  C   UNL     1      -0.286  10.271  18.471  0.00  0.00    +0.000 C 
ATOM      7  C   UNL     1      -1.586  10.476  17.834  0.00  0.00    +0.000 A 
ATOM      8  C   UNL     1      -2.095   9.949  16.663  0.00  0.00    +0.000 A 
ATOM      9  C   UNL     1      -3.399  10.312  16.312  0.00  0.00    +0.000 A 
ATOM     10  C   UNL     1      -4.151  11.181  17.132  0.00  0.00    +0.000 A 
ATOM     11  C   UNL     1      -3.612  11.700  18.315  0.00  0.00    +0.000 A 
ATOM     12  C   UNL     1      -2.322  11.326  18.639  0.00  0.00    +0.000 A 
ATOM     13  C   UNL     1      -1.495  11.661  19.799  0.00  0.00    +0.000 C 
ATOM     14  O   UNL     1      -1.858  12.365  20.720  0.00  0.00    +0.000 OA
ATOM     15  N   UNL     1      -0.300  11.021  19.621  0.00  0.00    +0.000 N 
ENDBRANCH   4  15
ENDBRANCH   3   4
ENDBRANCH   2   3
ENDBRANCH   1   2
BRANCH   1  16
ATOM     16  C   UNL     1       1.080   6.732  20.851  0.00  0.00    +0.000 C 
BRANCH  16  17
ATOM     17  N   UNL     1       2.161   5.744  20.756  0.00  0.00    +0.000 NA
ATOM     18  C   UNL     1       1.773   4.314  20.647  0.00  0.00    +0.000 C 
ATOM     19  C   UNL     1       1.775   3.605  19.240  0.00  0.00    +0.000 C 
ATOM     20  N   UNL     1       2.711   4.129  18.211  0.00  0.00    +0.000 NA
ATOM     21  C   UNL     1       2.613   5.595  18.288  0.00  0.00    +0.000 C 
ATOM     22  C   UNL     1       3.066   6.128  19.660  0.00  0.00    +0.000 C 
BRANCH  20  23
ATOM     23  C   UNL     1       4.096   3.640  18.423  0.00  0.00    +0.000 C 
BRANCH  23  24
ATOM     24  C   UNL     1       5.117   4.083  17.374  0.00  0.00    +0.000 A 
ATOM     25  C   UNL     1       4.895   3.829  16.008  0.00  0.00    +0.000 A 
ATOM     26  C   UNL     1       5.807   4.254  15.032  0.00  0.00    +0.000 A 
ATOM     27  C   UNL     1       6.947   4.955  15.408  0.00  0.00    +0.000 A 
ATOM     28  C   UNL     1       7.185   5.217  16.753  0.00  0.00    +0.000 A 
ATOM     29  C   UNL     1       6.280   4.778  17.732  0.00  0.00    +0.000 A 
ENDBRANCH  23  24
ENDBRANCH  20  23
ENDBRANCH  16  17
ENDBRANCH   1  16
TORSDOF 8
ENDMDL
MODEL 6
REMARK VINA RESULT:      -7.7      2.893     11.403
REMARK  Name = 
REMARK  8 active torsions:
REMARK  status: ('A' for Active; 'I' for Inactive)
REMARK    1  A    between atoms: N_11  and  C_12
REMARK    2  A    between atoms: C_12  and  C_13
REMARK    3  A    between atoms: C_13  and  C_14
REMARK    4  A    between atoms: C_14  and  C_15
REMARK    5  A    between atoms: C_15  and  C_16
REMARK    6  A    between atoms: C_16  and  N_17
REMARK    7  A    between atoms: N_20  and  C_21
REMARK    8  A    between atoms: C_21  and  C_22
REMARK                            x       y       z     vdW  Elec       q    Type
REMARK                         _______ _______ _______ _____ _____    ______ ____
ROOT
ATOM      1  C   UNL     1       7.533   8.675  17.557  0.00  0.00    +0.000 C 
ENDROOT
BRANCH   1   2
ATOM      2  C   UNL     1       7.595   7.219  18.034  0.00  0.00    +0.000 C 
BRANCH   2   3
ATOM      3  C   UNL     1       7.444   6.239  16.867  0.00  0.00    +0.000 C 
BRANCH   3   4
ATOM      4  C   UNL     1       7.296   4.799  17.357  0.00  0.00    +0.000 C 
BRANCH   4  15
ATOM      5  O   UNL     1       6.068   4.851  20.038  0.00  0.00    +0.000 OA
ATOM      6  C   UNL     1       5.467   4.577  19.025  0.00  0.00    +0.000 C 
ATOM      7  C   UNL     1       4.037   4.279  18.964  0.00  0.00    +0.000 A 
ATOM      8  C   UNL     1       3.095   4.231  19.974  0.00  0.00    +0.000 A 
ATOM      9  C   UNL     1       1.778   3.939  19.606  0.00  0.00    +0.000 A 
ATOM     10  C   UNL     1       1.442   3.706  18.255  0.00  0.00    +0.000 A 
ATOM     11  C   UNL     1       2.415   3.763  17.251  0.00  0.00    +0.000 A 
ATOM     12  C   UNL     1       3.708   4.054  17.640  0.00  0.00    +0.000 A 
ATOM     13  C   UNL     1       4.928   4.215  16.849  0.00  0.00    +0.000 C 
ATOM     14  O   UNL     1       4.980   4.117  15.640  0.00  0.00    +0.000 OA
ATOM     15  N   UNL     1       5.930   4.501  17.735  0.00  0.00    +0.000 N 
ENDBRANCH   4  15
ENDBRANCH   3   4
ENDBRANCH   2   3
ENDBRANCH   1   2
BRANCH   1  16
ATOM     16  C   UNL     1       8.821   9.459  17.833  0.00  0.00    +0.000 C 
BRANCH  16  17
ATOM     17  N   UNL     1       8.705  10.664  18.662  0.00  0.00    +0.000 NA
ATOM     18  C   UNL     1       9.458  10.691  19.942  0.00  0.00    +0.000 C 
ATOM     19  C   UNL     1      10.831  11.460  20.028  0.00  0.00    +0.000 C 
ATOM     20  N   UNL     1      11.033  12.606  19.103  0.00  0.00    +0.000 NA
ATOM     21  C   UNL     1      10.528  12.161  17.794  0.00  0.00    +0.000 C 
ATOM     22  C   UNL     1       9.022  11.844  17.839  0.00  0.00    +0.000 C 
BRANCH  20  23
ATOM     23  C   UNL     1      10.353  13.834  19.586  0.00  0.00    +0.000 C 
BRANCH  23  24
ATOM     24  C   UNL     1      10.681  15.113  18.816  0.00  0.00    +0.000 A 
ATOM     25  C   UNL     1      12.017  15.468  18.554  0.00  0.00    +0.000 A 
ATOM     26  C   UNL     1      12.333  16.623  17.825  0.00  0.00    +0.000 A 
ATOM     27  C   UNL     1      11.315  17.430  17.331  0.00  0.00    +0.000 A 
ATOM     28  C   UNL     1       9.987  17.097  17.578  0.00  0.00    +0.000 A 
ATOM     29  C   UNL     1       9.670  15.949  18.322  0.00  0.00    +0.000 A 
ENDBRANCH  23  24
ENDBRANCH  20  23
ENDBRANCH  16  17
ENDBRANCH   1  16
TORSDOF 8
ENDMDL
MODEL 7
REMARK VINA RESULT:      -7.7      1.801      2.288
REMARK  Name = 
REMARK  8 active torsions:
REMARK  status: ('A' for Active; 'I' for Inactive)
REMARK    1  A    between atoms: N_11  and  C_12
REMARK    2  A    between atoms: C_12  and  C_13
REMARK    3  A    between atoms: C_13  and  C_14
REMARK    4  A    between atoms: C_14  and  C_15
REMARK    5  A    between atoms: C_15  and  C_16
REMARK    6  A    between atoms: C_16  and  N_17
REMARK    7  A    between atoms: N_20  and  C_21
REMARK    8  A    between atoms: C_21  and  C_22
REMARK                            x       y       z     vdW  Elec       q    Type
REMARK                         _______ _______ _______ _____ _____    ______ ____
ROOT
ATOM      1  C   UNL     1       7.972   8.035  18.270  0.00  0.00    +0.000 C 
ENDROOT
BRANCH   1   2
ATOM      2  C   UNL     1       8.230   9.509  17.936  0.00  0.00    +0.000 C 
BRANCH   2   3
ATOM      3  C   UNL     1       9.474  10.038  18.654  0.00  0.00    +0.000 C 
BRANCH   3   4
ATOM      4  C   UNL     1       9.154  11.268  19.503  0.00  0.00    +0.000 C 
BRANCH   4  15
ATOM      5  O   UNL     1       7.744  13.858  19.420  0.00  0.00    +0.000 OA
ATOM      6  C   UNL     1       8.807  13.650  18.883  0.00  0.00    +0.000 C 
ATOM      7  C   UNL     1       9.578  14.656  18.154  0.00  0.00    +0.000 A 
ATOM      8  C   UNL     1       9.297  15.987  17.911  0.00  0.00    +0.000 A 
ATOM      9  C   UNL     1      10.248  16.720  17.194  0.00  0.00    +0.000 A 
ATOM     10  C   UNL     1      11.440  16.111  16.745  0.00  0.00    +0.000 A 
ATOM     11  C   UNL     1      11.701  14.761  17.007  0.00  0.00    +0.000 A 
ATOM     12  C   UNL     1      10.746  14.058  17.717  0.00  0.00    +0.000 A 
ATOM     13  C   UNL     1      10.728  12.669  18.173  0.00  0.00    +0.000 C 
ATOM     14  O   UNL     1      11.626  11.873  17.985  0.00  0.00    +0.000 OA
ATOM     15  N   UNL     1       9.544  12.493  18.834  0.00  0.00    +0.000 N 
ENDBRANCH   4  15
ENDBRANCH   3   4
ENDBRANCH   2   3
ENDBRANCH   1   2
BRANCH   1  16
ATOM     16  C   UNL     1       7.729   7.166  17.030  0.00  0.00    +0.000 C 
BRANCH  16  17
ATOM     17  N   UNL     1       6.332   6.892  16.670  0.00  0.00    +0.000 NA
ATOM     18  C   UNL     1       6.075   5.777  15.723  0.00  0.00    +0.000 C 
ATOM     19  C   UNL     1       5.608   4.375  16.271  0.00  0.00    +0.000 C 
ATOM     20  N   UNL     1       4.858   4.356  17.553  0.00  0.00    +0.000 NA
ATOM     21  C   UNL     1       5.563   5.289  18.446  0.00  0.00    +0.000 C 
ATOM     22  C   UNL     1       5.542   6.729  17.902  0.00  0.00    +0.000 C 
BRANCH  20  23
ATOM     23  C   UNL     1       3.431   4.721  17.365  0.00  0.00    +0.000 C 
BRANCH  23  24
ATOM     24  C   UNL     1       2.468   4.173  18.417  0.00  0.00    +0.000 A 
ATOM     25  C   UNL     1       1.970   2.860  18.318  0.00  0.00    +0.000 A 
ATOM     26  C   UNL     1       1.109   2.333  19.290  0.00  0.00    +0.000 A 
ATOM     27  C   UNL     1       0.747   3.106  20.387  0.00  0.00    +0.000 A 
ATOM     28  C   UNL     1       1.229   4.406  20.506  0.00  0.00    +0.000 A 
ATOM     29  C   UNL     1       2.078   4.940  19.524  0.00  0.00    +0.000 A 
ENDBRANCH  23  24
ENDBRANCH  20  23
ENDBRANCH  16  17
ENDBRANCH   1  16
TORSDOF 8
ENDMDL
MODEL 8
REMARK VINA RESULT:      -7.6      1.602      2.045
REMARK  Name = 
REMARK  8 active torsions:
REMARK  status: ('A' for Active; 'I' for Inactive)
REMARK    1  A    between atoms: N_11  and  C_12
REMARK    2  A    between atoms: C_12  and  C_13
REMARK    3  A    between atoms: C_13  and  C_14
REMARK    4  A    between atoms: C_14  and  C_15
REMARK    5  A    between atoms: C_15  and  C_16
REMARK    6  A    between atoms: C_16  and  N_17
REMARK    7  A    between atoms: N_20  and  C_21
REMARK    8  A    between atoms: C_21  and  C_22
REMARK                            x       y       z     vdW  Elec       q    Type
REMARK                         _______ _______ _______ _____ _____    ______ ____
ROOT
ATOM      1  C   UNL     1       7.921   6.926  18.611  0.00  0.00    +0.000 C 
ENDROOT
BRANCH   1   2
ATOM      2  C   UNL     1       7.873   8.071  17.592  0.00  0.00    +0.000 C 
BRANCH   2   3
ATOM      3  C   UNL     1       8.064   9.432  18.267  0.00  0.00    +0.000 C 
BRANCH   3   4
ATOM      4  C   UNL     1       9.186  10.234  17.607  0.00  0.00    +0.000 C 
BRANCH   4  15
ATOM      5  O   UNL     1      11.072  11.440  19.527  0.00  0.00    +0.000 OA
ATOM      6  C   UNL     1      10.175  12.047  18.990  0.00  0.00    +0.000 C 
ATOM      7  C   UNL     1       9.917  13.475  19.169  0.00  0.00    +0.000 A 
ATOM      8  C   UNL     1      10.579  14.408  19.944  0.00  0.00    +0.000 A 
ATOM      9  C   UNL     1      10.113  15.725  19.896  0.00  0.00    +0.000 A 
ATOM     10  C   UNL     1       9.012  16.071  19.083  0.00  0.00    +0.000 A 
ATOM     11  C   UNL     1       8.361  15.107  18.304  0.00  0.00    +0.000 A 
ATOM     12  C   UNL     1       8.840  13.813  18.369  0.00  0.00    +0.000 A 
ATOM     13  C   UNL     1       8.412  12.601  17.671  0.00  0.00    +0.000 C 
ATOM     14  O   UNL     1       7.507  12.559  16.863  0.00  0.00    +0.000 OA
ATOM     15  N   UNL     1       9.230  11.595  18.103  0.00  0.00    +0.000 N 
ENDBRANCH   4  15
ENDBRANCH   3   4
ENDBRANCH   2   3
ENDBRANCH   1   2
BRANCH   1  16
ATOM     16  C   UNL     1       7.930   5.537  17.962  0.00  0.00    +0.000 C 
BRANCH  16  17
ATOM     17  N   UNL     1       6.798   4.652  18.265  0.00  0.00    +0.000 NA
ATOM     18  C   UNL     1       5.749   5.171  19.179  0.00  0.00    +0.000 C 
ATOM     19  C   UNL     1       4.404   5.740  18.587  0.00  0.00    +0.000 C 
ATOM     20  N   UNL     1       3.951   5.203  17.278  0.00  0.00    +0.000 NA
ATOM     21  C   UNL     1       5.153   5.143  16.430  0.00  0.00    +0.000 C 
ATOM     22  C   UNL     1       6.208   4.179  17.001  0.00  0.00    +0.000 C 
BRANCH  20  23
ATOM     23  C   UNL     1       3.290   3.882  17.420  0.00  0.00    +0.000 C 
BRANCH  23  24
ATOM     24  C   UNL     1       2.591   3.638  18.758  0.00  0.00    +0.000 A 
ATOM     25  C   UNL     1       3.095   2.687  19.665  0.00  0.00    +0.000 A 
ATOM     26  C   UNL     1       2.483   2.471  20.907  0.00  0.00    +0.000 A 
ATOM     27  C   UNL     1       1.367   3.217  21.268  0.00  0.00    +0.000 A 
ATOM     28  C   UNL     1       0.854   4.164  20.386  0.00  0.00    +0.000 A 
ATOM     29  C   UNL     1       1.457   4.368  19.135  0.00  0.00    +0.000 A 
ENDBRANCH  23  24
ENDBRANCH  20  23
ENDBRANCH  16  17
ENDBRANCH   1  16
TORSDOF 8
ENDMDL
MODEL 9
REMARK VINA RESULT:      -7.6      1.773      2.569
REMARK  Name = 
REMARK  8 active torsions:
REMARK  status: ('A' for Active; 'I' for Inactive)
REMARK    1  A    between atoms: N_11  and  C_12
REMARK    2  A    between atoms: C_12  and  C_13
REMARK    3  A    between atoms: C_13  and  C_14
REMARK    4  A    between atoms: C_14  and  C_15
REMARK    5  A    between atoms: C_15  and  C_16
REMARK    6  A    between atoms: C_16  and  N_17
REMARK    7  A    between atoms: N_20  and  C_21
REMARK    8  A    between atoms: C_21  and  C_22
REMARK                            x       y       z     vdW  Elec       q    Type
REMARK                         _______ _______ _______ _____ _____    ______ ____
ROOT
ATOM      1  C   UNL     1       7.597   8.806  17.756  0.00  0.00    +0.000 C 
ENDROOT
BRANCH   1   2
ATOM      2  C   UNL     1       8.725   9.486  18.540  0.00  0.00    +0.000 C 
BRANCH   2   3
ATOM      3  C   UNL     1       9.070  10.857  17.952  0.00  0.00    +0.000 C 
BRANCH   3   4
ATOM      4  C   UNL     1      10.260  11.494  18.669  0.00  0.00    +0.000 C 
BRANCH   4  15
ATOM      5  O   UNL     1      11.527  13.145  16.579  0.00  0.00    +0.000 OA
ATOM      6  C   UNL     1      10.876  13.595  17.493  0.00  0.00    +0.000 C 
ATOM      7  C   UNL     1      10.575  15.014  17.677  0.00  0.00    +0.000 A 
ATOM      8  C   UNL     1      10.942  16.106  16.914  0.00  0.00    +0.000 A 
ATOM      9  C   UNL     1      10.479  17.359  17.328  0.00  0.00    +0.000 A 
ATOM     10  C   UNL     1       9.671  17.485  18.479  0.00  0.00    +0.000 A 
ATOM     11  C   UNL     1       9.311  16.361  19.232  0.00  0.00    +0.000 A 
ATOM     12  C   UNL     1       9.781  15.135  18.803  0.00  0.00    +0.000 A 
ATOM     13  C   UNL     1       9.566  13.791  19.338  0.00  0.00    +0.000 C 
ATOM     14  O   UNL     1       8.882  13.541  20.309  0.00  0.00    +0.000 OA
ATOM     15  N   UNL     1      10.259  12.935  18.527  0.00  0.00    +0.000 N 
ENDBRANCH   4  15
ENDBRANCH   3   4
ENDBRANCH   2   3
ENDBRANCH   1   2
BRANCH   1  16
ATOM     16  C   UNL     1       7.914   7.355  17.374  0.00  0.00    +0.000 C 
BRANCH  16  17
ATOM     17  N   UNL     1       7.061   6.310  17.952  0.00  0.00    +0.000 NA
ATOM     18  C   UNL     1       5.602   6.582  18.029  0.00  0.00    +0.000 C 
ATOM     19  C   UNL     1       4.633   5.973  16.947  0.00  0.00    +0.000 C 
ATOM     20  N   UNL     1       5.048   4.705  16.292  0.00  0.00    +0.000 NA
ATOM     21  C   UNL     1       6.478   4.861  15.983  0.00  0.00    +0.000 C 
ATOM     22  C   UNL     1       7.323   5.038  17.258  0.00  0.00    +0.000 C 
BRANCH  20  23
ATOM     23  C   UNL     1       4.778   3.524  17.150  0.00  0.00    +0.000 C 
BRANCH  23  24
ATOM     24  C   UNL     1       3.539   3.628  18.040  0.00  0.00    +0.000 A 
ATOM     25  C   UNL     1       2.251   3.491  17.492  0.00  0.00    +0.000 A 
ATOM     26  C   UNL     1       1.107   3.555  18.299  0.00  0.00    +0.000 A 
ATOM     27  C   UNL     1       1.236   3.740  19.671  0.00  0.00    +0.000 A 
ATOM     28  C   UNL     1       2.501   3.877  20.234  0.00  0.00    +0.000 A 
ATOM     29  C   UNL     1       3.647   3.829  19.423  0.00  0.00    +0.000 A 
ENDBRANCH  23  24
ENDBRANCH  20  23
ENDBRANCH  16  17
ENDBRANCH   1  16
TORSDOF 8
ENDMDL
