MODEL 1
REMARK VINA RESULT:      -8.3      0.000      0.000
REMARK  Name = 
REMARK  15 active torsions:
REMARK  status: ('A' for Active; 'I' for Inactive)
REMARK    1  A    between atoms: C_1  and  N_2
REMARK    2  A    between atoms: N_2  and  C_3
REMARK    3  A    between atoms: N_2  and  C_4
REMARK    4  A    between atoms: C_4  and  C_5
REMARK    5  A    between atoms: C_5  and  C_6
REMARK    6  A    between atoms: C_6  and  C_7
REMARK    7  A    between atoms: C_7  and  O_8
REMARK    8  A    between atoms: C_7  and  C_9
REMARK    9  A    between atoms: C_7  and  C_15
REMARK   10  A    between atoms: C_19  and  O_20
REMARK   11  A    between atoms: O_20  and  C_21
REMARK   12  A    between atoms: C_21  and  C_22
REMARK   13  A    between atoms: C_25  and  C_26
REMARK   14  A    between atoms: C_29  and  C_30
REMARK   15  A    between atoms: C_30  and  O_32
REMARK                            x       y       z     vdW  Elec       q    Type
REMARK                         _______ _______ _______ _____ _____    ______ ____
ROOT
ATOM      1  C   UNL     1      -1.239  11.843  20.692  0.00  0.00    +0.000 A 
ATOM      2  C   UNL     1      -1.932  12.137  21.877  0.00  0.00    +0.000 A 
ATOM      3  C   UNL     1      -1.636  11.457  23.064  0.00  0.00    +0.000 A 
ATOM      4  C   UNL     1      -0.645  10.473  23.086  0.00  0.00    +0.000 A 
ATOM      5  C   UNL     1       0.058  10.169  21.924  0.00  0.00    +0.000 A 
ATOM      6  C   UNL     1      -0.241  10.859  20.750  0.00  0.00    +0.000 A 
ENDROOT
BRANCH   1   7
ATOM      7  C   UNL     1      -1.524  12.557  19.366  0.00  0.00    +0.000 C 
BRANCH   7   8
ATOM      8  C   UNL     1      -2.312  11.655  18.401  0.00  0.00    +0.000 A 
ATOM      9  C   UNL     1      -1.672  10.812  17.476  0.00  0.00    +0.000 A 
ATOM     10  C   UNL     1      -2.405  10.093  16.531  0.00  0.00    +0.000 A 
ATOM     11  C   UNL     1      -3.793  10.173  16.516  0.00  0.00    +0.000 A 
ATOM     12  C   UNL     1      -4.452  10.952  17.462  0.00  0.00    +0.000 A 
ATOM     13  C   UNL     1      -3.720  11.677  18.403  0.00  0.00    +0.000 A 
ENDBRANCH   7   8
BRANCH   7  14
ATOM     14  O   UNL     1      -2.341  13.720  19.643  0.00  0.00    +0.000 OA
ATOM     15  H   UNL     1      -2.970  13.468  20.339  0.00  0.00    +0.000 HD
ENDBRANCH   7  14
BRANCH   7  16
ATOM     16  C   UNL     1      -0.211  13.155  18.777  0.00  0.00    +0.000 C 
BRANCH  16  17
ATOM     17  C   UNL     1       0.314  14.333  19.617  0.00  0.00    +0.000 C 
BRANCH  17  18
ATOM     18  C   UNL     1       1.535  15.012  19.001  0.00  0.00    +0.000 C 
BRANCH  18  20
ATOM     19  C   UNL     1       2.968  16.941  18.997  0.00  0.00    +0.000 C 
ATOM     20  N   UNL     1       1.713  16.383  19.508  0.00  0.00    +0.000 NA
ATOM     21  C   UNL     1       0.601  17.272  19.157  0.00  0.00    +0.000 C 
ENDBRANCH  18  20
ENDBRANCH  17  18
ENDBRANCH  16  17
ENDBRANCH   7  16
ENDBRANCH   1   7
BRANCH   5  22
ATOM     22  O   UNL     1       1.012   9.191  22.030  0.00  0.00    +0.000 OA
BRANCH  22  23
ATOM     23  C   UNL     1       0.570   7.882  21.665  0.00  0.00    +0.000 C 
BRANCH  23  24
ATOM     24  C   UNL     1       1.432   7.349  20.560  0.00  0.00    +0.000 A 
ATOM     25  C   UNL     1       1.803   8.176  19.500  0.00  0.00    +0.000 A 
ATOM     26  C   UNL     1       2.621   7.688  18.483  0.00  0.00    +0.000 A 
ATOM     27  C   UNL     1       3.110   6.368  18.503  0.00  0.00    +0.000 A 
ATOM     28  C   UNL     1       2.735   5.555  19.585  0.00  0.00    +0.000 A 
ATOM     29  C   UNL     1       1.901   6.033  20.594  0.00  0.00    +0.000 A 
BRANCH  27  30
ATOM     30  C   UNL     1       3.996   5.879  17.424  0.00  0.00    +0.000 A 
ATOM     31  C   UNL     1       4.691   6.779  16.594  0.00  0.00    +0.000 A 
ATOM     32  C   UNL     1       5.511   6.332  15.558  0.00  0.00    +0.000 A 
ATOM     33  C   UNL     1       5.677   4.962  15.331  0.00  0.00    +0.000 A 
ATOM     34  C   UNL     1       5.025   4.047  16.163  0.00  0.00    +0.000 A 
ATOM     35  C   UNL     1       4.183   4.504  17.184  0.00  0.00    +0.000 A 
BRANCH  33  36
ATOM     36  C   UNL     1       6.589   4.552  14.234  0.00  0.00    +0.000 C 
ATOM     37  O   UNL     1       6.347   3.615  13.492  0.00  0.00    +0.000 OA
BRANCH  36  38
ATOM     38  O   UNL     1       7.724   5.276  14.156  0.00  0.00    +0.000 OA
ATOM     39  H   UNL     1       8.159   5.462  15.006  0.00  0.00    +0.000 HD
ENDBRANCH  36  38
ENDBRANCH  33  36
ENDBRANCH  27  30
ENDBRANCH  23  24
ENDBRANCH  22  23
ENDBRANCH   5  22
TORSDOF 13
ENDMDL
MODEL 2
REMARK VINA RESULT:      -8.2      3.849     11.439
REMARK  Name = 
REMARK  15 active torsions:
REMARK  status: ('A' for Active; 'I' for Inactive)
REMARK    1  A    between atoms: C_1  and  N_2
REMARK    2  A    between atoms: N_2  and  C_3
REMARK    3  A    between atoms: N_2  and  C_4
REMARK    4  A    between atoms: C_4  and  C_5
REMARK    5  A    between atoms: C_5  and  C_6
REMARK    6  A    between atoms: C_6  and  C_7
REMARK    7  A    between atoms: C_7  and  O_8
REMARK    8  A    between atoms: C_7  and  C_9
REMARK    9  A    between atoms: C_7  and  C_15
REMARK   10  A    between atoms: C_19  and  O_20
REMARK   11  A    between atoms: O_20  and  C_21
REMARK   12  A    between atoms: C_21  and  C_22
REMARK   13  A    between atoms: C_25  and  C_26
REMARK   14  A    between atoms: C_29  and  C_30
REMARK   15  A    between atoms: C_30  and  O_32
REMARK                            x       y       z     vdW  Elec       q    Type
REMARK                         _______ _______ _______ _____ _____    ______ ____
ROOT
ATOM      1  C   UNL     1       4.089   4.572  17.187  0.00  0.00    +0.000 A 
ATOM      2  C   UNL     1       3.218   3.485  17.012  0.00  0.00    +0.000 A 
ATOM      3  C   UNL     1       1.960   3.473  17.626  0.00  0.00    +0.000 A 
ATOM      4  C   UNL     1       1.554   4.545  18.424  0.00  0.00    +0.000 A 
ATOM      5  C   UNL     1       2.398   5.635  18.606  0.00  0.00    +0.000 A 
ATOM      6  C   UNL     1       3.646   5.639  17.982  0.00  0.00    +0.000 A 
ENDROOT
BRANCH   1   7
ATOM      7  C   UNL     1       5.476   4.635  16.538  0.00  0.00    +0.000 C 
BRANCH   7   8
ATOM      8  C   UNL     1       6.388   5.641  17.261  0.00  0.00    +0.000 A 
ATOM      9  C   UNL     1       6.593   6.945  16.777  0.00  0.00    +0.000 A 
ATOM     10  C   UNL     1       7.515   7.802  17.381  0.00  0.00    +0.000 A 
ATOM     11  C   UNL     1       8.223   7.384  18.503  0.00  0.00    +0.000 A 
ATOM     12  C   UNL     1       7.991   6.121  19.038  0.00  0.00    +0.000 A 
ATOM     13  C   UNL     1       7.074   5.262  18.430  0.00  0.00    +0.000 A 
ENDBRANCH   7   8
BRANCH   7  14
ATOM     14  O   UNL     1       6.092   3.330  16.652  0.00  0.00    +0.000 OA
ATOM     15  H   UNL     1       6.190   3.142  17.600  0.00  0.00    +0.000 HD
ENDBRANCH   7  14
BRANCH   7  16
ATOM     16  C   UNL     1       5.349   4.855  15.001  0.00  0.00    +0.000 C 
BRANCH  16  17
ATOM     17  C   UNL     1       6.313   3.956  14.208  0.00  0.00    +0.000 C 
BRANCH  17  18
ATOM     18  C   UNL     1       6.078   4.009  12.700  0.00  0.00    +0.000 C 
BRANCH  18  20
ATOM     19  C   UNL     1       4.145   3.355  11.431  0.00  0.00    +0.000 C 
ATOM     20  N   UNL     1       5.271   2.869  12.231  0.00  0.00    +0.000 NA
ATOM     21  C   UNL     1       6.047   1.900  11.451  0.00  0.00    +0.000 C 
ENDBRANCH  18  20
ENDBRANCH  17  18
ENDBRANCH  16  17
ENDBRANCH   7  16
ENDBRANCH   1   7
BRANCH   5  22
ATOM     22  O   UNL     1       1.925   6.644  19.403  0.00  0.00    +0.000 OA
BRANCH  22  23
ATOM     23  C   UNL     1       2.149   7.961  18.896  0.00  0.00    +0.000 C 
BRANCH  23  24
ATOM     24  C   UNL     1       1.422   8.959  19.748  0.00  0.00    +0.000 A 
ATOM     25  C   UNL     1       0.887  10.113  19.173  0.00  0.00    +0.000 A 
ATOM     26  C   UNL     1       0.193  11.030  19.959  0.00  0.00    +0.000 A 
ATOM     27  C   UNL     1      -0.007  10.815  21.337  0.00  0.00    +0.000 A 
ATOM     28  C   UNL     1       0.528   9.642  21.893  0.00  0.00    +0.000 A 
ATOM     29  C   UNL     1       1.240   8.731  21.115  0.00  0.00    +0.000 A 
BRANCH  27  30
ATOM     30  C   UNL     1      -0.768  11.791  22.146  0.00  0.00    +0.000 A 
ATOM     31  C   UNL     1      -1.904  11.398  22.878  0.00  0.00    +0.000 A 
ATOM     32  C   UNL     1      -2.644  12.313  23.626  0.00  0.00    +0.000 A 
ATOM     33  C   UNL     1      -2.258  13.656  23.679  0.00  0.00    +0.000 A 
ATOM     34  C   UNL     1      -1.113  14.067  22.988  0.00  0.00    +0.000 A 
ATOM     35  C   UNL     1      -0.391  13.147  22.219  0.00  0.00    +0.000 A 
BRANCH  33  36
ATOM     36  C   UNL     1      -3.069  14.572  24.520  0.00  0.00    +0.000 C 
ATOM     37  O   UNL     1      -2.731  14.907  25.642  0.00  0.00    +0.000 OA
BRANCH  36  38
ATOM     38  O   UNL     1      -4.227  14.967  23.953  0.00  0.00    +0.000 OA
ATOM     39  H   UNL     1      -4.680  15.704  24.400  0.00  0.00    +0.000 HD
ENDBRANCH  36  38
ENDBRANCH  33  36
ENDBRANCH  27  30
ENDBRANCH  23  24
ENDBRANCH  22  23
ENDBRANCH   5  22
TORSDOF 13
ENDMDL
MODEL 3
REMARK VINA RESULT:      -8.1      3.764     11.369
REMARK  Name = 
REMARK  15 active torsions:
REMARK  status: ('A' for Active; 'I' for Inactive)
REMARK    1  A    between atoms: C_1  and  N_2
REMARK    2  A    between atoms: N_2  and  C_3
REMARK    3  A    between atoms: N_2  and  C_4
REMARK    4  A    between atoms: C_4  and  C_5
REMARK    5  A    between atoms: C_5  and  C_6
REMARK    6  A    between atoms: C_6  and  C_7
REMARK    7  A    between atoms: C_7  and  O_8
REMARK    8  A    between atoms: C_7  and  C_9
REMARK    9  A    between atoms: C_7  and  C_15
REMARK   10  A    between atoms: C_19  and  O_20
REMARK   11  A    between atoms: O_20  and  C_21
REMARK   12  A    between atoms: C_21  and  C_22
REMARK   13  A    between atoms: C_25  and  C_26
REMARK   14  A    between atoms: C_29  and  C_30
REMARK   15  A    between atoms: C_30  and  O_32
REMARK                            x       y       z     vdW  Elec       q    Type
REMARK                         _______ _______ _______ _____ _____    ______ ____
ROOT
ATOM      1  C   UNL     1       4.149   4.392  17.222  0.00  0.00    +0.000 A 
ATOM      2  C   UNL     1       3.373   3.223  17.180  0.00  0.00    +0.000 A 
ATOM      3  C   UNL     1       2.170   3.137  17.891  0.00  0.00    +0.000 A 
ATOM      4  C   UNL     1       1.725   4.218  18.656  0.00  0.00    +0.000 A 
ATOM      5  C   UNL     1       2.475   5.388  18.709  0.00  0.00    +0.000 A 
ATOM      6  C   UNL     1       3.667   5.463  17.989  0.00  0.00    +0.000 A 
ENDROOT
BRANCH   1   7
ATOM      7  C   UNL     1       5.472   4.537  16.462  0.00  0.00    +0.000 C 
BRANCH   7   8
ATOM      8  C   UNL     1       6.476   5.399  17.246  0.00  0.00    +0.000 A 
ATOM      9  C   UNL     1       7.090   4.944  18.426  0.00  0.00    +0.000 A 
ATOM     10  C   UNL     1       7.905   5.785  19.185  0.00  0.00    +0.000 A 
ATOM     11  C   UNL     1       8.153   7.086  18.759  0.00  0.00    +0.000 A 
ATOM     12  C   UNL     1       7.607   7.538  17.562  0.00  0.00    +0.000 A 
ATOM     13  C   UNL     1       6.786   6.700  16.806  0.00  0.00    +0.000 A 
ENDBRANCH   7   8
BRANCH   7  14
ATOM     14  O   UNL     1       6.054   3.221  16.309  0.00  0.00    +0.000 OA
ATOM     15  H   UNL     1       7.017   3.322  16.390  0.00  0.00    +0.000 HD
ENDBRANCH   7  14
BRANCH   7  16
ATOM     16  C   UNL     1       5.211   5.004  14.999  0.00  0.00    +0.000 C 
BRANCH  16  17
ATOM     17  C   UNL     1       5.908   4.095  13.971  0.00  0.00    +0.000 C 
BRANCH  17  18
ATOM     18  C   UNL     1       4.988   3.666  12.830  0.00  0.00    +0.000 C 
BRANCH  18  20
ATOM     19  C   UNL     1       7.125   3.737  11.733  0.00  0.00    +0.000 C 
ATOM     20  N   UNL     1       5.751   3.240  11.643  0.00  0.00    +0.000 NA
ATOM     21  C   UNL     1       5.765   1.785  11.465  0.00  0.00    +0.000 C 
ENDBRANCH  18  20
ENDBRANCH  17  18
ENDBRANCH  16  17
ENDBRANCH   7  16
ENDBRANCH   1   7
BRANCH   5  22
ATOM     22  O   UNL     1       1.969   6.400  19.482  0.00  0.00    +0.000 OA
BRANCH  22  23
ATOM     23  C   UNL     1       2.352   7.714  19.072  0.00  0.00    +0.000 C 
BRANCH  23  24
ATOM     24  C   UNL     1       1.438   8.724  19.701  0.00  0.00    +0.000 A 
ATOM     25  C   UNL     1       0.995   9.823  18.964  0.00  0.00    +0.000 A 
ATOM     26  C   UNL     1       0.130  10.750  19.540  0.00  0.00    +0.000 A 
ATOM     27  C   UNL     1      -0.337  10.600  20.861  0.00  0.00    +0.000 A 
ATOM     28  C   UNL     1       0.111   9.480  21.581  0.00  0.00    +0.000 A 
ATOM     29  C   UNL     1       0.993   8.560  21.015  0.00  0.00    +0.000 A 
BRANCH  27  30
ATOM     30  C   UNL     1      -1.273  11.584  21.443  0.00  0.00    +0.000 A 
ATOM     31  C   UNL     1      -2.121  12.352  20.622  0.00  0.00    +0.000 A 
ATOM     32  C   UNL     1      -2.992  13.301  21.156  0.00  0.00    +0.000 A 
ATOM     33  C   UNL     1      -3.056  13.500  22.539  0.00  0.00    +0.000 A 
ATOM     34  C   UNL     1      -2.249  12.726  23.379  0.00  0.00    +0.000 A 
ATOM     35  C   UNL     1      -1.359  11.794  22.833  0.00  0.00    +0.000 A 
BRANCH  33  36
ATOM     36  C   UNL     1      -4.027  14.501  23.046  0.00  0.00    +0.000 C 
ATOM     37  O   UNL     1      -5.111  14.190  23.509  0.00  0.00    +0.000 OA
BRANCH  36  38
ATOM     38  O   UNL     1      -3.627  15.782  22.911  0.00  0.00    +0.000 OA
ATOM     39  H   UNL     1      -3.043  16.113  23.617  0.00  0.00    +0.000 HD
ENDBRANCH  36  38
ENDBRANCH  33  36
ENDBRANCH  27  30
ENDBRANCH  23  24
ENDBRANCH  22  23
ENDBRANCH   5  22
TORSDOF 13
ENDMDL
MODEL 4
REMARK VINA RESULT:      -8.1      0.696      1.359
REMARK  Name = 
REMARK  15 active torsions:
REMARK  status: ('A' for Active; 'I' for Inactive)
REMARK    1  A    between atoms: C_1  and  N_2
REMARK    2  A    between atoms: N_2  and  C_3
REMARK    3  A    between atoms: N_2  and  C_4
REMARK    4  A    between atoms: C_4  and  C_5
REMARK    5  A    between atoms: C_5  and  C_6
REMARK    6  A    between atoms: C_6  and  C_7
REMARK    7  A    between atoms: C_7  and  O_8
REMARK    8  A    between atoms: C_7  and  C_9
REMARK    9  A    between atoms: C_7  and  C_15
REMARK   10  A    between atoms: C_19  and  O_20
REMARK   11  A    between atoms: O_20  and  C_21
REMARK   12  A    between atoms: C_21  and  C_22
REMARK   13  A    between atoms: C_25  and  C_26
REMARK   14  A    between atoms: C_29  and  C_30
REMARK   15  A    between atoms: C_30  and  O_32
REMARK                            x       y       z     vdW  Elec       q    Type
REMARK                         _______ _______ _______ _____ _____    ______ ____
ROOT
ATOM      1  C   UNL     1      -1.450  11.892  20.842  0.00  0.00    +0.000 A 
ATOM      2  C   UNL     1      -2.087  12.134  22.069  0.00  0.00    +0.000 A 
ATOM      3  C   UNL     1      -1.716  11.426  23.218  0.00  0.00    +0.000 A 
ATOM      4  C   UNL     1      -0.703  10.467  23.160  0.00  0.00    +0.000 A 
ATOM      5  C   UNL     1      -0.054  10.214  21.956  0.00  0.00    +0.000 A 
ATOM      6  C   UNL     1      -0.427  10.932  20.820  0.00  0.00    +0.000 A 
ENDROOT
BRANCH   1   7
ATOM      7  C   UNL     1      -1.817  12.638  19.555  0.00  0.00    +0.000 C 
BRANCH   7   8
ATOM      8  C   UNL     1      -2.339  11.672  18.477  0.00  0.00    +0.000 A 
ATOM      9  C   UNL     1      -3.700  11.603  18.131  0.00  0.00    +0.000 A 
ATOM     10  C   UNL     1      -4.168  10.639  17.238  0.00  0.00    +0.000 A 
ATOM     11  C   UNL     1      -3.280   9.748  16.644  0.00  0.00    +0.000 A 
ATOM     12  C   UNL     1      -1.920   9.838  16.923  0.00  0.00    +0.000 A 
ATOM     13  C   UNL     1      -1.452  10.797  17.821  0.00  0.00    +0.000 A 
ENDBRANCH   7   8
BRANCH   7  14
ATOM     14  O   UNL     1      -2.884  13.569  19.858  0.00  0.00    +0.000 OA
ATOM     15  H   UNL     1      -3.630  13.348  19.278  0.00  0.00    +0.000 HD
ENDBRANCH   7  14
BRANCH   7  16
ATOM     16  C   UNL     1      -0.641  13.552  19.100  0.00  0.00    +0.000 C 
BRANCH  16  17
ATOM     17  C   UNL     1       0.234  13.997  20.285  0.00  0.00    +0.000 C 
BRANCH  17  18
ATOM     18  C   UNL     1      -0.080  15.413  20.764  0.00  0.00    +0.000 C 
BRANCH  18  20
ATOM     19  C   UNL     1      -1.664  16.981  19.866  0.00  0.00    +0.000 C 
ATOM     20  N   UNL     1      -0.379  16.317  19.639  0.00  0.00    +0.000 NA
ATOM     21  C   UNL     1       0.664  17.326  19.424  0.00  0.00    +0.000 C 
ENDBRANCH  18  20
ENDBRANCH  17  18
ENDBRANCH  16  17
ENDBRANCH   7  16
ENDBRANCH   1   7
BRANCH   5  22
ATOM     22  O   UNL     1       0.927   9.258  21.984  0.00  0.00    +0.000 OA
BRANCH  22  23
ATOM     23  C   UNL     1       0.492   7.946  21.621  0.00  0.00    +0.000 C 
BRANCH  23  24
ATOM     24  C   UNL     1       1.378   7.403  20.538  0.00  0.00    +0.000 A 
ATOM     25  C   UNL     1       1.748   8.213  19.464  0.00  0.00    +0.000 A 
ATOM     26  C   UNL     1       2.587   7.717  18.469  0.00  0.00    +0.000 A 
ATOM     27  C   UNL     1       3.101   6.407  18.526  0.00  0.00    +0.000 A 
ATOM     28  C   UNL     1       2.728   5.612  19.623  0.00  0.00    +0.000 A 
ATOM     29  C   UNL     1       1.872   6.098  20.610  0.00  0.00    +0.000 A 
BRANCH  27  30
ATOM     30  C   UNL     1       4.010   5.910  17.471  0.00  0.00    +0.000 A 
ATOM     31  C   UNL     1       4.812   6.797  16.729  0.00  0.00    +0.000 A 
ATOM     32  C   UNL     1       5.657   6.345  15.714  0.00  0.00    +0.000 A 
ATOM     33  C   UNL     1       5.737   4.980  15.421  0.00  0.00    +0.000 A 
ATOM     34  C   UNL     1       4.975   4.074  16.166  0.00  0.00    +0.000 A 
ATOM     35  C   UNL     1       4.112   4.539  17.165  0.00  0.00    +0.000 A 
BRANCH  33  36
ATOM     36  C   UNL     1       6.678   4.561  14.353  0.00  0.00    +0.000 C 
ATOM     37  O   UNL     1       7.642   5.231  14.025  0.00  0.00    +0.000 OA
BRANCH  36  38
ATOM     38  O   UNL     1       6.353   3.399  13.750  0.00  0.00    +0.000 OA
ATOM     39  H   UNL     1       6.841   3.203  12.931  0.00  0.00    +0.000 HD
ENDBRANCH  36  38
ENDBRANCH  33  36
ENDBRANCH  27  30
ENDBRANCH  23  24
ENDBRANCH  22  23
ENDBRANCH   5  22
TORSDOF 13
ENDMDL
MODEL 5
REMARK VINA RESULT:      -8.0      3.963     11.300
REMARK  Name = 
REMARK  15 active torsions:
REMARK  status: ('A' for Active; 'I' for Inactive)
REMARK    1  A    between atoms: C_1  and  N_2
REMARK    2  A    between atoms: N_2  and  C_3
REMARK    3  A    between atoms: N_2  and  C_4
REMARK    4  A    between atoms: C_4  and  C_5
REMARK    5  A    between atoms: C_5  and  C_6
REMARK    6  A    between atoms: C_6  and  C_7
REMARK    7  A    between atoms: C_7  and  O_8
REMARK    8  A    between atoms: C_7  and  C_9
REMARK    9  A    between atoms: C_7  and  C_15
REMARK   10  A    between atoms: C_19  and  O_20
REMARK   11  A    between atoms: O_20  and  C_21
REMARK   12  A    between atoms: C_21  and  C_22
REMARK   13  A    between atoms: C_25  and  C_26
REMARK   14  A    between atoms: C_29  and  C_30
REMARK   15  A    between atoms: C_30  and  O_32
REMARK                            x       y       z     vdW  Elec       q    Type
REMARK                         _______ _______ _______ _____ _____    ______ ____
ROOT
ATOM      1  C   UNL     1       3.528   6.031  18.188  0.00  0.00    +0.000 A 
ATOM      2  C   UNL     1       3.596   7.106  17.289  0.00  0.00    +0.000 A 
ATOM      3  C   UNL     1       2.934   8.309  17.562  0.00  0.00    +0.000 A 
ATOM      4  C   UNL     1       2.195   8.456  18.739  0.00  0.00    +0.000 A 
ATOM      5  C   UNL     1       2.119   7.406  19.647  0.00  0.00    +0.000 A 
ATOM      6  C   UNL     1       2.789   6.215  19.366  0.00  0.00    +0.000 A 
ENDROOT
BRANCH   1   7
ATOM      7  C   UNL     1       4.233   4.694  17.937  0.00  0.00    +0.000 C 
BRANCH   7   8
ATOM      8  C   UNL     1       5.247   4.803  16.785  0.00  0.00    +0.000 A 
ATOM      9  C   UNL     1       4.932   4.408  15.473  0.00  0.00    +0.000 A 
ATOM     10  C   UNL     1       5.902   4.403  14.470  0.00  0.00    +0.000 A 
ATOM     11  C   UNL     1       7.197   4.827  14.750  0.00  0.00    +0.000 A 
ATOM     12  C   UNL     1       7.516   5.282  16.025  0.00  0.00    +0.000 A 
ATOM     13  C   UNL     1       6.548   5.281  17.031  0.00  0.00    +0.000 A 
ENDBRANCH   7   8
BRANCH   7  14
ATOM     14  O   UNL     1       4.968   4.336  19.132  0.00  0.00    +0.000 OA
ATOM     15  H   UNL     1       4.315   4.197  19.838  0.00  0.00    +0.000 HD
ENDBRANCH   7  14
BRANCH   7  16
ATOM     16  C   UNL     1       3.189   3.549  17.783  0.00  0.00    +0.000 C 
BRANCH  16  17
ATOM     17  C   UNL     1       3.263   2.541  18.943  0.00  0.00    +0.000 C 
BRANCH  17  18
ATOM     18  C   UNL     1       1.895   2.001  19.357  0.00  0.00    +0.000 C 
BRANCH  18  20
ATOM     19  C   UNL     1       2.585   2.768  21.528  0.00  0.00    +0.000 C 
ATOM     20  N   UNL     1       1.441   2.583  20.633  0.00  0.00    +0.000 NA
ATOM     21  C   UNL     1       0.739   3.859  20.461  0.00  0.00    +0.000 C 
ENDBRANCH  18  20
ENDBRANCH  17  18
ENDBRANCH  16  17
ENDBRANCH   7  16
ENDBRANCH   1   7
BRANCH   5  22
ATOM     22  O   UNL     1       1.374   7.631  20.775  0.00  0.00    +0.000 OA
BRANCH  22  23
ATOM     23  C   UNL     1       1.872   8.666  21.624  0.00  0.00    +0.000 C 
BRANCH  23  24
ATOM     24  C   UNL     1       0.775   9.644  21.924  0.00  0.00    +0.000 A 
ATOM     25  C   UNL     1       0.561  10.737  21.084  0.00  0.00    +0.000 A 
ATOM     26  C   UNL     1      -0.471  11.634  21.350  0.00  0.00    +0.000 A 
ATOM     27  C   UNL     1      -1.334  11.457  22.449  0.00  0.00    +0.000 A 
ATOM     28  C   UNL     1      -1.110  10.343  23.275  0.00  0.00    +0.000 A 
ATOM     29  C   UNL     1      -0.066   9.454  23.024  0.00  0.00    +0.000 A 
BRANCH  27  30
ATOM     30  C   UNL     1      -2.438  12.409  22.697  0.00  0.00    +0.000 A 
ATOM     31  C   UNL     1      -3.314  12.236  23.785  0.00  0.00    +0.000 A 
ATOM     32  C   UNL     1      -4.374  13.113  24.017  0.00  0.00    +0.000 A 
ATOM     33  C   UNL     1      -4.580  14.208  23.172  0.00  0.00    +0.000 A 
ATOM     34  C   UNL     1      -3.703  14.422  22.104  0.00  0.00    +0.000 A 
ATOM     35  C   UNL     1      -2.658  13.522  21.863  0.00  0.00    +0.000 A 
BRANCH  33  36
ATOM     36  C   UNL     1      -5.705  15.122  23.493  0.00  0.00    +0.000 C 
ATOM     37  O   UNL     1      -6.718  15.180  22.818  0.00  0.00    +0.000 OA
BRANCH  36  38
ATOM     38  O   UNL     1      -5.492  15.909  24.567  0.00  0.00    +0.000 OA
ATOM     39  H   UNL     1      -5.716  16.849  24.446  0.00  0.00    +0.000 HD
ENDBRANCH  36  38
ENDBRANCH  33  36
ENDBRANCH  27  30
ENDBRANCH  23  24
ENDBRANCH  22  23
ENDBRANCH   5  22
TORSDOF 13
ENDMDL
MODEL 6
REMARK VINA RESULT:      -8.0      3.700     11.402
REMARK  Name = 
REMARK  15 active torsions:
REMARK  status: ('A' for Active; 'I' for Inactive)
REMARK    1  A    between atoms: C_1  and  N_2
REMARK    2  A    between atoms: N_2  and  C_3
REMARK    3  A    between atoms: N_2  and  C_4
REMARK    4  A    between atoms: C_4  and  C_5
REMARK    5  A    between atoms: C_5  and  C_6
REMARK    6  A    between atoms: C_6  and  C_7
REMARK    7  A    between atoms: C_7  and  O_8
REMARK    8  A    between atoms: C_7  and  C_9
REMARK    9  A    between atoms: C_7  and  C_15
REMARK   10  A    between atoms: C_19  and  O_20
REMARK   11  A    between atoms: O_20  and  C_21
REMARK   12  A    between atoms: C_21  and  C_22
REMARK   13  A    between atoms: C_25  and  C_26
REMARK   14  A    between atoms: C_29  and  C_30
REMARK   15  A    between atoms: C_30  and  O_32
REMARK                            x       y       z     vdW  Elec       q    Type
REMARK                         _______ _______ _______ _____ _____    ______ ____
ROOT
ATOM      1  C   UNL     1       4.125   4.452  16.988  0.00  0.00    +0.000 A 
ATOM      2  C   UNL     1       3.196   3.415  16.811  0.00  0.00    +0.000 A 
ATOM      3  C   UNL     1       1.945   3.463  17.437  0.00  0.00    +0.000 A 
ATOM      4  C   UNL     1       1.603   4.546  18.250  0.00  0.00    +0.000 A 
ATOM      5  C   UNL     1       2.506   5.587  18.436  0.00  0.00    +0.000 A 
ATOM      6  C   UNL     1       3.746   5.532  17.800  0.00  0.00    +0.000 A 
ENDROOT
BRANCH   1   7
ATOM      7  C   UNL     1       5.507   4.449  16.326  0.00  0.00    +0.000 C 
BRANCH   7   8
ATOM      8  C   UNL     1       6.490   5.362  17.078  0.00  0.00    +0.000 A 
ATOM      9  C   UNL     1       7.240   4.908  18.178  0.00  0.00    +0.000 A 
ATOM     10  C   UNL     1       8.035   5.783  18.918  0.00  0.00    +0.000 A 
ATOM     11  C   UNL     1       8.126   7.122  18.552  0.00  0.00    +0.000 A 
ATOM     12  C   UNL     1       7.444   7.581  17.430  0.00  0.00    +0.000 A 
ATOM     13  C   UNL     1       6.643   6.708  16.693  0.00  0.00    +0.000 A 
ENDBRANCH   7   8
BRANCH   7  14
ATOM     14  O   UNL     1       6.034   3.102  16.382  0.00  0.00    +0.000 OA
ATOM     15  H   UNL     1       5.715   2.637  15.591  0.00  0.00    +0.000 HD
ENDBRANCH   7  14
BRANCH   7  16
ATOM     16  C   UNL     1       5.381   4.739  14.801  0.00  0.00    +0.000 C 
BRANCH  16  17
ATOM     17  C   UNL     1       6.719   4.550  14.065  0.00  0.00    +0.000 C 
BRANCH  17  18
ATOM     18  C   UNL     1       6.547   4.194  12.590  0.00  0.00    +0.000 C 
BRANCH  18  20
ATOM     19  C   UNL     1       4.408   3.591  11.675  0.00  0.00    +0.000 C 
ATOM     20  N   UNL     1       5.581   3.098  12.400  0.00  0.00    +0.000 NA
ATOM     21  C   UNL     1       6.152   1.950  11.688  0.00  0.00    +0.000 C 
ENDBRANCH  18  20
ENDBRANCH  17  18
ENDBRANCH  16  17
ENDBRANCH   7  16
ENDBRANCH   1   7
BRANCH   5  22
ATOM     22  O   UNL     1       2.095   6.611  19.249  0.00  0.00    +0.000 OA
BRANCH  22  23
ATOM     23  C   UNL     1       2.268   7.918  18.698  0.00  0.00    +0.000 C 
BRANCH  23  24
ATOM     24  C   UNL     1       1.328   8.876  19.369  0.00  0.00    +0.000 A 
ATOM     25  C   UNL     1       1.052   8.748  20.730  0.00  0.00    +0.000 A 
ATOM     26  C   UNL     1       0.196   9.650  21.359  0.00  0.00    +0.000 A 
ATOM     27  C   UNL     1      -0.393  10.718  20.655  0.00  0.00    +0.000 A 
ATOM     28  C   UNL     1      -0.091  10.837  19.288  0.00  0.00    +0.000 A 
ATOM     29  C   UNL     1       0.749   9.926  18.651  0.00  0.00    +0.000 A 
BRANCH  27  30
ATOM     30  C   UNL     1      -1.278  11.677  21.350  0.00  0.00    +0.000 A 
ATOM     31  C   UNL     1      -1.945  12.693  20.640  0.00  0.00    +0.000 A 
ATOM     32  C   UNL     1      -2.765  13.619  21.286  0.00  0.00    +0.000 A 
ATOM     33  C   UNL     1      -2.958  13.544  22.669  0.00  0.00    +0.000 A 
ATOM     34  C   UNL     1      -2.334  12.523  23.393  0.00  0.00    +0.000 A 
ATOM     35  C   UNL     1      -1.493  11.615  22.740  0.00  0.00    +0.000 A 
BRANCH  33  36
ATOM     36  C   UNL     1      -3.868  14.539  23.290  0.00  0.00    +0.000 C 
ATOM     37  O   UNL     1      -4.127  15.610  22.770  0.00  0.00    +0.000 OA
BRANCH  36  38
ATOM     38  O   UNL     1      -4.350  14.173  24.496  0.00  0.00    +0.000 OA
ATOM     39  H   UNL     1      -5.242  14.502  24.706  0.00  0.00    +0.000 HD
ENDBRANCH  36  38
ENDBRANCH  33  36
ENDBRANCH  27  30
ENDBRANCH  23  24
ENDBRANCH  22  23
ENDBRANCH   5  22
TORSDOF 13
ENDMDL
MODEL 7
REMARK VINA RESULT:      -8.0      3.977     11.489
REMARK  Name = 
REMARK  15 active torsions:
REMARK  status: ('A' for Active; 'I' for Inactive)
REMARK    1  A    between atoms: C_1  and  N_2
REMARK    2  A    between atoms: N_2  and  C_3
REMARK    3  A    between atoms: N_2  and  C_4
REMARK    4  A    between atoms: C_4  and  C_5
REMARK    5  A    between atoms: C_5  and  C_6
REMARK    6  A    between atoms: C_6  and  C_7
REMARK    7  A    between atoms: C_7  and  O_8
REMARK    8  A    between atoms: C_7  and  C_9
REMARK    9  A    between atoms: C_7  and  C_15
REMARK   10  A    between atoms: C_19  and  O_20
REMARK   11  A    between atoms: O_20  and  C_21
REMARK   12  A    between atoms: C_21  and  C_22
REMARK   13  A    between atoms: C_25  and  C_26
REMARK   14  A    between atoms: C_29  and  C_30
REMARK   15  A    between atoms: C_30  and  O_32
REMARK                            x       y       z     vdW  Elec       q    Type
REMARK                         _______ _______ _______ _____ _____    ______ ____
ROOT
ATOM      1  C   UNL     1       3.978   5.070  17.453  0.00  0.00    +0.000 A 
ATOM      2  C   UNL     1       2.969   4.102  17.332  0.00  0.00    +0.000 A 
ATOM      3  C   UNL     1       1.705   4.315  17.894  0.00  0.00    +0.000 A 
ATOM      4  C   UNL     1       1.430   5.497  18.586  0.00  0.00    +0.000 A 
ATOM      5  C   UNL     1       2.413   6.472  18.713  0.00  0.00    +0.000 A 
ATOM      6  C   UNL     1       3.666   6.252  18.141  0.00  0.00    +0.000 A 
ENDROOT
BRANCH   1   7
ATOM      7  C   UNL     1       5.378   4.887  16.857  0.00  0.00    +0.000 C 
BRANCH   7   8
ATOM      8  C   UNL     1       6.393   5.845  17.506  0.00  0.00    +0.000 A 
ATOM      9  C   UNL     1       6.666   7.116  16.972  0.00  0.00    +0.000 A 
ATOM     10  C   UNL     1       7.674   7.920  17.506  0.00  0.00    +0.000 A 
ATOM     11  C   UNL     1       8.405   7.484  18.606  0.00  0.00    +0.000 A 
ATOM     12  C   UNL     1       8.110   6.256  19.190  0.00  0.00    +0.000 A 
ATOM     13  C   UNL     1       7.106   5.449  18.653  0.00  0.00    +0.000 A 
ENDBRANCH   7   8
BRANCH   7  14
ATOM     14  O   UNL     1       5.817   3.536  17.133  0.00  0.00    +0.000 OA
ATOM     15  H   UNL     1       6.778   3.568  17.266  0.00  0.00    +0.000 HD
ENDBRANCH   7  14
BRANCH   7  16
ATOM     16  C   UNL     1       5.321   4.951  15.302  0.00  0.00    +0.000 C 
BRANCH  16  17
ATOM     17  C   UNL     1       6.416   4.090  14.649  0.00  0.00    +0.000 C 
BRANCH  17  18
ATOM     18  C   UNL     1       6.465   4.234  13.129  0.00  0.00    +0.000 C 
BRANCH  18  20
ATOM     19  C   UNL     1       4.667   3.417  11.759  0.00  0.00    +0.000 C 
ATOM     20  N   UNL     1       5.907   3.052  12.448  0.00  0.00    +0.000 NA
ATOM     21  C   UNL     1       6.841   2.447  11.494  0.00  0.00    +0.000 C 
ENDBRANCH  18  20
ENDBRANCH  17  18
ENDBRANCH  16  17
ENDBRANCH   7  16
ENDBRANCH   1   7
BRANCH   5  22
ATOM     22  O   UNL     1       2.063   7.601  19.406  0.00  0.00    +0.000 OA
BRANCH  22  23
ATOM     23  C   UNL     1       1.555   7.362  20.721  0.00  0.00    +0.000 C 
BRANCH  23  24
ATOM     24  C   UNL     1       0.804   8.569  21.199  0.00  0.00    +0.000 A 
ATOM     25  C   UNL     1       0.212   8.572  22.462  0.00  0.00    +0.000 A 
ATOM     26  C   UNL     1      -0.467   9.700  22.915  0.00  0.00    +0.000 A 
ATOM     27  C   UNL     1      -0.559  10.867  22.132  0.00  0.00    +0.000 A 
ATOM     28  C   UNL     1       0.055  10.849  20.869  0.00  0.00    +0.000 A 
ATOM     29  C   UNL     1       0.719   9.715  20.403  0.00  0.00    +0.000 A 
BRANCH  27  30
ATOM     30  C   UNL     1      -1.265  12.061  22.644  0.00  0.00    +0.000 A 
ATOM     31  C   UNL     1      -0.647  13.325  22.642  0.00  0.00    +0.000 A 
ATOM     32  C   UNL     1      -1.293  14.455  23.145  0.00  0.00    +0.000 A 
ATOM     33  C   UNL     1      -2.592  14.357  23.651  0.00  0.00    +0.000 A 
ATOM     34  C   UNL     1      -3.242  13.119  23.634  0.00  0.00    +0.000 A 
ATOM     35  C   UNL     1      -2.577  11.985  23.152  0.00  0.00    +0.000 A 
BRANCH  33  36
ATOM     36  C   UNL     1      -3.236  15.603  24.140  0.00  0.00    +0.000 C 
ATOM     37  O   UNL     1      -3.096  16.012  25.280  0.00  0.00    +0.000 OA
BRANCH  36  38
ATOM     38  O   UNL     1      -4.019  16.217  23.230  0.00  0.00    +0.000 OA
ATOM     39  H   UNL     1      -3.978  17.190  23.234  0.00  0.00    +0.000 HD
ENDBRANCH  36  38
ENDBRANCH  33  36
ENDBRANCH  27  30
ENDBRANCH  23  24
ENDBRANCH  22  23
ENDBRANCH   5  22
TORSDOF 13
ENDMDL
MODEL 8
REMARK VINA RESULT:      -7.9      3.936     11.486
REMARK  Name = 
REMARK  15 active torsions:
REMARK  status: ('A' for Active; 'I' for Inactive)
REMARK    1  A    between atoms: C_1  and  N_2
REMARK    2  A    between atoms: N_2  and  C_3
REMARK    3  A    between atoms: N_2  and  C_4
REMARK    4  A    between atoms: C_4  and  C_5
REMARK    5  A    between atoms: C_5  and  C_6
REMARK    6  A    between atoms: C_6  and  C_7
REMARK    7  A    between atoms: C_7  and  O_8
REMARK    8  A    between atoms: C_7  and  C_9
REMARK    9  A    between atoms: C_7  and  C_15
REMARK   10  A    between atoms: C_19  and  O_20
REMARK   11  A    between atoms: O_20  and  C_21
REMARK   12  A    between atoms: C_21  and  C_22
REMARK   13  A    between atoms: C_25  and  C_26
REMARK   14  A    between atoms: C_29  and  C_30
REMARK   15  A    between atoms: C_30  and  O_32
REMARK                            x       y       z     vdW  Elec       q    Type
REMARK                         _______ _______ _______ _____ _____    ______ ____
ROOT
ATOM      1  C   UNL     1       4.154   5.235  17.397  0.00  0.00    +0.000 A 
ATOM      2  C   UNL     1       3.255   4.159  17.345  0.00  0.00    +0.000 A 
ATOM      3  C   UNL     1       2.001   4.246  17.961  0.00  0.00    +0.000 A 
ATOM      4  C   UNL     1       1.627   5.409  18.639  0.00  0.00    +0.000 A 
ATOM      5  C   UNL     1       2.500   6.489  18.699  0.00  0.00    +0.000 A 
ATOM      6  C   UNL     1       3.744   6.393  18.074  0.00  0.00    +0.000 A 
ENDROOT
BRANCH   1   7
ATOM      7  C   UNL     1       5.538   5.192  16.740  0.00  0.00    +0.000 C 
BRANCH   7   8
ATOM      8  C   UNL     1       6.537   6.100  17.477  0.00  0.00    +0.000 A 
ATOM      9  C   UNL     1       6.834   7.400  17.031  0.00  0.00    +0.000 A 
ATOM     10  C   UNL     1       7.830   8.162  17.644  0.00  0.00    +0.000 A 
ATOM     11  C   UNL     1       8.523   7.653  18.737  0.00  0.00    +0.000 A 
ATOM     12  C   UNL     1       8.204   6.394  19.235  0.00  0.00    +0.000 A 
ATOM     13  C   UNL     1       7.213   5.629  18.619  0.00  0.00    +0.000 A 
ENDBRANCH   7   8
BRANCH   7  14
ATOM     14  O   UNL     1       6.038   3.836  16.823  0.00  0.00    +0.000 OA
ATOM     15  H   UNL     1       6.236   3.660  17.758  0.00  0.00    +0.000 HD
ENDBRANCH   7  14
BRANCH   7  16
ATOM     16  C   UNL     1       5.422   5.454  15.209  0.00  0.00    +0.000 C 
BRANCH  16  17
ATOM     17  C   UNL     1       5.303   4.146  14.407  0.00  0.00    +0.000 C 
BRANCH  17  18
ATOM     18  C   UNL     1       6.350   4.023  13.301  0.00  0.00    +0.000 C 
BRANCH  18  20
ATOM     19  C   UNL     1       4.781   3.230  11.663  0.00  0.00    +0.000 C 
ATOM     20  N   UNL     1       6.031   2.931  12.365  0.00  0.00    +0.000 NA
ATOM     21  C   UNL     1       7.097   2.685  11.388  0.00  0.00    +0.000 C 
ENDBRANCH  18  20
ENDBRANCH  17  18
ENDBRANCH  16  17
ENDBRANCH   7  16
ENDBRANCH   1   7
BRANCH   5  22
ATOM     22  O   UNL     1       2.058   7.591  19.384  0.00  0.00    +0.000 OA
BRANCH  22  23
ATOM     23  C   UNL     1       1.499   7.311  20.669  0.00  0.00    +0.000 C 
BRANCH  23  24
ATOM     24  C   UNL     1       0.809   8.534  21.196  0.00  0.00    +0.000 A 
ATOM     25  C   UNL     1       0.400   9.540  20.320  0.00  0.00    +0.000 A 
ATOM     26  C   UNL     1      -0.259  10.667  20.806  0.00  0.00    +0.000 A 
ATOM     27  C   UNL     1      -0.548  10.816  22.176  0.00  0.00    +0.000 A 
ATOM     28  C   UNL     1      -0.139   9.787  23.039  0.00  0.00    +0.000 A 
ATOM     29  C   UNL     1       0.538   8.666  22.560  0.00  0.00    +0.000 A 
BRANCH  27  30
ATOM     30  C   UNL     1      -1.270  12.010  22.665  0.00  0.00    +0.000 A 
ATOM     31  C   UNL     1      -2.544  11.898  23.251  0.00  0.00    +0.000 A 
ATOM     32  C   UNL     1      -3.246  13.019  23.695  0.00  0.00    +0.000 A 
ATOM     33  C   UNL     1      -2.683  14.293  23.581  0.00  0.00    +0.000 A 
ATOM     34  C   UNL     1      -1.404  14.430  23.032  0.00  0.00    +0.000 A 
ATOM     35  C   UNL     1      -0.718  13.302  22.566  0.00  0.00    +0.000 A 
BRANCH  33  36
ATOM     36  C   UNL     1      -3.468  15.441  24.102  0.00  0.00    +0.000 C 
ATOM     37  O   UNL     1      -4.533  15.784  23.619  0.00  0.00    +0.000 OA
BRANCH  36  38
ATOM     38  O   UNL     1      -2.882  16.094  25.126  0.00  0.00    +0.000 OA
ATOM     39  H   UNL     1      -3.485  16.389  25.832  0.00  0.00    +0.000 HD
ENDBRANCH  36  38
ENDBRANCH  33  36
ENDBRANCH  27  30
ENDBRANCH  23  24
ENDBRANCH  22  23
ENDBRANCH   5  22
TORSDOF 13
ENDMDL
MODEL 9
REMARK VINA RESULT:      -7.8      0.717      1.036
REMARK  Name = 
REMARK  15 active torsions:
REMARK  status: ('A' for Active; 'I' for Inactive)
REMARK    1  A    between atoms: C_1  and  N_2
REMARK    2  A    between atoms: N_2  and  C_3
REMARK    3  A    between atoms: N_2  and  C_4
REMARK    4  A    between atoms: C_4  and  C_5
REMARK    5  A    between atoms: C_5  and  C_6
REMARK    6  A    between atoms: C_6  and  C_7
REMARK    7  A    between atoms: C_7  and  O_8
REMARK    8  A    between atoms: C_7  and  C_9
REMARK    9  A    between atoms: C_7  and  C_15
REMARK   10  A    between atoms: C_19  and  O_20
REMARK   11  A    between atoms: O_20  and  C_21
REMARK   12  A    between atoms: C_21  and  C_22
REMARK   13  A    between atoms: C_25  and  C_26
REMARK   14  A    between atoms: C_29  and  C_30
REMARK   15  A    between atoms: C_30  and  O_32
REMARK                            x       y       z     vdW  Elec       q    Type
REMARK                         _______ _______ _______ _____ _____    ______ ____
ROOT
ATOM      1  C   UNL     1      -1.167  11.678  20.478  0.00  0.00    +0.000 A 
ATOM      2  C   UNL     1      -1.220  12.152  21.797  0.00  0.00    +0.000 A 
ATOM      3  C   UNL     1      -0.976  11.293  22.876  0.00  0.00    +0.000 A 
ATOM      4  C   UNL     1      -0.677   9.947  22.652  0.00  0.00    +0.000 A 
ATOM      5  C   UNL     1      -0.614   9.456  21.352  0.00  0.00    +0.000 A 
ATOM      6  C   UNL     1      -0.851  10.324  20.286  0.00  0.00    +0.000 A 
ENDROOT
BRANCH   1   7
ATOM      7  C   UNL     1      -1.426  12.575  19.263  0.00  0.00    +0.000 C 
BRANCH   7   8
ATOM      8  C   UNL     1      -2.413  11.919  18.281  0.00  0.00    +0.000 A 
ATOM      9  C   UNL     1      -1.992  11.359  17.062  0.00  0.00    +0.000 A 
ATOM     10  C   UNL     1      -2.916  10.877  16.134  0.00  0.00    +0.000 A 
ATOM     11  C   UNL     1      -4.277  10.912  16.422  0.00  0.00    +0.000 A 
ATOM     12  C   UNL     1      -4.712  11.404  17.649  0.00  0.00    +0.000 A 
ATOM     13  C   UNL     1      -3.789  11.892  18.574  0.00  0.00    +0.000 A 
ENDBRANCH   7   8
BRANCH   7  14
ATOM     14  O   UNL     1      -2.027  13.807  19.728  0.00  0.00    +0.000 OA
ATOM     15  H   UNL     1      -1.318  14.468  19.785  0.00  0.00    +0.000 HD
ENDBRANCH   7  14
BRANCH   7  16
ATOM     16  C   UNL     1      -0.079  13.033  18.628  0.00  0.00    +0.000 C 
BRANCH  16  17
ATOM     17  C   UNL     1       1.013  13.253  19.689  0.00  0.00    +0.000 C 
BRANCH  17  18
ATOM     18  C   UNL     1       1.320  14.729  19.936  0.00  0.00    +0.000 C 
BRANCH  18  20
ATOM     19  C   UNL     1       0.384  16.693  18.914  0.00  0.00    +0.000 C 
ATOM     20  N   UNL     1       1.236  15.521  18.696  0.00  0.00    +0.000 NA
ATOM     21  C   UNL     1       2.547  15.952  18.202  0.00  0.00    +0.000 C 
ENDBRANCH  18  20
ENDBRANCH  17  18
ENDBRANCH  16  17
ENDBRANCH   7  16
ENDBRANCH   1   7
BRANCH   5  22
ATOM     22  O   UNL     1      -0.315   8.126  21.219  0.00  0.00    +0.000 OA
BRANCH  22  23
ATOM     23  C   UNL     1       0.985   7.756  21.683  0.00  0.00    +0.000 C 
BRANCH  23  24
ATOM     24  C   UNL     1       1.794   7.221  20.539  0.00  0.00    +0.000 A 
ATOM     25  C   UNL     1       2.054   8.024  19.429  0.00  0.00    +0.000 A 
ATOM     26  C   UNL     1       2.824   7.536  18.375  0.00  0.00    +0.000 A 
ATOM     27  C   UNL     1       3.375   6.241  18.406  0.00  0.00    +0.000 A 
ATOM     28  C   UNL     1       3.112   5.452  19.538  0.00  0.00    +0.000 A 
ATOM     29  C   UNL     1       2.327   5.929  20.586  0.00  0.00    +0.000 A 
BRANCH  27  30
ATOM     30  C   UNL     1       4.209   5.753  17.286  0.00  0.00    +0.000 A 
ATOM     31  C   UNL     1       4.793   6.650  16.373  0.00  0.00    +0.000 A 
ATOM     32  C   UNL     1       5.562   6.202  15.298  0.00  0.00    +0.000 A 
ATOM     33  C   UNL     1       5.786   4.835  15.114  0.00  0.00    +0.000 A 
ATOM     34  C   UNL     1       5.245   3.923  16.027  0.00  0.00    +0.000 A 
ATOM     35  C   UNL     1       4.454   4.380  17.088  0.00  0.00    +0.000 A 
BRANCH  33  36
ATOM     36  C   UNL     1       6.640   4.425  13.971  0.00  0.00    +0.000 C 
ATOM     37  O   UNL     1       7.525   5.135  13.524  0.00  0.00    +0.000 OA
BRANCH  36  38
ATOM     38  O   UNL     1       6.327   3.223  13.446  0.00  0.00    +0.000 OA
ATOM     39  H   UNL     1       5.707   3.245  12.696  0.00  0.00    +0.000 HD
ENDBRANCH  36  38
ENDBRANCH  33  36
ENDBRANCH  27  30
ENDBRANCH  23  24
ENDBRANCH  22  23
ENDBRANCH   5  22
TORSDOF 13
ENDMDL
