MODEL 1
REMARK VINA RESULT:      -7.1      0.000      0.000
REMARK  Name = 
REMARK  9 active torsions:
REMARK  status: ('A' for Active; 'I' for Inactive)
REMARK    1  A    between atoms: C_1  and  C_2
REMARK    2  A    between atoms: C_6  and  N_7
REMARK    3  A    between atoms: C_8  and  C_10
REMARK    4  A    between atoms: C_15  and  O_17
REMARK    5  A    between atoms: O_17  and  C_18
REMARK    6  A    between atoms: C_18  and  C_19
REMARK    7  A    between atoms: C_19  and  C_20
REMARK    8  A    between atoms: C_19  and  C_21
REMARK    9  A    between atoms: C_22  and  C_23
REMARK                            x       y       z     vdW  Elec       q    Type
REMARK                         _______ _______ _______ _____ _____    ______ ____
ROOT
ATOM      1  N   UNL     1       2.122   6.279  19.492  0.00  0.00    +0.000 N 
ATOM      2  C   UNL     1       1.776   5.165  18.726  0.00  0.00    +0.000 C 
ATOM      3  O   UNL     1       1.246   5.164  17.620  0.00  0.00    +0.000 OA
ATOM      4  H   UNL     1       2.419   6.064  20.430  0.00  0.00    +0.000 HD
ENDROOT
BRANCH   1  10
ATOM      5  C   UNL     1       0.390  10.819  20.746  0.00  0.00    +0.000 C 
ATOM      6  C   UNL     1       1.068   9.864  19.797  0.00  0.00    +0.000 A 
ATOM      7  C   UNL     1       1.475  10.350  18.548  0.00  0.00    +0.000 A 
ATOM      8  C   UNL     1       2.126   9.519  17.648  0.00  0.00    +0.000 A 
ATOM      9  C   UNL     1       2.367   8.186  17.976  0.00  0.00    +0.000 A 
ATOM     10  C   UNL     1       1.944   7.651  19.198  0.00  0.00    +0.000 A 
ATOM     11  C   UNL     1       1.294   8.501  20.135  0.00  0.00    +0.000 A 
ATOM     12  C   UNL     1       0.806   8.033  21.489  0.00  0.00    +0.000 C 
ENDBRANCH   1  10
BRANCH   2  13
ATOM     13  C   UNL     1       2.104   3.858  19.482  0.00  0.00    +0.000 C 
ATOM     14  C   UNL     1       1.586   3.905  20.926  0.00  0.00    +0.000 C 
ATOM     15  C   UNL     1       2.255   2.691  21.563  0.00  0.00    +0.000 C 
ATOM     16  C   UNL     1       3.618   2.628  20.882  0.00  0.00    +0.000 C 
ATOM     17  N   UNL     1       3.499   3.469  19.704  0.00  0.00    +0.000 N 
ATOM     18  C   UNL     1       4.625   3.829  19.002  0.00  0.00    +0.000 C 
ATOM     19  O   UNL     1       5.743   3.416  19.283  0.00  0.00    +0.000 OA
BRANCH  18  20
ATOM     20  O   UNL     1       4.378   4.749  18.041  0.00  0.00    +0.000 OA
BRANCH  20  21
ATOM     21  C   UNL     1       4.625   4.326  16.689  0.00  0.00    +0.000 C 
BRANCH  21  22
ATOM     22  C   UNL     1       5.418   5.355  15.876  0.00  0.00    +0.000 C 
ATOM     23  C   UNL     1       5.514   6.697  16.600  0.00  0.00    +0.000 C 
ATOM     24  C   UNL     1       6.818   4.848  15.538  0.00  0.00    +0.000 C 
ENDBRANCH  21  22
ENDBRANCH  20  21
ENDBRANCH  18  20
ENDBRANCH   2  13
TORSDOF 5
ENDMDL
MODEL 2
REMARK VINA RESULT:      -6.9      1.370      3.942
REMARK  Name = 
REMARK  9 active torsions:
REMARK  status: ('A' for Active; 'I' for Inactive)
REMARK    1  A    between atoms: C_1  and  C_2
REMARK    2  A    between atoms: C_6  and  N_7
REMARK    3  A    between atoms: C_8  and  C_10
REMARK    4  A    between atoms: C_15  and  O_17
REMARK    5  A    between atoms: O_17  and  C_18
REMARK    6  A    between atoms: C_18  and  C_19
REMARK    7  A    between atoms: C_19  and  C_20
REMARK    8  A    between atoms: C_19  and  C_21
REMARK    9  A    between atoms: C_22  and  C_23
REMARK                            x       y       z     vdW  Elec       q    Type
REMARK                         _______ _______ _______ _____ _____    ______ ____
ROOT
ATOM      1  N   UNL     1       3.042   7.448  19.158  0.00  0.00    +0.000 N 
ATOM      2  C   UNL     1       3.106   6.390  18.250  0.00  0.00    +0.000 C 
ATOM      3  O   UNL     1       2.164   5.768  17.771  0.00  0.00    +0.000 OA
ATOM      4  H   UNL     1       3.932   7.729  19.535  0.00  0.00    +0.000 HD
ENDROOT
BRANCH   1  10
ATOM      5  C   UNL     1      -0.547  10.957  19.139  0.00  0.00    +0.000 C 
ATOM      6  C   UNL     1       0.168   9.782  19.756  0.00  0.00    +0.000 A 
ATOM      7  C   UNL     1      -0.278   9.312  20.998  0.00  0.00    +0.000 A 
ATOM      8  C   UNL     1       0.329   8.218  21.597  0.00  0.00    +0.000 A 
ATOM      9  C   UNL     1       1.402   7.586  20.971  0.00  0.00    +0.000 A 
ATOM     10  C   UNL     1       1.903   8.046  19.748  0.00  0.00    +0.000 A 
ATOM     11  C   UNL     1       1.273   9.154  19.117  0.00  0.00    +0.000 A 
ATOM     12  C   UNL     1       1.724   9.726  17.790  0.00  0.00    +0.000 C 
ENDBRANCH   1  10
BRANCH   2  13
ATOM     13  C   UNL     1       4.575   6.033  17.930  0.00  0.00    +0.000 C 
ATOM     14  C   UNL     1       4.825   6.009  16.416  0.00  0.00    +0.000 C 
ATOM     15  C   UNL     1       6.203   5.363  16.313  0.00  0.00    +0.000 C 
ATOM     16  C   UNL     1       6.213   4.346  17.448  0.00  0.00    +0.000 C 
ATOM     17  N   UNL     1       5.115   4.729  18.318  0.00  0.00    +0.000 N 
ATOM     18  C   UNL     1       4.691   3.871  19.306  0.00  0.00    +0.000 C 
ATOM     19  O   UNL     1       5.247   2.805  19.543  0.00  0.00    +0.000 OA
BRANCH  18  20
ATOM     20  O   UNL     1       3.557   4.284  19.916  0.00  0.00    +0.000 OA
BRANCH  20  21
ATOM     21  C   UNL     1       2.951   3.343  20.819  0.00  0.00    +0.000 C 
BRANCH  21  22
ATOM     22  C   UNL     1       1.528   2.950  20.406  0.00  0.00    +0.000 C 
ATOM     23  C   UNL     1       0.616   4.169  20.283  0.00  0.00    +0.000 C 
ATOM     24  C   UNL     1       1.519   2.161  19.099  0.00  0.00    +0.000 C 
ENDBRANCH  21  22
ENDBRANCH  20  21
ENDBRANCH  18  20
ENDBRANCH   2  13
TORSDOF 5
ENDMDL
MODEL 3
REMARK VINA RESULT:      -6.7      1.688      2.092
REMARK  Name = 
REMARK  9 active torsions:
REMARK  status: ('A' for Active; 'I' for Inactive)
REMARK    1  A    between atoms: C_1  and  C_2
REMARK    2  A    between atoms: C_6  and  N_7
REMARK    3  A    between atoms: C_8  and  C_10
REMARK    4  A    between atoms: C_15  and  O_17
REMARK    5  A    between atoms: O_17  and  C_18
REMARK    6  A    between atoms: C_18  and  C_19
REMARK    7  A    between atoms: C_19  and  C_20
REMARK    8  A    between atoms: C_19  and  C_21
REMARK    9  A    between atoms: C_22  and  C_23
REMARK                            x       y       z     vdW  Elec       q    Type
REMARK                         _______ _______ _______ _____ _____    ______ ____
ROOT
ATOM      1  N   UNL     1       2.203   6.728  18.409  0.00  0.00    +0.000 N 
ATOM      2  C   UNL     1       3.239   6.157  17.670  0.00  0.00    +0.000 C 
ATOM      3  O   UNL     1       4.161   6.744  17.113  0.00  0.00    +0.000 OA
ATOM      4  H   UNL     1       1.470   6.086  18.666  0.00  0.00    +0.000 HD
ENDROOT
BRANCH   1  10
ATOM      5  C   UNL     1       0.603  10.328  21.519  0.00  0.00    +0.000 C 
ATOM      6  C   UNL     1       1.141   9.850  20.195  0.00  0.00    +0.000 A 
ATOM      7  C   UNL     1       1.337  10.795  19.180  0.00  0.00    +0.000 A 
ATOM      8  C   UNL     1       1.853  10.411  17.951  0.00  0.00    +0.000 A 
ATOM      9  C   UNL     1       2.169   9.075  17.712  0.00  0.00    +0.000 A 
ATOM     10  C   UNL     1       1.954   8.093  18.686  0.00  0.00    +0.000 A 
ATOM     11  C   UNL     1       1.444   8.481  19.956  0.00  0.00    +0.000 A 
ATOM     12  C   UNL     1       1.185   7.506  21.085  0.00  0.00    +0.000 C 
ENDBRANCH   1  10
BRANCH   2  13
ATOM     13  C   UNL     1       3.068   4.624  17.582  0.00  0.00    +0.000 C 
ATOM     14  C   UNL     1       1.611   4.212  17.833  0.00  0.00    +0.000 C 
ATOM     15  C   UNL     1       1.713   2.699  17.996  0.00  0.00    +0.000 C 
ATOM     16  C   UNL     1       3.051   2.498  18.697  0.00  0.00    +0.000 C 
ATOM     17  N   UNL     1       3.766   3.751  18.527  0.00  0.00    +0.000 N 
ATOM     18  C   UNL     1       4.908   3.993  19.254  0.00  0.00    +0.000 C 
ATOM     19  O   UNL     1       5.405   3.163  20.006  0.00  0.00    +0.000 OA
BRANCH  18  20
ATOM     20  O   UNL     1       5.361   5.261  19.122  0.00  0.00    +0.000 OA
BRANCH  20  21
ATOM     21  C   UNL     1       6.748   5.468  19.442  0.00  0.00    +0.000 C 
BRANCH  21  22
ATOM     22  C   UNL     1       7.620   5.700  18.203  0.00  0.00    +0.000 C 
ATOM     23  C   UNL     1       7.300   4.704  17.091  0.00  0.00    +0.000 C 
ATOM     24  C   UNL     1       7.482   7.127  17.677  0.00  0.00    +0.000 C 
ENDBRANCH  21  22
ENDBRANCH  20  21
ENDBRANCH  18  20
ENDBRANCH   2  13
TORSDOF 5
ENDMDL
MODEL 4
REMARK VINA RESULT:      -6.6      1.550      4.324
REMARK  Name = 
REMARK  9 active torsions:
REMARK  status: ('A' for Active; 'I' for Inactive)
REMARK    1  A    between atoms: C_1  and  C_2
REMARK    2  A    between atoms: C_6  and  N_7
REMARK    3  A    between atoms: C_8  and  C_10
REMARK    4  A    between atoms: C_15  and  O_17
REMARK    5  A    between atoms: O_17  and  C_18
REMARK    6  A    between atoms: C_18  and  C_19
REMARK    7  A    between atoms: C_19  and  C_20
REMARK    8  A    between atoms: C_19  and  C_21
REMARK    9  A    between atoms: C_22  and  C_23
REMARK                            x       y       z     vdW  Elec       q    Type
REMARK                         _______ _______ _______ _____ _____    ______ ____
ROOT
ATOM      1  N   UNL     1       3.326   6.332  18.409  0.00  0.00    +0.000 N 
ATOM      2  C   UNL     1       4.585   5.824  18.729  0.00  0.00    +0.000 C 
ATOM      3  O   UNL     1       5.172   5.922  19.802  0.00  0.00    +0.000 OA
ATOM      4  H   UNL     1       3.084   6.265  17.433  0.00  0.00    +0.000 HD
ENDROOT
BRANCH   1  10
ATOM      5  C   UNL     1       0.687  10.511  19.283  0.00  0.00    +0.000 C 
ATOM      6  C   UNL     1       1.171   9.134  19.660  0.00  0.00    +0.000 A 
ATOM      7  C   UNL     1       0.770   8.607  20.894  0.00  0.00    +0.000 A 
ATOM      8  C   UNL     1       1.167   7.334  21.278  0.00  0.00    +0.000 A 
ATOM      9  C   UNL     1       1.982   6.575  20.442  0.00  0.00    +0.000 A 
ATOM     10  C   UNL     1       2.436   7.078  19.217  0.00  0.00    +0.000 A 
ATOM     11  C   UNL     1       2.017   8.374  18.806  0.00  0.00    +0.000 A 
ATOM     12  C   UNL     1       2.435   9.011  17.499  0.00  0.00    +0.000 C 
ENDBRANCH   1  10
BRANCH   2  13
ATOM     13  C   UNL     1       5.221   5.128  17.505  0.00  0.00    +0.000 C 
ATOM     14  C   UNL     1       5.142   6.017  16.255  0.00  0.00    +0.000 C 
ATOM     15  C   UNL     1       5.535   5.058  15.136  0.00  0.00    +0.000 C 
ATOM     16  C   UNL     1       4.946   3.723  15.577  0.00  0.00    +0.000 C 
ATOM     17  N   UNL     1       4.650   3.881  16.990  0.00  0.00    +0.000 N 
ATOM     18  C   UNL     1       3.879   2.945  17.638  0.00  0.00    +0.000 C 
ATOM     19  O   UNL     1       3.474   1.926  17.093  0.00  0.00    +0.000 OA
BRANCH  18  20
ATOM     20  O   UNL     1       3.543   3.314  18.896  0.00  0.00    +0.000 OA
BRANCH  20  21
ATOM     21  C   UNL     1       3.189   2.245  19.790  0.00  0.00    +0.000 C 
BRANCH  21  22
ATOM     22  C   UNL     1       1.769   2.380  20.350  0.00  0.00    +0.000 C 
ATOM     23  C   UNL     1       1.767   2.989  21.751  0.00  0.00    +0.000 C 
ATOM     24  C   UNL     1       0.875   3.203  19.425  0.00  0.00    +0.000 C 
ENDBRANCH  21  22
ENDBRANCH  20  21
ENDBRANCH  18  20
ENDBRANCH   2  13
TORSDOF 5
ENDMDL
MODEL 5
REMARK VINA RESULT:      -6.4      1.577      2.128
REMARK  Name = 
REMARK  9 active torsions:
REMARK  status: ('A' for Active; 'I' for Inactive)
REMARK    1  A    between atoms: C_1  and  C_2
REMARK    2  A    between atoms: C_6  and  N_7
REMARK    3  A    between atoms: C_8  and  C_10
REMARK    4  A    between atoms: C_15  and  O_17
REMARK    5  A    between atoms: O_17  and  C_18
REMARK    6  A    between atoms: C_18  and  C_19
REMARK    7  A    between atoms: C_19  and  C_20
REMARK    8  A    between atoms: C_19  and  C_21
REMARK    9  A    between atoms: C_22  and  C_23
REMARK                            x       y       z     vdW  Elec       q    Type
REMARK                         _______ _______ _______ _____ _____    ______ ____
ROOT
ATOM      1  N   UNL     1       2.144   6.363  18.521  0.00  0.00    +0.000 N 
ATOM      2  C   UNL     1       3.130   5.517  19.030  0.00  0.00    +0.000 C 
ATOM      3  O   UNL     1       4.053   5.823  19.777  0.00  0.00    +0.000 OA
ATOM      4  H   UNL     1       1.559   5.945  17.815  0.00  0.00    +0.000 HD
ENDROOT
BRANCH   1  10
ATOM      5  C   UNL     1       0.677  10.204  21.400  0.00  0.00    +0.000 C 
ATOM      6  C   UNL     1       1.225   9.628  20.119  0.00  0.00    +0.000 A 
ATOM      7  C   UNL     1       1.509  10.508  19.067  0.00  0.00    +0.000 A 
ATOM      8  C   UNL     1       2.037  10.033  17.875  0.00  0.00    +0.000 A 
ATOM      9  C   UNL     1       2.276   8.670  17.712  0.00  0.00    +0.000 A 
ATOM     10  C   UNL     1       1.972   7.752  18.724  0.00  0.00    +0.000 A 
ATOM     11  C   UNL     1       1.448   8.233  19.956  0.00  0.00    +0.000 A 
ATOM     12  C   UNL     1       1.096   7.334  21.121  0.00  0.00    +0.000 C 
ENDBRANCH   1  10
BRANCH   2  13
ATOM     13  C   UNL     1       2.954   4.082  18.485  0.00  0.00    +0.000 C 
ATOM     14  C   UNL     1       3.018   3.045  19.615  0.00  0.00    +0.000 C 
ATOM     15  C   UNL     1       3.125   1.727  18.856  0.00  0.00    +0.000 C 
ATOM     16  C   UNL     1       3.965   2.078  17.633  0.00  0.00    +0.000 C 
ATOM     17  N   UNL     1       3.934   3.528  17.548  0.00  0.00    +0.000 N 
ATOM     18  C   UNL     1       4.797   4.184  16.703  0.00  0.00    +0.000 C 
ATOM     19  O   UNL     1       5.564   3.595  15.949  0.00  0.00    +0.000 OA
BRANCH  18  20
ATOM     20  O   UNL     1       4.774   5.527  16.860  0.00  0.00    +0.000 OA
BRANCH  20  21
ATOM     21  C   UNL     1       5.994   6.218  16.539  0.00  0.00    +0.000 C 
BRANCH  21  22
ATOM     22  C   UNL     1       6.751   6.702  17.780  0.00  0.00    +0.000 C 
ATOM     23  C   UNL     1       7.596   5.589  18.398  0.00  0.00    +0.000 C 
ATOM     24  C   UNL     1       7.633   7.909  17.467  0.00  0.00    +0.000 C 
ENDBRANCH  21  22
ENDBRANCH  20  21
ENDBRANCH  18  20
ENDBRANCH   2  13
TORSDOF 5
ENDMDL
MODEL 6
REMARK VINA RESULT:      -6.4      1.417      3.941
REMARK  Name = 
REMARK  9 active torsions:
REMARK  status: ('A' for Active; 'I' for Inactive)
REMARK    1  A    between atoms: C_1  and  C_2
REMARK    2  A    between atoms: C_6  and  N_7
REMARK    3  A    between atoms: C_8  and  C_10
REMARK    4  A    between atoms: C_15  and  O_17
REMARK    5  A    between atoms: O_17  and  C_18
REMARK    6  A    between atoms: C_18  and  C_19
REMARK    7  A    between atoms: C_19  and  C_20
REMARK    8  A    between atoms: C_19  and  C_21
REMARK    9  A    between atoms: C_22  and  C_23
REMARK                            x       y       z     vdW  Elec       q    Type
REMARK                         _______ _______ _______ _____ _____    ______ ____
ROOT
ATOM      1  N   UNL     1       2.963   8.040  18.465  0.00  0.00    +0.000 N 
ATOM      2  C   UNL     1       3.068   6.783  17.869  0.00  0.00    +0.000 C 
ATOM      3  O   UNL     1       2.150   6.030  17.562  0.00  0.00    +0.000 OA
ATOM      4  H   UNL     1       3.840   8.436  18.763  0.00  0.00    +0.000 HD
ENDROOT
BRANCH   1  10
ATOM      5  C   UNL     1      -0.524   9.086  21.920  0.00  0.00    +0.000 C 
ATOM      6  C   UNL     1       0.077   9.227  20.545  0.00  0.00    +0.000 A 
ATOM      7  C   UNL     1      -0.586  10.033  19.612  0.00  0.00    +0.000 A 
ATOM      8  C   UNL     1      -0.062  10.215  18.340  0.00  0.00    +0.000 A 
ATOM      9  C   UNL     1       1.125   9.583  17.977  0.00  0.00    +0.000 A 
ATOM     10  C   UNL     1       1.800   8.739  18.867  0.00  0.00    +0.000 A 
ATOM     11  C   UNL     1       1.281   8.563  20.179  0.00  0.00    +0.000 A 
ATOM     12  C   UNL     1       1.934   7.685  21.225  0.00  0.00    +0.000 C 
ENDBRANCH   1  10
BRANCH   2  13
ATOM     13  C   UNL     1       4.550   6.396  17.667  0.00  0.00    +0.000 C 
ATOM     14  C   UNL     1       4.895   6.266  16.177  0.00  0.00    +0.000 C 
ATOM     15  C   UNL     1       6.269   5.606  16.206  0.00  0.00    +0.000 C 
ATOM     16  C   UNL     1       6.198   4.670  17.406  0.00  0.00    +0.000 C 
ATOM     17  N   UNL     1       5.052   5.118  18.177  0.00  0.00    +0.000 N 
ATOM     18  C   UNL     1       4.558   4.333  19.192  0.00  0.00    +0.000 C 
ATOM     19  O   UNL     1       5.086   3.282  19.535  0.00  0.00    +0.000 OA
BRANCH  18  20
ATOM     20  O   UNL     1       3.392   4.794  19.699  0.00  0.00    +0.000 OA
BRANCH  20  21
ATOM     21  C   UNL     1       2.990   4.232  20.961  0.00  0.00    +0.000 C 
BRANCH  21  22
ATOM     22  C   UNL     1       1.535   3.749  20.964  0.00  0.00    +0.000 C 
ATOM     23  C   UNL     1       1.013   3.515  19.547  0.00  0.00    +0.000 C 
ATOM     24  C   UNL     1       1.365   2.479  21.795  0.00  0.00    +0.000 C 
ENDBRANCH  21  22
ENDBRANCH  20  21
ENDBRANCH  18  20
ENDBRANCH   2  13
TORSDOF 5
ENDMDL
MODEL 7
REMARK VINA RESULT:      -6.3      1.867      2.573
REMARK  Name = 
REMARK  9 active torsions:
REMARK  status: ('A' for Active; 'I' for Inactive)
REMARK    1  A    between atoms: C_1  and  C_2
REMARK    2  A    between atoms: C_6  and  N_7
REMARK    3  A    between atoms: C_8  and  C_10
REMARK    4  A    between atoms: C_15  and  O_17
REMARK    5  A    between atoms: O_17  and  C_18
REMARK    6  A    between atoms: C_18  and  C_19
REMARK    7  A    between atoms: C_19  and  C_20
REMARK    8  A    between atoms: C_19  and  C_21
REMARK    9  A    between atoms: C_22  and  C_23
REMARK                            x       y       z     vdW  Elec       q    Type
REMARK                         _______ _______ _______ _____ _____    ______ ____
ROOT
ATOM      1  N   UNL     1       2.040   6.650  19.187  0.00  0.00    +0.000 N 
ATOM      2  C   UNL     1       3.085   6.455  18.285  0.00  0.00    +0.000 C 
ATOM      3  O   UNL     1       3.909   7.287  17.917  0.00  0.00    +0.000 OA
ATOM      4  H   UNL     1       1.392   5.880  19.248  0.00  0.00    +0.000 HD
ENDROOT
BRANCH   1  10
ATOM      5  C   UNL     1       0.630  11.467  19.156  0.00  0.00    +0.000 C 
ATOM      6  C   UNL     1       1.009  10.191  19.864  0.00  0.00    +0.000 A 
ATOM      7  C   UNL     1       1.059  10.201  21.264  0.00  0.00    +0.000 A 
ATOM      8  C   UNL     1       1.379   9.047  21.964  0.00  0.00    +0.000 A 
ATOM      9  C   UNL     1       1.669   7.870  21.277  0.00  0.00    +0.000 A 
ATOM     10  C   UNL     1       1.668   7.827  19.879  0.00  0.00    +0.000 A 
ATOM     11  C   UNL     1       1.321   9.000  19.152  0.00  0.00    +0.000 A 
ATOM     12  C   UNL     1       1.275   9.063  17.641  0.00  0.00    +0.000 C 
ENDBRANCH   1  10
BRANCH   2  13
ATOM     13  C   UNL     1       3.067   5.014  17.729  0.00  0.00    +0.000 C 
ATOM     14  C   UNL     1       1.638   4.456  17.674  0.00  0.00    +0.000 C 
ATOM     15  C   UNL     1       1.866   2.974  17.395  0.00  0.00    +0.000 C 
ATOM     16  C   UNL     1       3.145   2.653  18.158  0.00  0.00    +0.000 C 
ATOM     17  N   UNL     1       3.753   3.940  18.451  0.00  0.00    +0.000 N 
ATOM     18  C   UNL     1       4.793   4.019  19.347  0.00  0.00    +0.000 C 
ATOM     19  O   UNL     1       5.292   3.033  19.874  0.00  0.00    +0.000 OA
BRANCH  18  20
ATOM     20  O   UNL     1       5.136   5.293  19.648  0.00  0.00    +0.000 OA
BRANCH  20  21
ATOM     21  C   UNL     1       6.515   5.639  19.433  0.00  0.00    +0.000 C 
BRANCH  21  22
ATOM     22  C   UNL     1       6.867   5.796  17.950  0.00  0.00    +0.000 C 
ATOM     23  C   UNL     1       7.639   7.087  17.684  0.00  0.00    +0.000 C 
ATOM     24  C   UNL     1       7.661   4.601  17.429  0.00  0.00    +0.000 C 
ENDBRANCH  21  22
ENDBRANCH  20  21
ENDBRANCH  18  20
ENDBRANCH   2  13
TORSDOF 5
ENDMDL
MODEL 8
REMARK VINA RESULT:      -6.3      3.045      7.009
REMARK  Name = 
REMARK  9 active torsions:
REMARK  status: ('A' for Active; 'I' for Inactive)
REMARK    1  A    between atoms: C_1  and  C_2
REMARK    2  A    between atoms: C_6  and  N_7
REMARK    3  A    between atoms: C_8  and  C_10
REMARK    4  A    between atoms: C_15  and  O_17
REMARK    5  A    between atoms: O_17  and  C_18
REMARK    6  A    between atoms: C_18  and  C_19
REMARK    7  A    between atoms: C_19  and  C_20
REMARK    8  A    between atoms: C_19  and  C_21
REMARK    9  A    between atoms: C_22  and  C_23
REMARK                            x       y       z     vdW  Elec       q    Type
REMARK                         _______ _______ _______ _____ _____    ______ ____
ROOT
ATOM      1  N   UNL     1       6.945   5.408  15.540  0.00  0.00    +0.000 N 
ATOM      2  C   UNL     1       6.016   6.218  16.194  0.00  0.00    +0.000 C 
ATOM      3  O   UNL     1       5.034   6.763  15.701  0.00  0.00    +0.000 OA
ATOM      4  H   UNL     1       7.755   5.173  16.092  0.00  0.00    +0.000 HD
ENDROOT
BRANCH   1  10
ATOM      5  C   UNL     1       5.459   2.435  11.780  0.00  0.00    +0.000 C 
ATOM      6  C   UNL     1       6.292   3.557  12.346  0.00  0.00    +0.000 A 
ATOM      7  C   UNL     1       7.199   4.202  11.495  0.00  0.00    +0.000 A 
ATOM      8  C   UNL     1       7.972   5.256  11.960  0.00  0.00    +0.000 A 
ATOM      9  C   UNL     1       7.861   5.672  13.285  0.00  0.00    +0.000 A 
ATOM     10  C   UNL     1       6.995   5.031  14.178  0.00  0.00    +0.000 A 
ATOM     11  C   UNL     1       6.184   3.963  13.705  0.00  0.00    +0.000 A 
ATOM     12  C   UNL     1       5.204   3.208  14.578  0.00  0.00    +0.000 C 
ENDBRANCH   1  10
BRANCH   2  13
ATOM     13  C   UNL     1       6.402   6.405  17.678  0.00  0.00    +0.000 C 
ATOM     14  C   UNL     1       7.917   6.594  17.840  0.00  0.00    +0.000 C 
ATOM     15  C   UNL     1       8.113   6.462  19.346  0.00  0.00    +0.000 C 
ATOM     16  C   UNL     1       7.083   5.417  19.757  0.00  0.00    +0.000 C 
ATOM     17  N   UNL     1       6.155   5.331  18.643  0.00  0.00    +0.000 N 
ATOM     18  C   UNL     1       5.247   4.301  18.584  0.00  0.00    +0.000 C 
ATOM     19  O   UNL     1       5.128   3.469  19.475  0.00  0.00    +0.000 OA
BRANCH  18  20
ATOM     20  O   UNL     1       4.574   4.254  17.411  0.00  0.00    +0.000 OA
BRANCH  20  21
ATOM     21  C   UNL     1       3.349   3.501  17.419  0.00  0.00    +0.000 C 
BRANCH  21  22
ATOM     22  C   UNL     1       2.125   4.354  17.768  0.00  0.00    +0.000 C 
ATOM     23  C   UNL     1       1.401   3.826  19.005  0.00  0.00    +0.000 C 
ATOM     24  C   UNL     1       2.500   5.820  17.973  0.00  0.00    +0.000 C 
ENDBRANCH  21  22
ENDBRANCH  20  21
ENDBRANCH  18  20
ENDBRANCH   2  13
TORSDOF 5
ENDMDL
MODEL 9
REMARK VINA RESULT:      -6.2      1.843      6.304
REMARK  Name = 
REMARK  9 active torsions:
REMARK  status: ('A' for Active; 'I' for Inactive)
REMARK    1  A    between atoms: C_1  and  C_2
REMARK    2  A    between atoms: C_6  and  N_7
REMARK    3  A    between atoms: C_8  and  C_10
REMARK    4  A    between atoms: C_15  and  O_17
REMARK    5  A    between atoms: O_17  and  C_18
REMARK    6  A    between atoms: C_18  and  C_19
REMARK    7  A    between atoms: C_19  and  C_20
REMARK    8  A    between atoms: C_19  and  C_21
REMARK    9  A    between atoms: C_22  and  C_23
REMARK                            x       y       z     vdW  Elec       q    Type
REMARK                         _______ _______ _______ _____ _____    ______ ____
ROOT
ATOM      1  N   UNL     1       4.076   6.954  17.998  0.00  0.00    +0.000 N 
ATOM      2  C   UNL     1       2.736   6.582  17.889  0.00  0.00    +0.000 C 
ATOM      3  O   UNL     1       2.297   5.481  17.574  0.00  0.00    +0.000 OA
ATOM      4  H   UNL     1       4.227   7.941  18.132  0.00  0.00    +0.000 HD
ENDROOT
BRANCH   1  10
ATOM      5  C   UNL     1       7.358   4.844  14.840  0.00  0.00    +0.000 C 
ATOM      6  C   UNL     1       6.823   5.119  16.222  0.00  0.00    +0.000 A 
ATOM      7  C   UNL     1       7.468   4.523  17.313  0.00  0.00    +0.000 A 
ATOM      8  C   UNL     1       7.030   4.763  18.607  0.00  0.00    +0.000 A 
ATOM      9  C   UNL     1       5.933   5.591  18.830  0.00  0.00    +0.000 A 
ATOM     10  C   UNL     1       5.237   6.178  17.767  0.00  0.00    +0.000 A 
ATOM     11  C   UNL     1       5.691   5.953  16.438  0.00  0.00    +0.000 A 
ATOM     12  C   UNL     1       5.023   6.546  15.216  0.00  0.00    +0.000 C 
ENDBRANCH   1  10
BRANCH   2  13
ATOM     13  C   UNL     1       1.810   7.785  18.176  0.00  0.00    +0.000 C 
ATOM     14  C   UNL     1       2.382   9.082  17.585  0.00  0.00    +0.000 C 
ATOM     15  C   UNL     1       1.504  10.156  18.218  0.00  0.00    +0.000 C 
ATOM     16  C   UNL     1       1.216   9.614  19.613  0.00  0.00    +0.000 C 
ATOM     17  N   UNL     1       1.555   8.203  19.556  0.00  0.00    +0.000 N 
ATOM     18  C   UNL     1       1.647   7.472  20.717  0.00  0.00    +0.000 C 
ATOM     19  O   UNL     1       1.387   7.940  21.819  0.00  0.00    +0.000 OA
BRANCH  18  20
ATOM     20  O   UNL     1       2.139   6.226  20.521  0.00  0.00    +0.000 OA
BRANCH  20  21
ATOM     21  C   UNL     1       1.236   5.143  20.802  0.00  0.00    +0.000 C 
BRANCH  21  22
ATOM     22  C   UNL     1       1.831   3.769  20.477  0.00  0.00    +0.000 C 
ATOM     23  C   UNL     1       2.185   2.991  21.743  0.00  0.00    +0.000 C 
ATOM     24  C   UNL     1       0.891   2.940  19.604  0.00  0.00    +0.000 C 
ENDBRANCH  21  22
ENDBRANCH  20  21
ENDBRANCH  18  20
ENDBRANCH   2  13
TORSDOF 5
ENDMDL
