MODEL 1
REMARK VINA RESULT:      -7.9      0.000      0.000
REMARK  Name = 
REMARK  5 active torsions:
REMARK  status: ('A' for Active; 'I' for Inactive)
REMARK    1  A    between atoms: C_1  and  O_2
REMARK    2  A    between atoms: O_2  and  C_3
REMARK    3  A    between atoms: C_5  and  C_6
REMARK    4  A    between atoms: C_16  and  C_17
REMARK    5  A    between atoms: C_19  and  O_20
REMARK                            x       y       z     vdW  Elec       q    Type
REMARK                         _______ _______ _______ _____ _____    ______ ____
ROOT
ATOM      1  C   UNL     1       7.124   5.825  15.897  0.00  0.00    +0.000 A 
ATOM      2  C   UNL     1       6.176   5.420  16.854  0.00  0.00    +0.000 A 
ATOM      3  C   UNL     1       5.228   4.418  16.596  0.00  0.00    +0.000 A 
ATOM      4  C   UNL     1       5.259   3.794  15.344  0.00  0.00    +0.000 A 
ATOM      5  C   UNL     1       6.199   4.184  14.380  0.00  0.00    +0.000 A 
ATOM      6  C   UNL     1       7.131   5.202  14.647  0.00  0.00    +0.000 A 
ENDROOT
BRANCH   3   7
ATOM      7  C   UNL     1       4.224   4.019  17.602  0.00  0.00    +0.000 A 
ATOM      8  C   UNL     1       2.891   3.701  17.424  0.00  0.00    +0.000 A 
ATOM      9  C   UNL     1       2.207   3.366  18.643  0.00  0.00    +0.000 A 
ATOM     10  C   UNL     1       0.863   2.982  18.872  0.00  0.00    +0.000 A 
ATOM     11  C   UNL     1       0.422   2.689  20.166  0.00  0.00    +0.000 A 
ATOM     12  C   UNL     1       1.296   2.772  21.241  0.00  0.00    +0.000 A 
ATOM     13  C   UNL     1       2.626   3.152  21.045  0.00  0.00    +0.000 A 
ATOM     14  C   UNL     1       3.064   3.447  19.739  0.00  0.00    +0.000 A 
ATOM     15  S   UNL     1       4.638   3.940  19.265  0.00  0.00    +0.000 S 
ENDBRANCH   3   7
BRANCH   1  17
ATOM     16  C   UNL     1       7.536   7.545  17.516  0.00  0.00    +0.000 C 
ATOM     17  O   UNL     1       7.939   6.821  16.362  0.00  0.00    +0.000 OA
ENDBRANCH   1  17
BRANCH   5  18
ATOM     18  C   UNL     1       6.170   3.493  13.076  0.00  0.00    +0.000 C 
ATOM     19  O   UNL     1       6.750   3.961  12.099  0.00  0.00    +0.000 OA
ENDBRANCH   5  18
BRANCH   6  20
ATOM     20  O   UNL     1       8.037   5.581  13.690  0.00  0.00    +0.000 OA
ATOM     21  H   UNL     1       7.560   5.767  12.851  0.00  0.00    +0.000 HD
ENDBRANCH   6  20
TORSDOF 4
ENDMDL
MODEL 2
REMARK VINA RESULT:      -7.8      0.812      1.366
REMARK  Name = 
REMARK  5 active torsions:
REMARK  status: ('A' for Active; 'I' for Inactive)
REMARK    1  A    between atoms: C_1  and  O_2
REMARK    2  A    between atoms: O_2  and  C_3
REMARK    3  A    between atoms: C_5  and  C_6
REMARK    4  A    between atoms: C_16  and  C_17
REMARK    5  A    between atoms: C_19  and  O_20
REMARK                            x       y       z     vdW  Elec       q    Type
REMARK                         _______ _______ _______ _____ _____    ______ ____
ROOT
ATOM      1  C   UNL     1       7.114   5.870  16.036  0.00  0.00    +0.000 A 
ATOM      2  C   UNL     1       6.204   5.477  17.034  0.00  0.00    +0.000 A 
ATOM      3  C   UNL     1       5.277   4.442  16.840  0.00  0.00    +0.000 A 
ATOM      4  C   UNL     1       5.290   3.773  15.611  0.00  0.00    +0.000 A 
ATOM      5  C   UNL     1       6.192   4.151  14.607  0.00  0.00    +0.000 A 
ATOM      6  C   UNL     1       7.104   5.202  14.809  0.00  0.00    +0.000 A 
ENDROOT
BRANCH   3   7
ATOM      7  C   UNL     1       4.313   4.055  17.888  0.00  0.00    +0.000 A 
ATOM      8  C   UNL     1       4.548   3.450  19.109  0.00  0.00    +0.000 A 
ATOM      9  C   UNL     1       3.357   3.210  19.876  0.00  0.00    +0.000 A 
ATOM     10  C   UNL     1       3.185   2.629  21.157  0.00  0.00    +0.000 A 
ATOM     11  C   UNL     1       1.908   2.510  21.713  0.00  0.00    +0.000 A 
ATOM     12  C   UNL     1       0.794   2.958  21.016  0.00  0.00    +0.000 A 
ATOM     13  C   UNL     1       0.934   3.530  19.750  0.00  0.00    +0.000 A 
ATOM     14  C   UNL     1       2.223   3.647  19.194  0.00  0.00    +0.000 A 
ATOM     15  S   UNL     1       2.631   4.303  17.662  0.00  0.00    +0.000 S 
ENDBRANCH   3   7
BRANCH   1  17
ATOM     16  C   UNL     1       7.506   7.683  17.556  0.00  0.00    +0.000 C 
ATOM     17  O   UNL     1       7.915   6.904  16.441  0.00  0.00    +0.000 OA
ENDBRANCH   1  17
BRANCH   5  18
ATOM     18  C   UNL     1       6.145   3.411  13.330  0.00  0.00    +0.000 C 
ATOM     19  O   UNL     1       6.452   3.956  12.273  0.00  0.00    +0.000 OA
ENDBRANCH   5  18
BRANCH   6  20
ATOM     20  O   UNL     1       7.972   5.569  13.814  0.00  0.00    +0.000 OA
ATOM     21  H   UNL     1       8.867   5.703  14.201  0.00  0.00    +0.000 HD
ENDBRANCH   6  20
TORSDOF 4
ENDMDL
MODEL 3
REMARK VINA RESULT:      -7.3      5.112      6.459
REMARK  Name = 
REMARK  5 active torsions:
REMARK  status: ('A' for Active; 'I' for Inactive)
REMARK    1  A    between atoms: C_1  and  O_2
REMARK    2  A    between atoms: O_2  and  C_3
REMARK    3  A    between atoms: C_5  and  C_6
REMARK    4  A    between atoms: C_16  and  C_17
REMARK    5  A    between atoms: C_19  and  O_20
REMARK                            x       y       z     vdW  Elec       q    Type
REMARK                         _______ _______ _______ _____ _____    ______ ____
ROOT
ATOM      1  C   UNL     1       3.287   3.647  20.227  0.00  0.00    +0.000 A 
ATOM      2  C   UNL     1       2.571   4.857  20.267  0.00  0.00    +0.000 A 
ATOM      3  C   UNL     1       2.990   6.002  19.572  0.00  0.00    +0.000 A 
ATOM      4  C   UNL     1       4.153   5.909  18.799  0.00  0.00    +0.000 A 
ATOM      5  C   UNL     1       4.876   4.709  18.747  0.00  0.00    +0.000 A 
ATOM      6  C   UNL     1       4.453   3.575  19.462  0.00  0.00    +0.000 A 
ENDROOT
BRANCH   3   7
ATOM      7  C   UNL     1       2.242   7.271  19.641  0.00  0.00    +0.000 A 
ATOM      8  C   UNL     1       1.507   7.794  20.689  0.00  0.00    +0.000 A 
ATOM      9  C   UNL     1       0.898   9.062  20.394  0.00  0.00    +0.000 A 
ATOM     10  C   UNL     1       0.091   9.907  21.195  0.00  0.00    +0.000 A 
ATOM     11  C   UNL     1      -0.385  11.119  20.686  0.00  0.00    +0.000 A 
ATOM     12  C   UNL     1      -0.073  11.508  19.390  0.00  0.00    +0.000 A 
ATOM     13  C   UNL     1       0.716  10.692  18.577  0.00  0.00    +0.000 A 
ATOM     14  C   UNL     1       1.193   9.472  19.095  0.00  0.00    +0.000 A 
ATOM     15  S   UNL     1       2.163   8.314  18.281  0.00  0.00    +0.000 S 
ENDBRANCH   3   7
BRANCH   1  17
ATOM     16  C   UNL     1       1.356   2.854  21.408  0.00  0.00    +0.000 C 
ATOM     17  O   UNL     1       2.699   2.670  20.986  0.00  0.00    +0.000 OA
ENDBRANCH   1  17
BRANCH   5  18
ATOM     18  C   UNL     1       6.100   4.682  17.920  0.00  0.00    +0.000 C 
ATOM     19  O   UNL     1       7.182   4.363  18.405  0.00  0.00    +0.000 OA
ENDBRANCH   5  18
BRANCH   6  20
ATOM     20  O   UNL     1       5.178   2.412  19.412  0.00  0.00    +0.000 OA
ATOM     21  H   UNL     1       6.089   2.614  19.101  0.00  0.00    +0.000 HD
ENDBRANCH   6  20
TORSDOF 4
ENDMDL
MODEL 4
REMARK VINA RESULT:      -7.3      4.642      5.543
REMARK  Name = 
REMARK  5 active torsions:
REMARK  status: ('A' for Active; 'I' for Inactive)
REMARK    1  A    between atoms: C_1  and  O_2
REMARK    2  A    between atoms: O_2  and  C_3
REMARK    3  A    between atoms: C_5  and  C_6
REMARK    4  A    between atoms: C_16  and  C_17
REMARK    5  A    between atoms: C_19  and  O_20
REMARK                            x       y       z     vdW  Elec       q    Type
REMARK                         _______ _______ _______ _____ _____    ______ ____
ROOT
ATOM      1  C   UNL     1       3.496   3.898  17.442  0.00  0.00    +0.000 A 
ATOM      2  C   UNL     1       2.755   4.923  18.059  0.00  0.00    +0.000 A 
ATOM      3  C   UNL     1       3.238   6.235  18.173  0.00  0.00    +0.000 A 
ATOM      4  C   UNL     1       4.494   6.521  17.627  0.00  0.00    +0.000 A 
ATOM      5  C   UNL     1       5.244   5.511  17.007  0.00  0.00    +0.000 A 
ATOM      6  C   UNL     1       4.755   4.197  16.915  0.00  0.00    +0.000 A 
ENDROOT
BRANCH   3   7
ATOM      7  C   UNL     1       2.459   7.295  18.843  0.00  0.00    +0.000 A 
ATOM      8  C   UNL     1       2.006   7.350  20.148  0.00  0.00    +0.000 A 
ATOM      9  C   UNL     1       1.263   8.542  20.453  0.00  0.00    +0.000 A 
ATOM     10  C   UNL     1       0.653   8.966  21.659  0.00  0.00    +0.000 A 
ATOM     11  C   UNL     1      -0.017  10.192  21.720  0.00  0.00    +0.000 A 
ATOM     12  C   UNL     1      -0.092  11.007  20.598  0.00  0.00    +0.000 A 
ATOM     13  C   UNL     1       0.496  10.612  19.395  0.00  0.00    +0.000 A 
ATOM     14  C   UNL     1       1.169   9.375  19.340  0.00  0.00    +0.000 A 
ATOM     15  S   UNL     1       1.952   8.686  17.977  0.00  0.00    +0.000 S 
ENDBRANCH   3   7
BRANCH   1  17
ATOM     16  C   UNL     1       1.704   2.555  18.300  0.00  0.00    +0.000 C 
ATOM     17  O   UNL     1       2.835   2.700  17.453  0.00  0.00    +0.000 OA
ENDBRANCH   1  17
BRANCH   5  18
ATOM     18  C   UNL     1       6.567   5.878  16.461  0.00  0.00    +0.000 C 
ATOM     19  O   UNL     1       7.566   5.216  16.729  0.00  0.00    +0.000 OA
ENDBRANCH   5  18
BRANCH   6  20
ATOM     20  O   UNL     1       5.504   3.217  16.316  0.00  0.00    +0.000 OA
ATOM     21  H   UNL     1       5.633   2.478  16.952  0.00  0.00    +0.000 HD
ENDBRANCH   6  20
TORSDOF 4
ENDMDL
MODEL 5
REMARK VINA RESULT:      -7.3      4.709      5.484
REMARK  Name = 
REMARK  5 active torsions:
REMARK  status: ('A' for Active; 'I' for Inactive)
REMARK    1  A    between atoms: C_1  and  O_2
REMARK    2  A    between atoms: O_2  and  C_3
REMARK    3  A    between atoms: C_5  and  C_6
REMARK    4  A    between atoms: C_16  and  C_17
REMARK    5  A    between atoms: C_19  and  O_20
REMARK                            x       y       z     vdW  Elec       q    Type
REMARK                         _______ _______ _______ _____ _____    ______ ____
ROOT
ATOM      1  C   UNL     1       3.517   3.885  17.342  0.00  0.00    +0.000 A 
ATOM      2  C   UNL     1       2.769   4.950  17.874  0.00  0.00    +0.000 A 
ATOM      3  C   UNL     1       3.265   6.261  17.935  0.00  0.00    +0.000 A 
ATOM      4  C   UNL     1       4.543   6.502  17.419  0.00  0.00    +0.000 A 
ATOM      5  C   UNL     1       5.301   5.451  16.882  0.00  0.00    +0.000 A 
ATOM      6  C   UNL     1       4.797   4.139  16.845  0.00  0.00    +0.000 A 
ENDROOT
BRANCH   3   7
ATOM      7  C   UNL     1       2.477   7.365  18.517  0.00  0.00    +0.000 A 
ATOM      8  C   UNL     1       2.062   8.545  17.929  0.00  0.00    +0.000 A 
ATOM      9  C   UNL     1       1.314   9.400  18.808  0.00  0.00    +0.000 A 
ATOM     10  C   UNL     1       0.720  10.665  18.581  0.00  0.00    +0.000 A 
ATOM     11  C   UNL     1       0.019  11.312  19.604  0.00  0.00    +0.000 A 
ATOM     12  C   UNL     1      -0.101  10.720  20.854  0.00  0.00    +0.000 A 
ATOM     13  C   UNL     1       0.479   9.475  21.108  0.00  0.00    +0.000 A 
ATOM     14  C   UNL     1       1.184   8.829  20.073  0.00  0.00    +0.000 A 
ATOM     15  S   UNL     1       1.980   7.312  20.158  0.00  0.00    +0.000 S 
ENDBRANCH   3   7
BRANCH   1  17
ATOM     16  C   UNL     1       3.050   1.843  18.510  0.00  0.00    +0.000 C 
ATOM     17  O   UNL     1       2.840   2.696  17.394  0.00  0.00    +0.000 OA
ENDBRANCH   1  17
BRANCH   5  18
ATOM     18  C   UNL     1       6.647   5.772  16.366  0.00  0.00    +0.000 C 
ATOM     19  O   UNL     1       7.621   5.092  16.676  0.00  0.00    +0.000 OA
ENDBRANCH   5  18
BRANCH   6  20
ATOM     20  O   UNL     1       5.555   3.120  16.328  0.00  0.00    +0.000 OA
ATOM     21  H   UNL     1       5.459   2.326  16.901  0.00  0.00    +0.000 HD
ENDBRANCH   6  20
TORSDOF 4
ENDMDL
MODEL 6
REMARK VINA RESULT:      -7.3      4.609      5.286
REMARK  Name = 
REMARK  5 active torsions:
REMARK  status: ('A' for Active; 'I' for Inactive)
REMARK    1  A    between atoms: C_1  and  O_2
REMARK    2  A    between atoms: O_2  and  C_3
REMARK    3  A    between atoms: C_5  and  C_6
REMARK    4  A    between atoms: C_16  and  C_17
REMARK    5  A    between atoms: C_19  and  O_20
REMARK                            x       y       z     vdW  Elec       q    Type
REMARK                         _______ _______ _______ _____ _____    ______ ____
ROOT
ATOM      1  C   UNL     1       4.851   4.350  18.747  0.00  0.00    +0.000 A 
ATOM      2  C   UNL     1       3.941   5.284  19.273  0.00  0.00    +0.000 A 
ATOM      3  C   UNL     1       3.510   6.405  18.547  0.00  0.00    +0.000 A 
ATOM      4  C   UNL     1       3.996   6.569  17.245  0.00  0.00    +0.000 A 
ATOM      5  C   UNL     1       4.902   5.644  16.705  0.00  0.00    +0.000 A 
ATOM      6  C   UNL     1       5.339   4.536  17.451  0.00  0.00    +0.000 A 
ENDROOT
BRANCH   3   7
ATOM      7  C   UNL     1       2.572   7.390  19.120  0.00  0.00    +0.000 A 
ATOM      8  C   UNL     1       2.005   7.422  20.381  0.00  0.00    +0.000 A 
ATOM      9  C   UNL     1       1.121   8.535  20.590  0.00  0.00    +0.000 A 
ATOM     10  C   UNL     1       0.369   8.916  21.729  0.00  0.00    +0.000 A 
ATOM     11  C   UNL     1      -0.425  10.066  21.700  0.00  0.00    +0.000 A 
ATOM     12  C   UNL     1      -0.488  10.847  20.554  0.00  0.00    +0.000 A 
ATOM     13  C   UNL     1       0.239  10.493  19.415  0.00  0.00    +0.000 A 
ATOM     14  C   UNL     1       1.037   9.333  19.450  0.00  0.00    +0.000 A 
ATOM     15  S   UNL     1       2.000   8.703  18.177  0.00  0.00    +0.000 S 
ENDBRANCH   3   7
BRANCH   1  17
ATOM     16  C   UNL     1       4.215   2.274  19.765  0.00  0.00    +0.000 C 
ATOM     17  O   UNL     1       5.136   3.346  19.633  0.00  0.00    +0.000 OA
ENDBRANCH   1  17
BRANCH   5  18
ATOM     18  C   UNL     1       5.384   5.882  15.330  0.00  0.00    +0.000 C 
ATOM     19  O   UNL     1       6.556   5.674  15.026  0.00  0.00    +0.000 OA
ENDBRANCH   5  18
BRANCH   6  20
ATOM     20  O   UNL     1       6.234   3.647  16.914  0.00  0.00    +0.000 OA
ATOM     21  H   UNL     1       7.027   4.138  16.602  0.00  0.00    +0.000 HD
ENDBRANCH   6  20
TORSDOF 4
ENDMDL
MODEL 7
REMARK VINA RESULT:      -7.2      4.880      5.320
REMARK  Name = 
REMARK  5 active torsions:
REMARK  status: ('A' for Active; 'I' for Inactive)
REMARK    1  A    between atoms: C_1  and  O_2
REMARK    2  A    between atoms: O_2  and  C_3
REMARK    3  A    between atoms: C_5  and  C_6
REMARK    4  A    between atoms: C_16  and  C_17
REMARK    5  A    between atoms: C_19  and  O_20
REMARK                            x       y       z     vdW  Elec       q    Type
REMARK                         _______ _______ _______ _____ _____    ______ ____
ROOT
ATOM      1  C   UNL     1       5.201   5.821  16.848  0.00  0.00    +0.000 A 
ATOM      2  C   UNL     1       4.408   6.833  17.418  0.00  0.00    +0.000 A 
ATOM      3  C   UNL     1       3.160   6.570  18.003  0.00  0.00    +0.000 A 
ATOM      4  C   UNL     1       2.717   5.243  18.032  0.00  0.00    +0.000 A 
ATOM      5  C   UNL     1       3.497   4.222  17.471  0.00  0.00    +0.000 A 
ATOM      6  C   UNL     1       4.737   4.504  16.872  0.00  0.00    +0.000 A 
ENDROOT
BRANCH   3   7
ATOM      7  C   UNL     1       2.328   7.645  18.577  0.00  0.00    +0.000 A 
ATOM      8  C   UNL     1       1.838   8.787  17.970  0.00  0.00    +0.000 A 
ATOM      9  C   UNL     1       1.065   9.623  18.846  0.00  0.00    +0.000 A 
ATOM     10  C   UNL     1       0.400  10.850  18.602  0.00  0.00    +0.000 A 
ATOM     11  C   UNL     1      -0.311  11.484  19.625  0.00  0.00    +0.000 A 
ATOM     12  C   UNL     1      -0.372  10.919  20.892  0.00  0.00    +0.000 A 
ATOM     13  C   UNL     1       0.278   9.713  21.162  0.00  0.00    +0.000 A 
ATOM     14  C   UNL     1       0.993   9.079  20.127  0.00  0.00    +0.000 A 
ATOM     15  S   UNL     1       1.870   7.608  20.229  0.00  0.00    +0.000 S 
ENDBRANCH   3   7
BRANCH   1  17
ATOM     16  C   UNL     1       7.332   6.858  17.216  0.00  0.00    +0.000 C 
ATOM     17  O   UNL     1       6.370   6.308  16.328  0.00  0.00    +0.000 OA
ENDBRANCH   1  17
BRANCH   5  18
ATOM     18  C   UNL     1       2.965   2.846  17.525  0.00  0.00    +0.000 C 
ATOM     19  O   UNL     1       3.659   1.916  17.930  0.00  0.00    +0.000 OA
ENDBRANCH   5  18
BRANCH   6  20
ATOM     20  O   UNL     1       5.484   3.497  16.316  0.00  0.00    +0.000 OA
ATOM     21  H   UNL     1       4.884   2.873  15.848  0.00  0.00    +0.000 HD
ENDBRANCH   6  20
TORSDOF 4
ENDMDL
MODEL 8
REMARK VINA RESULT:      -7.2      4.866      5.369
REMARK  Name = 
REMARK  5 active torsions:
REMARK  status: ('A' for Active; 'I' for Inactive)
REMARK    1  A    between atoms: C_1  and  O_2
REMARK    2  A    between atoms: O_2  and  C_3
REMARK    3  A    between atoms: C_5  and  C_6
REMARK    4  A    between atoms: C_16  and  C_17
REMARK    5  A    between atoms: C_19  and  O_20
REMARK                            x       y       z     vdW  Elec       q    Type
REMARK                         _______ _______ _______ _____ _____    ______ ____
ROOT
ATOM      1  C   UNL     1       5.150   5.785  16.894  0.00  0.00    +0.000 A 
ATOM      2  C   UNL     1       4.390   6.769  17.552  0.00  0.00    +0.000 A 
ATOM      3  C   UNL     1       3.158   6.485  18.161  0.00  0.00    +0.000 A 
ATOM      4  C   UNL     1       2.697   5.164  18.121  0.00  0.00    +0.000 A 
ATOM      5  C   UNL     1       3.444   4.171  17.472  0.00  0.00    +0.000 A 
ATOM      6  C   UNL     1       4.668   4.475  16.850  0.00  0.00    +0.000 A 
ENDROOT
BRANCH   3   7
ATOM      7  C   UNL     1       2.361   7.532  18.828  0.00  0.00    +0.000 A 
ATOM      8  C   UNL     1       1.920   7.590  20.137  0.00  0.00    +0.000 A 
ATOM      9  C   UNL     1       1.151   8.767  20.439  0.00  0.00    +0.000 A 
ATOM     10  C   UNL     1       0.544   9.188  21.647  0.00  0.00    +0.000 A 
ATOM     11  C   UNL     1      -0.155  10.398  21.702  0.00  0.00    +0.000 A 
ATOM     12  C   UNL     1      -0.263  11.198  20.573  0.00  0.00    +0.000 A 
ATOM     13  C   UNL     1       0.322  10.805  19.367  0.00  0.00    +0.000 A 
ATOM     14  C   UNL     1       1.025   9.585  19.318  0.00  0.00    +0.000 A 
ATOM     15  S   UNL     1       1.809   8.901  17.954  0.00  0.00    +0.000 S 
ENDBRANCH   3   7
BRANCH   1  17
ATOM     16  C   UNL     1       7.336   6.703  17.255  0.00  0.00    +0.000 C 
ATOM     17  O   UNL     1       6.308   6.289  16.366  0.00  0.00    +0.000 OA
ENDBRANCH   1  17
BRANCH   5  18
ATOM     18  C   UNL     1       2.895   2.801  17.458  0.00  0.00    +0.000 C 
ATOM     19  O   UNL     1       1.713   2.591  17.716  0.00  0.00    +0.000 OA
ENDBRANCH   5  18
BRANCH   6  20
ATOM     20  O   UNL     1       5.382   3.496  16.208  0.00  0.00    +0.000 OA
ATOM     21  H   UNL     1       4.755   2.876  15.772  0.00  0.00    +0.000 HD
ENDBRANCH   6  20
TORSDOF 4
ENDMDL
MODEL 9
REMARK VINA RESULT:      -7.2      5.184      6.599
REMARK  Name = 
REMARK  5 active torsions:
REMARK  status: ('A' for Active; 'I' for Inactive)
REMARK    1  A    between atoms: C_1  and  O_2
REMARK    2  A    between atoms: O_2  and  C_3
REMARK    3  A    between atoms: C_5  and  C_6
REMARK    4  A    between atoms: C_16  and  C_17
REMARK    5  A    between atoms: C_19  and  O_20
REMARK                            x       y       z     vdW  Elec       q    Type
REMARK                         _______ _______ _______ _____ _____    ______ ____
ROOT
ATOM      1  C   UNL     1       4.791   4.363  18.899  0.00  0.00    +0.000 A 
ATOM      2  C   UNL     1       4.136   5.608  18.918  0.00  0.00    +0.000 A 
ATOM      3  C   UNL     1       2.973   5.834  19.670  0.00  0.00    +0.000 A 
ATOM      4  C   UNL     1       2.477   4.776  20.441  0.00  0.00    +0.000 A 
ATOM      5  C   UNL     1       3.120   3.531  20.435  0.00  0.00    +0.000 A 
ATOM      6  C   UNL     1       4.274   3.314  19.662  0.00  0.00    +0.000 A 
ENDROOT
BRANCH   3   7
ATOM      7  C   UNL     1       2.283   7.137  19.663  0.00  0.00    +0.000 A 
ATOM      8  C   UNL     1       1.562   7.748  20.672  0.00  0.00    +0.000 A 
ATOM      9  C   UNL     1       1.015   9.025  20.304  0.00  0.00    +0.000 A 
ATOM     10  C   UNL     1       0.239   9.947  21.049  0.00  0.00    +0.000 A 
ATOM     11  C   UNL     1      -0.175  11.151  20.472  0.00  0.00    +0.000 A 
ATOM     12  C   UNL     1       0.168  11.456  19.162  0.00  0.00    +0.000 A 
ATOM     13  C   UNL     1       0.928  10.564  18.403  0.00  0.00    +0.000 A 
ATOM     14  C   UNL     1       1.342   9.352  18.989  0.00  0.00    +0.000 A 
ATOM     15  S   UNL     1       2.267   8.110  18.250  0.00  0.00    +0.000 S 
ENDBRANCH   3   7
BRANCH   1  17
ATOM     16  C   UNL     1       5.709   4.341  16.683  0.00  0.00    +0.000 C 
ATOM     17  O   UNL     1       5.896   4.371  18.090  0.00  0.00    +0.000 OA
ENDBRANCH   1  17
BRANCH   5  18
ATOM     18  C   UNL     1       2.538   2.455  21.262  0.00  0.00    +0.000 C 
ATOM     19  O   UNL     1       1.797   2.716  22.207  0.00  0.00    +0.000 OA
ENDBRANCH   5  18
BRANCH   6  20
ATOM     20  O   UNL     1       4.886   2.087  19.656  0.00  0.00    +0.000 OA
ATOM     21  H   UNL     1       5.587   2.074  20.347  0.00  0.00    +0.000 HD
ENDBRANCH   6  20
TORSDOF 4
ENDMDL
