MODEL 1
REMARK VINA RESULT:      -6.5      0.000      0.000
REMARK  Name = 
REMARK  3 active torsions:
REMARK  status: ('A' for Active; 'I' for Inactive)
REMARK    1  A    between atoms: C_2  and  N_3
REMARK    2  A    between atoms: C_2  and  N_10
REMARK    3  A    between atoms: N_3  and  C_4
REMARK                            x       y       z     vdW  Elec       q    Type
REMARK                         _______ _______ _______ _____ _____    ______ ____
ROOT
ATOM      1  S   UNL     1       4.593   6.986  16.964  0.00  0.00    +0.000 S 
ATOM      2  C   UNL     1       5.661   5.698  16.887  0.00  0.00    +0.000 C 
ENDROOT
BRANCH   2   3
ATOM      3  N   UNL     1       6.690   5.547  16.005  0.00  0.00    +0.000 N 
ATOM      4  C   UNL     1       6.697   5.057  14.697  0.00  0.00    +0.000 A 
ATOM      5  C   UNL     1       5.807   4.087  14.257  0.00  0.00    +0.000 A 
ATOM      6  C   UNL     1       5.956   3.579  12.968  0.00  0.00    +0.000 A 
ATOM      7  C   UNL     1       6.975   4.064  12.159  0.00  0.00    +0.000 A 
ATOM      8  C   UNL     1       7.823   5.023  12.687  0.00  0.00    +0.000 A 
ATOM      9  N   UNL     1       7.724   5.504  13.946  0.00  0.00    +0.000 NA
ATOM     10  H   UNL     1       7.533   6.059  16.225  0.00  0.00    +0.000 HD
ENDBRANCH   2   3
BRANCH   2  11
ATOM     11  N   UNL     1       5.575   4.758  17.882  0.00  0.00    +0.000 N 
ATOM     12  H   UNL     1       6.251   4.898  18.628  0.00  0.00    +0.000 HD
BRANCH  11  13
ATOM     13  C   UNL     1       4.568   3.799  18.136  0.00  0.00    +0.000 A 
ATOM     14  C   UNL     1       3.582   3.432  17.221  0.00  0.00    +0.000 A 
ATOM     15  C   UNL     1       2.582   2.536  17.598  0.00  0.00    +0.000 A 
ATOM     16  C   UNL     1       2.596   2.034  18.887  0.00  0.00    +0.000 A 
ATOM     17  N   UNL     1       3.527   2.363  19.805  0.00  0.00    +0.000 NA
ATOM     18  C   UNL     1       4.482   3.239  19.410  0.00  0.00    +0.000 A 
ENDBRANCH  11  13
ENDBRANCH   2  11
TORSDOF 3
ENDMDL
MODEL 2
REMARK VINA RESULT:      -6.5      2.311      6.192
REMARK  Name = 
REMARK  3 active torsions:
REMARK  status: ('A' for Active; 'I' for Inactive)
REMARK    1  A    between atoms: C_2  and  N_3
REMARK    2  A    between atoms: C_2  and  N_10
REMARK    3  A    between atoms: N_3  and  C_4
REMARK                            x       y       z     vdW  Elec       q    Type
REMARK                         _______ _______ _______ _____ _____    ______ ____
ROOT
ATOM      1  S   UNL     1       2.356   8.137  18.060  0.00  0.00    +0.000 S 
ATOM      2  C   UNL     1       3.263   6.733  17.951  0.00  0.00    +0.000 C 
ENDROOT
BRANCH   2   3
ATOM      3  N   UNL     1       2.786   5.456  17.967  0.00  0.00    +0.000 N 
ATOM      4  C   UNL     1       2.237   4.707  19.009  0.00  0.00    +0.000 A 
ATOM      5  C   UNL     1       2.613   4.881  20.335  0.00  0.00    +0.000 A 
ATOM      6  C   UNL     1       2.093   4.017  21.296  0.00  0.00    +0.000 A 
ATOM      7  C   UNL     1       1.207   3.021  20.908  0.00  0.00    +0.000 A 
ATOM      8  C   UNL     1       0.899   2.914  19.563  0.00  0.00    +0.000 A 
ATOM      9  N   UNL     1       1.419   3.714  18.605  0.00  0.00    +0.000 NA
ATOM     10  H   UNL     1       2.587   5.051  17.061  0.00  0.00    +0.000 HD
ENDBRANCH   2   3
BRANCH   2  11
ATOM     11  N   UNL     1       4.603   6.876  17.697  0.00  0.00    +0.000 N 
ATOM     12  H   UNL     1       5.070   7.508  18.340  0.00  0.00    +0.000 HD
BRANCH  11  13
ATOM     13  C   UNL     1       5.448   6.120  16.854  0.00  0.00    +0.000 A 
ATOM     14  C   UNL     1       5.212   5.895  15.498  0.00  0.00    +0.000 A 
ATOM     15  C   UNL     1       6.064   5.064  14.771  0.00  0.00    +0.000 A 
ATOM     16  C   UNL     1       7.130   4.475  15.427  0.00  0.00    +0.000 A 
ATOM     17  N   UNL     1       7.395   4.661  16.736  0.00  0.00    +0.000 NA
ATOM     18  C   UNL     1       6.547   5.470  17.415  0.00  0.00    +0.000 A 
ENDBRANCH  11  13
ENDBRANCH   2  11
TORSDOF 3
ENDMDL
MODEL 3
REMARK VINA RESULT:      -6.3      1.287      1.403
REMARK  Name = 
REMARK  3 active torsions:
REMARK  status: ('A' for Active; 'I' for Inactive)
REMARK    1  A    between atoms: C_2  and  N_3
REMARK    2  A    between atoms: C_2  and  N_10
REMARK    3  A    between atoms: N_3  and  C_4
REMARK                            x       y       z     vdW  Elec       q    Type
REMARK                         _______ _______ _______ _____ _____    ______ ____
ROOT
ATOM      1  S   UNL     1       6.298   5.219  18.836  0.00  0.00    +0.000 S 
ATOM      2  C   UNL     1       6.036   5.244  17.182  0.00  0.00    +0.000 C 
ENDROOT
BRANCH   2   3
ATOM      3  N   UNL     1       6.991   5.266  16.209  0.00  0.00    +0.000 N 
ATOM      4  C   UNL     1       6.919   4.908  14.861  0.00  0.00    +0.000 A 
ATOM      5  C   UNL     1       6.067   3.913  14.396  0.00  0.00    +0.000 A 
ATOM      6  C   UNL     1       6.139   3.547  13.054  0.00  0.00    +0.000 A 
ATOM      7  C   UNL     1       7.043   4.191  12.219  0.00  0.00    +0.000 A 
ATOM      8  C   UNL     1       7.860   5.162  12.773  0.00  0.00    +0.000 A 
ATOM      9  N   UNL     1       7.838   5.509  14.079  0.00  0.00    +0.000 NA
ATOM     10  H   UNL     1       7.810   5.823  16.411  0.00  0.00    +0.000 HD
ENDBRANCH   2   3
BRANCH   2  11
ATOM     11  N   UNL     1       4.740   5.104  16.754  0.00  0.00    +0.000 N 
ATOM     12  H   UNL     1       4.584   5.461  15.815  0.00  0.00    +0.000 HD
BRANCH  11  13
ATOM     13  C   UNL     1       3.681   4.352  17.311  0.00  0.00    +0.000 A 
ATOM     14  C   UNL     1       2.517   4.904  17.843  0.00  0.00    +0.000 A 
ATOM     15  C   UNL     1       1.567   4.080  18.446  0.00  0.00    +0.000 A 
ATOM     16  C   UNL     1       1.815   2.720  18.504  0.00  0.00    +0.000 A 
ATOM     17  N   UNL     1       2.927   2.142  18.006  0.00  0.00    +0.000 NA
ATOM     18  C   UNL     1       3.832   2.971  17.430  0.00  0.00    +0.000 A 
ENDBRANCH  11  13
ENDBRANCH   2  11
TORSDOF 3
ENDMDL
MODEL 4
REMARK VINA RESULT:      -6.3      2.411      6.320
REMARK  Name = 
REMARK  3 active torsions:
REMARK  status: ('A' for Active; 'I' for Inactive)
REMARK    1  A    between atoms: C_2  and  N_3
REMARK    2  A    between atoms: C_2  and  N_10
REMARK    3  A    between atoms: N_3  and  C_4
REMARK                            x       y       z     vdW  Elec       q    Type
REMARK                         _______ _______ _______ _____ _____    ______ ____
ROOT
ATOM      1  S   UNL     1       2.188   8.196  18.398  0.00  0.00    +0.000 S 
ATOM      2  C   UNL     1       3.101   6.837  18.042  0.00  0.00    +0.000 C 
ENDROOT
BRANCH   2   3
ATOM      3  N   UNL     1       2.660   5.547  18.017  0.00  0.00    +0.000 N 
ATOM      4  C   UNL     1       2.168   4.739  19.044  0.00  0.00    +0.000 A 
ATOM      5  C   UNL     1       2.585   4.868  20.363  0.00  0.00    +0.000 A 
ATOM      6  C   UNL     1       2.122   3.949  21.303  0.00  0.00    +0.000 A 
ATOM      7  C   UNL     1       1.251   2.945  20.902  0.00  0.00    +0.000 A 
ATOM      8  C   UNL     1       0.899   2.886  19.564  0.00  0.00    +0.000 A 
ATOM      9  N   UNL     1       1.364   3.741  18.625  0.00  0.00    +0.000 NA
ATOM     10  H   UNL     1       2.441   5.176  17.103  0.00  0.00    +0.000 HD
ENDBRANCH   2   3
BRANCH   2  11
ATOM     11  N   UNL     1       4.385   7.045  17.610  0.00  0.00    +0.000 N 
ATOM     12  H   UNL     1       4.794   7.907  17.961  0.00  0.00    +0.000 HD
BRANCH  11  13
ATOM     13  C   UNL     1       5.277   6.158  16.966  0.00  0.00    +0.000 A 
ATOM     14  C   UNL     1       6.186   5.335  17.629  0.00  0.00    +0.000 A 
ATOM     15  C   UNL     1       7.083   4.556  16.898  0.00  0.00    +0.000 A 
ATOM     16  C   UNL     1       7.047   4.628  15.517  0.00  0.00    +0.000 A 
ATOM     17  N   UNL     1       6.188   5.412  14.833  0.00  0.00    +0.000 NA
ATOM     18  C   UNL     1       5.333   6.160  15.572  0.00  0.00    +0.000 A 
ENDBRANCH  11  13
ENDBRANCH   2  11
TORSDOF 3
ENDMDL
MODEL 5
REMARK VINA RESULT:      -6.3      2.077      6.240
REMARK  Name = 
REMARK  3 active torsions:
REMARK  status: ('A' for Active; 'I' for Inactive)
REMARK    1  A    between atoms: C_2  and  N_3
REMARK    2  A    between atoms: C_2  and  N_10
REMARK    3  A    between atoms: N_3  and  C_4
REMARK                            x       y       z     vdW  Elec       q    Type
REMARK                         _______ _______ _______ _____ _____    ______ ____
ROOT
ATOM      1  S   UNL     1       3.012   7.766  17.789  0.00  0.00    +0.000 S 
ATOM      2  C   UNL     1       3.626   6.612  18.836  0.00  0.00    +0.000 C 
ENDROOT
BRANCH   2   3
ATOM      3  N   UNL     1       2.966   6.027  19.877  0.00  0.00    +0.000 N 
ATOM      4  C   UNL     1       2.354   4.775  19.972  0.00  0.00    +0.000 A 
ATOM      5  C   UNL     1       1.773   4.142  18.880  0.00  0.00    +0.000 A 
ATOM      6  C   UNL     1       1.090   2.946  19.088  0.00  0.00    +0.000 A 
ATOM      7  C   UNL     1       1.020   2.415  20.369  0.00  0.00    +0.000 A 
ATOM      8  C   UNL     1       1.619   3.121  21.398  0.00  0.00    +0.000 A 
ATOM      9  N   UNL     1       2.254   4.303  21.230  0.00  0.00    +0.000 NA
ATOM     10  H   UNL     1       3.122   6.444  20.785  0.00  0.00    +0.000 HD
ENDBRANCH   2   3
BRANCH   2  11
ATOM     11  N   UNL     1       4.870   6.111  18.551  0.00  0.00    +0.000 N 
ATOM     12  H   UNL     1       5.416   5.889  19.379  0.00  0.00    +0.000 HD
BRANCH  11  13
ATOM     13  C   UNL     1       5.399   5.650  17.324  0.00  0.00    +0.000 A 
ATOM     14  C   UNL     1       4.830   4.639  16.550  0.00  0.00    +0.000 A 
ATOM     15  C   UNL     1       5.476   4.198  15.395  0.00  0.00    +0.000 A 
ATOM     16  C   UNL     1       6.681   4.783  15.049  0.00  0.00    +0.000 A 
ATOM     17  N   UNL     1       7.269   5.761  15.767  0.00  0.00    +0.000 NA
ATOM     18  C   UNL     1       6.619   6.164  16.886  0.00  0.00    +0.000 A 
ENDBRANCH  11  13
ENDBRANCH   2  11
TORSDOF 3
ENDMDL
MODEL 6
REMARK VINA RESULT:      -6.3      2.922      6.257
REMARK  Name = 
REMARK  3 active torsions:
REMARK  status: ('A' for Active; 'I' for Inactive)
REMARK    1  A    between atoms: C_2  and  N_3
REMARK    2  A    between atoms: C_2  and  N_10
REMARK    3  A    between atoms: N_3  and  C_4
REMARK                            x       y       z     vdW  Elec       q    Type
REMARK                         _______ _______ _______ _____ _____    ______ ____
ROOT
ATOM      1  S   UNL     1       2.567   8.262  17.962  0.00  0.00    +0.000 S 
ATOM      2  C   UNL     1       3.020   6.752  18.526  0.00  0.00    +0.000 C 
ENDROOT
BRANCH   2   3
ATOM      3  N   UNL     1       2.720   6.216  19.743  0.00  0.00    +0.000 N 
ATOM      4  C   UNL     1       2.249   4.946  20.082  0.00  0.00    +0.000 A 
ATOM      5  C   UNL     1       1.434   4.201  19.239  0.00  0.00    +0.000 A 
ATOM      6  C   UNL     1       0.923   2.991  19.703  0.00  0.00    +0.000 A 
ATOM      7  C   UNL     1       1.251   2.557  20.981  0.00  0.00    +0.000 A 
ATOM      8  C   UNL     1       2.059   3.372  21.754  0.00  0.00    +0.000 A 
ATOM      9  N   UNL     1       2.537   4.568  21.343  0.00  0.00    +0.000 NA
ATOM     10  H   UNL     1       3.092   6.710  20.543  0.00  0.00    +0.000 HD
ENDBRANCH   2   3
BRANCH   2  11
ATOM     11  N   UNL     1       3.649   5.918  17.637  0.00  0.00    +0.000 N 
ATOM     12  H   UNL     1       3.084   5.698  16.821  0.00  0.00    +0.000 HD
BRANCH  11  13
ATOM     13  C   UNL     1       5.005   5.524  17.571  0.00  0.00    +0.000 A 
ATOM     14  C   UNL     1       5.674   5.194  16.393  0.00  0.00    +0.000 A 
ATOM     15  C   UNL     1       6.990   4.736  16.444  0.00  0.00    +0.000 A 
ATOM     16  C   UNL     1       7.600   4.617  17.680  0.00  0.00    +0.000 A 
ATOM     17  N   UNL     1       6.992   4.921  18.844  0.00  0.00    +0.000 NA
ATOM     18  C   UNL     1       5.713   5.359  18.762  0.00  0.00    +0.000 A 
ENDBRANCH  11  13
ENDBRANCH   2  11
TORSDOF 3
ENDMDL
MODEL 7
REMARK VINA RESULT:      -6.3      1.706      6.290
REMARK  Name = 
REMARK  3 active torsions:
REMARK  status: ('A' for Active; 'I' for Inactive)
REMARK    1  A    between atoms: C_2  and  N_3
REMARK    2  A    between atoms: C_2  and  N_10
REMARK    3  A    between atoms: N_3  and  C_4
REMARK                            x       y       z     vdW  Elec       q    Type
REMARK                         _______ _______ _______ _____ _____    ______ ____
ROOT
ATOM      1  S   UNL     1       6.691   5.385  19.301  0.00  0.00    +0.000 S 
ATOM      2  C   UNL     1       5.529   4.598  18.385  0.00  0.00    +0.000 C 
ENDROOT
BRANCH   2   3
ATOM      3  N   UNL     1       4.779   3.528  18.772  0.00  0.00    +0.000 N 
ATOM      4  C   UNL     1       3.502   3.474  19.336  0.00  0.00    +0.000 A 
ATOM      5  C   UNL     1       3.004   4.476  20.158  0.00  0.00    +0.000 A 
ATOM      6  C   UNL     1       1.764   4.289  20.764  0.00  0.00    +0.000 A 
ATOM      7  C   UNL     1       1.057   3.119  20.520  0.00  0.00    +0.000 A 
ATOM      8  C   UNL     1       1.637   2.170  19.696  0.00  0.00    +0.000 A 
ATOM      9  N   UNL     1       2.855   2.310  19.127  0.00  0.00    +0.000 NA
ATOM     10  H   UNL     1       5.071   2.632  18.405  0.00  0.00    +0.000 HD
ENDBRANCH   2   3
BRANCH   2  11
ATOM     11  N   UNL     1       5.210   5.156  17.174  0.00  0.00    +0.000 N 
ATOM     12  H   UNL     1       4.568   5.941  17.248  0.00  0.00    +0.000 HD
BRANCH  11  13
ATOM     13  C   UNL     1       5.801   4.962  15.905  0.00  0.00    +0.000 A 
ATOM     14  C   UNL     1       5.308   4.095  14.930  0.00  0.00    +0.000 A 
ATOM     15  C   UNL     1       6.013   3.911  13.741  0.00  0.00    +0.000 A 
ATOM     16  C   UNL     1       7.200   4.601  13.563  0.00  0.00    +0.000 A 
ATOM     17  N   UNL     1       7.715   5.446  14.479  0.00  0.00    +0.000 NA
ATOM     18  C   UNL     1       7.009   5.599  15.625  0.00  0.00    +0.000 A 
ENDBRANCH  11  13
ENDBRANCH   2  11
TORSDOF 3
ENDMDL
MODEL 8
REMARK VINA RESULT:      -6.2      1.687      6.461
REMARK  Name = 
REMARK  3 active torsions:
REMARK  status: ('A' for Active; 'I' for Inactive)
REMARK    1  A    between atoms: C_2  and  N_3
REMARK    2  A    between atoms: C_2  and  N_10
REMARK    3  A    between atoms: N_3  and  C_4
REMARK                            x       y       z     vdW  Elec       q    Type
REMARK                         _______ _______ _______ _____ _____    ______ ____
ROOT
ATOM      1  S   UNL     1       4.274   6.241  17.506  0.00  0.00    +0.000 S 
ATOM      2  C   UNL     1       4.792   4.753  18.075  0.00  0.00    +0.000 C 
ENDROOT
BRANCH   2   3
ATOM      3  N   UNL     1       4.531   4.217  19.301  0.00  0.00    +0.000 N 
ATOM      4  C   UNL     1       3.330   3.776  19.860  0.00  0.00    +0.000 A 
ATOM      5  C   UNL     1       2.102   4.336  19.533  0.00  0.00    +0.000 A 
ATOM      6  C   UNL     1       0.968   3.907  20.219  0.00  0.00    +0.000 A 
ATOM      7  C   UNL     1       1.093   2.926  21.194  0.00  0.00    +0.000 A 
ATOM      8  C   UNL     1       2.358   2.433  21.461  0.00  0.00    +0.000 A 
ATOM      9  N   UNL     1       3.480   2.860  20.838  0.00  0.00    +0.000 NA
ATOM     10  H   UNL     1       5.336   3.877  19.811  0.00  0.00    +0.000 HD
ENDBRANCH   2   3
BRANCH   2  11
ATOM     11  N   UNL     1       5.436   3.935  17.182  0.00  0.00    +0.000 N 
ATOM     12  H   UNL     1       5.351   2.948  17.406  0.00  0.00    +0.000 HD
BRANCH  11  13
ATOM     13  C   UNL     1       5.980   4.235  15.912  0.00  0.00    +0.000 A 
ATOM     14  C   UNL     1       5.532   3.682  14.713  0.00  0.00    +0.000 A 
ATOM     15  C   UNL     1       6.192   3.978  13.520  0.00  0.00    +0.000 A 
ATOM     16  C   UNL     1       7.288   4.820  13.564  0.00  0.00    +0.000 A 
ATOM     17  N   UNL     1       7.758   5.376  14.700  0.00  0.00    +0.000 NA
ATOM     18  C   UNL     1       7.098   5.064  15.842  0.00  0.00    +0.000 A 
ENDBRANCH  11  13
ENDBRANCH   2  11
TORSDOF 3
ENDMDL
MODEL 9
REMARK VINA RESULT:      -6.2      1.108      1.466
REMARK  Name = 
REMARK  3 active torsions:
REMARK  status: ('A' for Active; 'I' for Inactive)
REMARK    1  A    between atoms: C_2  and  N_3
REMARK    2  A    between atoms: C_2  and  N_10
REMARK    3  A    between atoms: N_3  and  C_4
REMARK                            x       y       z     vdW  Elec       q    Type
REMARK                         _______ _______ _______ _____ _____    ______ ____
ROOT
ATOM      1  S   UNL     1       4.447   6.669  17.326  0.00  0.00    +0.000 S 
ATOM      2  C   UNL     1       5.260   5.289  16.836  0.00  0.00    +0.000 C 
ENDROOT
BRANCH   2   3
ATOM      3  N   UNL     1       6.384   5.239  16.066  0.00  0.00    +0.000 N 
ATOM      4  C   UNL     1       6.545   4.902  14.720  0.00  0.00    +0.000 A 
ATOM      5  C   UNL     1       5.723   3.988  14.074  0.00  0.00    +0.000 A 
ATOM      6  C   UNL     1       6.023   3.631  12.762  0.00  0.00    +0.000 A 
ATOM      7  C   UNL     1       7.121   4.204  12.134  0.00  0.00    +0.000 A 
ATOM      8  C   UNL     1       7.891   5.096  12.860  0.00  0.00    +0.000 A 
ATOM      9  N   UNL     1       7.644   5.431  14.146  0.00  0.00    +0.000 NA
ATOM     10  H   UNL     1       7.191   5.723  16.437  0.00  0.00    +0.000 HD
ENDBRANCH   2   3
BRANCH   2  11
ATOM     11  N   UNL     1       4.833   4.095  17.359  0.00  0.00    +0.000 N 
ATOM     12  H   UNL     1       5.552   3.377  17.367  0.00  0.00    +0.000 HD
BRANCH  11  13
ATOM     13  C   UNL     1       3.655   3.795  18.081  0.00  0.00    +0.000 A 
ATOM     14  C   UNL     1       3.540   3.873  19.469  0.00  0.00    +0.000 A 
ATOM     15  C   UNL     1       2.359   3.474  20.093  0.00  0.00    +0.000 A 
ATOM     16  C   UNL     1       1.323   3.003  19.307  0.00  0.00    +0.000 A 
ATOM     17  N   UNL     1       1.390   2.908  17.963  0.00  0.00    +0.000 NA
ATOM     18  C   UNL     1       2.552   3.299  17.387  0.00  0.00    +0.000 A 
ENDBRANCH  11  13
ENDBRANCH   2  11
TORSDOF 3
ENDMDL
