MODEL 1
REMARK VINA RESULT:      -9.8      0.000      0.000
REMARK  Name = 
REMARK  6 active torsions:
REMARK  status: ('A' for Active; 'I' for Inactive)
REMARK    1  A    between atoms: C_1  and  C_2
REMARK    2  A    between atoms: C_2  and  C_3
REMARK    3  A    between atoms: N_5  and  C_6
REMARK    4  A    between atoms: C_8  and  C_9
REMARK    5  A    between atoms: C_12  and  C_13
REMARK    6  A    between atoms: C_25  and  C_26
REMARK                            x       y       z     vdW  Elec       q    Type
REMARK                         _______ _______ _______ _____ _____    ______ ____
ROOT
ATOM      1  C   UNL     1       2.807   6.101  18.527  0.00  0.00    +0.000 A 
ATOM      2  N   UNL     1       2.273   5.220  19.337  0.00  0.00    +0.000 NA
ATOM      3  N   UNL     1       2.664   3.927  19.160  0.00  0.00    +0.000 N 
ATOM      4  C   UNL     1       2.246   2.815  19.854  0.00  0.00    +0.000 A 
ATOM      5  C   UNL     1       1.271   2.850  20.961  0.00  0.00    +0.000 C 
ATOM      6  N   UNL     1       2.849   1.747  19.365  0.00  0.00    +0.000 NA
ATOM      7  N   UNL     1       3.667   2.152  18.334  0.00  0.00    +0.000 NA
ATOM      8  C   UNL     1       3.540   3.456  18.223  0.00  0.00    +0.000 A 
ATOM      9  C   UNL     1       4.175   4.386  17.323  0.00  0.00    +0.000 A 
ATOM     10  C   UNL     1       5.091   3.960  16.353  0.00  0.00    +0.000 A 
ATOM     11  C   UNL     1       5.705   4.890  15.520  0.00  0.00    +0.000 A 
ATOM     12  C   UNL     1       5.438   6.246  15.686  0.00  0.00    +0.000 A 
ATOM     13  C   UNL     1       4.551   6.673  16.681  0.00  0.00    +0.000 A 
ATOM     14  C   UNL     1       3.863   5.747  17.476  0.00  0.00    +0.000 A 
ENDROOT
BRANCH   1  17
ATOM     15  C   UNL     1       1.042   9.179  19.949  0.00  0.00    +0.000 A 
ATOM     16  C   UNL     1       1.608   7.906  19.809  0.00  0.00    +0.000 A 
ATOM     17  C   UNL     1       2.289   7.505  18.663  0.00  0.00    +0.000 A 
ATOM     18  C   UNL     1       2.551   8.455  17.679  0.00  0.00    +0.000 A 
ATOM     19  C   UNL     1       2.061   9.757  17.822  0.00  0.00    +0.000 A 
ATOM     20  C   UNL     1       1.288  10.132  18.941  0.00  0.00    +0.000 A 
ATOM     21  C   UNL     1       0.799  11.552  19.027  0.00  0.00    +0.000 C 
BRANCH  15  24
ATOM     22  C   UNL     1       0.644   9.575  22.387  0.00  0.00    +0.000 C 
ATOM     23  O   UNL     1       1.803   9.456  22.782  0.00  0.00    +0.000 OA
ATOM     24  N   UNL     1       0.220   9.493  21.067  0.00  0.00    +0.000 N 
ATOM     25  H   UNL     1      -0.756   9.687  20.881  0.00  0.00    +0.000 HD
BRANCH  22  27
ATOM     26  C   UNL     1      -1.237  11.083  23.006  0.00  0.00    +0.000 C 
ATOM     27  C   UNL     1      -0.470   9.820  23.385  0.00  0.00    +0.000 C 
ENDBRANCH  22  27
ENDBRANCH  15  24
ENDBRANCH   1  17
TORSDOF 3
ENDMDL
MODEL 2
REMARK VINA RESULT:      -9.6      1.892      3.458
REMARK  Name = 
REMARK  6 active torsions:
REMARK  status: ('A' for Active; 'I' for Inactive)
REMARK    1  A    between atoms: C_1  and  C_2
REMARK    2  A    between atoms: C_2  and  C_3
REMARK    3  A    between atoms: N_5  and  C_6
REMARK    4  A    between atoms: C_8  and  C_9
REMARK    5  A    between atoms: C_12  and  C_13
REMARK    6  A    between atoms: C_25  and  C_26
REMARK                            x       y       z     vdW  Elec       q    Type
REMARK                         _______ _______ _______ _____ _____    ______ ____
ROOT
ATOM      1  C   UNL     1       3.118   6.578  18.855  0.00  0.00    +0.000 A 
ATOM      2  N   UNL     1       4.305   6.755  18.329  0.00  0.00    +0.000 NA
ATOM      3  N   UNL     1       5.166   5.704  18.422  0.00  0.00    +0.000 N 
ATOM      4  C   UNL     1       6.466   5.633  17.975  0.00  0.00    +0.000 A 
ATOM      5  C   UNL     1       7.162   6.733  17.281  0.00  0.00    +0.000 C 
ATOM      6  N   UNL     1       6.963   4.447  18.274  0.00  0.00    +0.000 NA
ATOM      7  N   UNL     1       5.989   3.728  18.930  0.00  0.00    +0.000 NA
ATOM      8  C   UNL     1       4.925   4.496  19.014  0.00  0.00    +0.000 A 
ATOM      9  C   UNL     1       3.627   4.240  19.586  0.00  0.00    +0.000 A 
ATOM     10  C   UNL     1       3.321   3.015  20.193  0.00  0.00    +0.000 A 
ATOM     11  C   UNL     1       2.049   2.793  20.710  0.00  0.00    +0.000 A 
ATOM     12  C   UNL     1       1.071   3.777  20.581  0.00  0.00    +0.000 A 
ATOM     13  C   UNL     1       1.368   4.986  19.941  0.00  0.00    +0.000 A 
ATOM     14  C   UNL     1       2.665   5.258  19.485  0.00  0.00    +0.000 A 
ENDROOT
BRANCH   1  17
ATOM     15  C   UNL     1       0.940   9.476  20.068  0.00  0.00    +0.000 A 
ATOM     16  C   UNL     1       1.839   8.403  20.027  0.00  0.00    +0.000 A 
ATOM     17  C   UNL     1       2.215   7.780  18.840  0.00  0.00    +0.000 A 
ATOM     18  C   UNL     1       1.805   8.341  17.634  0.00  0.00    +0.000 A 
ATOM     19  C   UNL     1       0.963   9.460  17.640  0.00  0.00    +0.000 A 
ATOM     20  C   UNL     1       0.506  10.028  18.848  0.00  0.00    +0.000 A 
ATOM     21  C   UNL     1      -0.393  11.233  18.773  0.00  0.00    +0.000 C 
BRANCH  15  24
ATOM     22  C   UNL     1      -0.405   9.317  22.171  0.00  0.00    +0.000 C 
ATOM     23  O   UNL     1      -0.835   8.173  22.027  0.00  0.00    +0.000 OA
ATOM     24  N   UNL     1       0.460   9.978  21.310  0.00  0.00    +0.000 N 
ATOM     25  H   UNL     1       0.792  10.891  21.596  0.00  0.00    +0.000 HD
BRANCH  22  27
ATOM     26  C   UNL     1      -1.279  11.523  22.921  0.00  0.00    +0.000 C 
ATOM     27  C   UNL     1      -0.835  10.136  23.372  0.00  0.00    +0.000 C 
ENDBRANCH  22  27
ENDBRANCH  15  24
ENDBRANCH   1  17
TORSDOF 3
ENDMDL
MODEL 3
REMARK VINA RESULT:      -9.6      1.205      1.205
REMARK  Name = 
REMARK  6 active torsions:
REMARK  status: ('A' for Active; 'I' for Inactive)
REMARK    1  A    between atoms: C_1  and  C_2
REMARK    2  A    between atoms: C_2  and  C_3
REMARK    3  A    between atoms: N_5  and  C_6
REMARK    4  A    between atoms: C_8  and  C_9
REMARK    5  A    between atoms: C_12  and  C_13
REMARK    6  A    between atoms: C_25  and  C_26
REMARK                            x       y       z     vdW  Elec       q    Type
REMARK                         _______ _______ _______ _____ _____    ______ ____
ROOT
ATOM      1  C   UNL     1       3.141   6.198  19.132  0.00  0.00    +0.000 A 
ATOM      2  N   UNL     1       2.657   5.295  19.949  0.00  0.00    +0.000 NA
ATOM      3  N   UNL     1       3.322   4.107  19.992  0.00  0.00    +0.000 N 
ATOM      4  C   UNL     1       3.016   2.994  20.742  0.00  0.00    +0.000 A 
ATOM      5  C   UNL     1       1.873   2.912  21.671  0.00  0.00    +0.000 C 
ATOM      6  N   UNL     1       3.896   2.043  20.485  0.00  0.00    +0.000 NA
ATOM      7  N   UNL     1       4.787   2.526  19.553  0.00  0.00    +0.000 NA
ATOM      8  C   UNL     1       4.426   3.757  19.267  0.00  0.00    +0.000 A 
ATOM      9  C   UNL     1       5.013   4.722  18.371  0.00  0.00    +0.000 A 
ATOM     10  C   UNL     1       6.153   4.422  17.613  0.00  0.00    +0.000 A 
ATOM     11  C   UNL     1       6.708   5.388  16.780  0.00  0.00    +0.000 A 
ATOM     12  C   UNL     1       6.152   6.664  16.738  0.00  0.00    +0.000 A 
ATOM     13  C   UNL     1       5.036   6.973  17.524  0.00  0.00    +0.000 A 
ATOM     14  C   UNL     1       4.415   5.992  18.308  0.00  0.00    +0.000 A 
ENDROOT
BRANCH   1  17
ATOM     15  C   UNL     1       1.112   9.291  20.094  0.00  0.00    +0.000 A 
ATOM     16  C   UNL     1       1.924   8.152  20.152  0.00  0.00    +0.000 A 
ATOM     17  C   UNL     1       2.339   7.464  19.015  0.00  0.00    +0.000 A 
ATOM     18  C   UNL     1       2.066   8.016  17.766  0.00  0.00    +0.000 A 
ATOM     19  C   UNL     1       1.318   9.195  17.677  0.00  0.00    +0.000 A 
ATOM     20  C   UNL     1       0.816   9.835  18.830  0.00  0.00    +0.000 A 
ATOM     21  C   UNL     1       0.024  11.102  18.654  0.00  0.00    +0.000 C 
BRANCH  15  24
ATOM     22  C   UNL     1      -0.366   9.285  22.113  0.00  0.00    +0.000 C 
ATOM     23  O   UNL     1      -0.838   8.156  21.990  0.00  0.00    +0.000 OA
ATOM     24  N   UNL     1       0.581   9.868  21.282  0.00  0.00    +0.000 N 
ATOM     25  H   UNL     1       0.936  10.778  21.550  0.00  0.00    +0.000 HD
BRANCH  22  27
ATOM     26  C   UNL     1      -1.096  11.583  22.729  0.00  0.00    +0.000 C 
ATOM     27  C   UNL     1      -0.829  10.174  23.249  0.00  0.00    +0.000 C 
ENDBRANCH  22  27
ENDBRANCH  15  24
ENDBRANCH   1  17
TORSDOF 3
ENDMDL
MODEL 4
REMARK VINA RESULT:      -9.6      1.076      1.082
REMARK  Name = 
REMARK  6 active torsions:
REMARK  status: ('A' for Active; 'I' for Inactive)
REMARK    1  A    between atoms: C_1  and  C_2
REMARK    2  A    between atoms: C_2  and  C_3
REMARK    3  A    between atoms: N_5  and  C_6
REMARK    4  A    between atoms: C_8  and  C_9
REMARK    5  A    between atoms: C_12  and  C_13
REMARK    6  A    between atoms: C_25  and  C_26
REMARK                            x       y       z     vdW  Elec       q    Type
REMARK                         _______ _______ _______ _____ _____    ______ ____
ROOT
ATOM      1  C   UNL     1       2.931   6.036  18.370  0.00  0.00    +0.000 A 
ATOM      2  N   UNL     1       2.157   5.029  18.690  0.00  0.00    +0.000 NA
ATOM      3  N   UNL     1       2.645   3.786  18.418  0.00  0.00    +0.000 N 
ATOM      4  C   UNL     1       2.034   2.572  18.633  0.00  0.00    +0.000 A 
ATOM      5  C   UNL     1       0.695   2.416  19.233  0.00  0.00    +0.000 C 
ATOM      6  N   UNL     1       2.831   1.606  18.216  0.00  0.00    +0.000 NA
ATOM      7  N   UNL     1       3.975   2.183  17.713  0.00  0.00    +0.000 NA
ATOM      8  C   UNL     1       3.845   3.485  17.837  0.00  0.00    +0.000 A 
ATOM      9  C   UNL     1       4.745   4.555  17.487  0.00  0.00    +0.000 A 
ATOM     10  C   UNL     1       5.993   4.304  16.902  0.00  0.00    +0.000 A 
ATOM     11  C   UNL     1       6.847   5.360  16.604  0.00  0.00    +0.000 A 
ATOM     12  C   UNL     1       6.474   6.662  16.930  0.00  0.00    +0.000 A 
ATOM     13  C   UNL     1       5.242   6.908  17.549  0.00  0.00    +0.000 A 
ATOM     14  C   UNL     1       4.336   5.866  17.785  0.00  0.00    +0.000 A 
ENDROOT
BRANCH   1  17
ATOM     15  C   UNL     1       1.423   9.096  20.096  0.00  0.00    +0.000 A 
ATOM     16  C   UNL     1       2.045   7.864  19.859  0.00  0.00    +0.000 A 
ATOM     17  C   UNL     1       2.339   7.402  18.578  0.00  0.00    +0.000 A 
ATOM     18  C   UNL     1       2.148   8.263  17.500  0.00  0.00    +0.000 A 
ATOM     19  C   UNL     1       1.595   9.530  17.713  0.00  0.00    +0.000 A 
ATOM     20  C   UNL     1       1.209   9.956  19.002  0.00  0.00    +0.000 A 
ATOM     21  C   UNL     1       0.625  11.334  19.152  0.00  0.00    +0.000 C 
BRANCH  15  24
ATOM     22  C   UNL     1      -0.143   8.989  22.044  0.00  0.00    +0.000 C 
ATOM     23  O   UNL     1      -0.920   8.143  21.607  0.00  0.00    +0.000 OA
ATOM     24  N   UNL     1       0.998   9.457  21.405  0.00  0.00    +0.000 N 
ATOM     25  H   UNL     1       1.587  10.100  21.919  0.00  0.00    +0.000 HD
BRANCH  22  27
ATOM     26  C   UNL     1      -1.264  10.877  23.217  0.00  0.00    +0.000 C 
ATOM     27  C   UNL     1      -0.406   9.628  23.393  0.00  0.00    +0.000 C 
ENDBRANCH  22  27
ENDBRANCH  15  24
ENDBRANCH   1  17
TORSDOF 3
ENDMDL
MODEL 5
REMARK VINA RESULT:      -9.4      2.030      3.268
REMARK  Name = 
REMARK  6 active torsions:
REMARK  status: ('A' for Active; 'I' for Inactive)
REMARK    1  A    between atoms: C_1  and  C_2
REMARK    2  A    between atoms: C_2  and  C_3
REMARK    3  A    between atoms: N_5  and  C_6
REMARK    4  A    between atoms: C_8  and  C_9
REMARK    5  A    between atoms: C_12  and  C_13
REMARK    6  A    between atoms: C_25  and  C_26
REMARK                            x       y       z     vdW  Elec       q    Type
REMARK                         _______ _______ _______ _____ _____    ______ ____
ROOT
ATOM      1  C   UNL     1       3.470   6.515  18.288  0.00  0.00    +0.000 A 
ATOM      2  N   UNL     1       4.728   6.867  18.194  0.00  0.00    +0.000 NA
ATOM      3  N   UNL     1       5.633   5.851  18.125  0.00  0.00    +0.000 N 
ATOM      4  C   UNL     1       7.004   5.944  18.043  0.00  0.00    +0.000 A 
ATOM      5  C   UNL     1       7.745   7.219  18.000  0.00  0.00    +0.000 C 
ATOM      6  N   UNL     1       7.520   4.728  18.014  0.00  0.00    +0.000 NA
ATOM      7  N   UNL     1       6.484   3.823  18.087  0.00  0.00    +0.000 NA
ATOM      8  C   UNL     1       5.366   4.511  18.157  0.00  0.00    +0.000 A 
ATOM      9  C   UNL     1       3.997   4.069  18.236  0.00  0.00    +0.000 A 
ATOM     10  C   UNL     1       3.665   2.708  18.257  0.00  0.00    +0.000 A 
ATOM     11  C   UNL     1       2.330   2.318  18.305  0.00  0.00    +0.000 A 
ATOM     12  C   UNL     1       1.328   3.286  18.285  0.00  0.00    +0.000 A 
ATOM     13  C   UNL     1       1.661   4.644  18.225  0.00  0.00    +0.000 A 
ATOM     14  C   UNL     1       2.999   5.058  18.257  0.00  0.00    +0.000 A 
ENDROOT
BRANCH   1  17
ATOM     15  C   UNL     1       1.249   9.137  19.961  0.00  0.00    +0.000 A 
ATOM     16  C   UNL     1       2.208   8.142  19.737  0.00  0.00    +0.000 A 
ATOM     17  C   UNL     1       2.492   7.642  18.468  0.00  0.00    +0.000 A 
ATOM     18  C   UNL     1       1.913   8.260  17.364  0.00  0.00    +0.000 A 
ATOM     19  C   UNL     1       1.004   9.307  17.551  0.00  0.00    +0.000 A 
ATOM     20  C   UNL     1       0.645   9.746  18.844  0.00  0.00    +0.000 A 
ATOM     21  C   UNL     1      -0.335  10.880  18.965  0.00  0.00    +0.000 C 
BRANCH  15  24
ATOM     22  C   UNL     1      -0.152   8.938  22.025  0.00  0.00    +0.000 C 
ATOM     23  O   UNL     1      -0.851   7.988  21.679  0.00  0.00    +0.000 OA
ATOM     24  N   UNL     1       0.877   9.506  21.285  0.00  0.00    +0.000 N 
ATOM     25  H   UNL     1       1.420  10.236  21.729  0.00  0.00    +0.000 HD
BRANCH  22  27
ATOM     26  C   UNL     1      -1.206  10.878  23.173  0.00  0.00    +0.000 C 
ATOM     27  C   UNL     1      -0.393   9.602  23.366  0.00  0.00    +0.000 C 
ENDBRANCH  22  27
ENDBRANCH  15  24
ENDBRANCH   1  17
TORSDOF 3
ENDMDL
MODEL 6
REMARK VINA RESULT:      -9.1      2.870      4.422
REMARK  Name = 
REMARK  6 active torsions:
REMARK  status: ('A' for Active; 'I' for Inactive)
REMARK    1  A    between atoms: C_1  and  C_2
REMARK    2  A    between atoms: C_2  and  C_3
REMARK    3  A    between atoms: N_5  and  C_6
REMARK    4  A    between atoms: C_8  and  C_9
REMARK    5  A    between atoms: C_12  and  C_13
REMARK    6  A    between atoms: C_25  and  C_26
REMARK                            x       y       z     vdW  Elec       q    Type
REMARK                         _______ _______ _______ _____ _____    ______ ____
ROOT
ATOM      1  C   UNL     1       3.252   6.810  18.219  0.00  0.00    +0.000 A 
ATOM      2  N   UNL     1       4.438   7.309  17.977  0.00  0.00    +0.000 NA
ATOM      3  N   UNL     1       5.377   6.434  17.522  0.00  0.00    +0.000 N 
ATOM      4  C   UNL     1       6.694   6.690  17.212  0.00  0.00    +0.000 A 
ATOM      5  C   UNL     1       7.323   8.020  17.319  0.00  0.00    +0.000 C 
ATOM      6  N   UNL     1       7.274   5.570  16.822  0.00  0.00    +0.000 NA
ATOM      7  N   UNL     1       6.338   4.562  16.880  0.00  0.00    +0.000 NA
ATOM      8  C   UNL     1       5.213   5.095  17.304  0.00  0.00    +0.000 A 
ATOM      9  C   UNL     1       3.921   4.499  17.531  0.00  0.00    +0.000 A 
ATOM     10  C   UNL     1       3.692   3.134  17.311  0.00  0.00    +0.000 A 
ATOM     11  C   UNL     1       2.424   2.600  17.514  0.00  0.00    +0.000 A 
ATOM     12  C   UNL     1       1.376   3.435  17.893  0.00  0.00    +0.000 A 
ATOM     13  C   UNL     1       1.598   4.805  18.075  0.00  0.00    +0.000 A 
ATOM     14  C   UNL     1       2.884   5.348  17.953  0.00  0.00    +0.000 A 
ENDROOT
BRANCH   1  17
ATOM     15  C   UNL     1       0.506   9.452  18.520  0.00  0.00    +0.000 A 
ATOM     16  C   UNL     1       1.396   8.498  18.011  0.00  0.00    +0.000 A 
ATOM     17  C   UNL     1       2.257   7.762  18.821  0.00  0.00    +0.000 A 
ATOM     18  C   UNL     1       2.121   7.866  20.202  0.00  0.00    +0.000 A 
ATOM     19  C   UNL     1       1.190   8.758  20.744  0.00  0.00    +0.000 A 
ATOM     20  C   UNL     1       0.388   9.573  19.918  0.00  0.00    +0.000 A 
ATOM     21  C   UNL     1      -0.595  10.505  20.574  0.00  0.00    +0.000 C 
BRANCH  15  24
ATOM     22  C   UNL     1      -1.601  10.192  17.392  0.00  0.00    +0.000 C 
ATOM     23  O   UNL     1      -2.381   9.409  17.930  0.00  0.00    +0.000 OA
ATOM     24  N   UNL     1      -0.240  10.293  17.647  0.00  0.00    +0.000 N 
ATOM     25  H   UNL     1       0.266  11.038  17.183  0.00  0.00    +0.000 HD
BRANCH  22  27
ATOM     26  C   UNL     1      -2.952  10.398  15.312  0.00  0.00    +0.000 C 
ATOM     27  C   UNL     1      -2.109  11.152  16.335  0.00  0.00    +0.000 C 
ENDBRANCH  22  27
ENDBRANCH  15  24
ENDBRANCH   1  17
TORSDOF 3
ENDMDL
MODEL 7
REMARK VINA RESULT:      -9.0      2.291      4.036
REMARK  Name = 
REMARK  6 active torsions:
REMARK  status: ('A' for Active; 'I' for Inactive)
REMARK    1  A    between atoms: C_1  and  C_2
REMARK    2  A    between atoms: C_2  and  C_3
REMARK    3  A    between atoms: N_5  and  C_6
REMARK    4  A    between atoms: C_8  and  C_9
REMARK    5  A    between atoms: C_12  and  C_13
REMARK    6  A    between atoms: C_25  and  C_26
REMARK                            x       y       z     vdW  Elec       q    Type
REMARK                         _______ _______ _______ _____ _____    ______ ____
ROOT
ATOM      1  C   UNL     1       3.403   6.500  18.442  0.00  0.00    +0.000 A 
ATOM      2  N   UNL     1       4.574   7.008  18.146  0.00  0.00    +0.000 NA
ATOM      3  N   UNL     1       5.477   6.152  17.590  0.00  0.00    +0.000 N 
ATOM      4  C   UNL     1       6.771   6.420  17.208  0.00  0.00    +0.000 A 
ATOM      5  C   UNL     1       7.413   7.743  17.334  0.00  0.00    +0.000 C 
ATOM      6  N   UNL     1       7.320   5.318  16.730  0.00  0.00    +0.000 NA
ATOM      7  N   UNL     1       6.385   4.309  16.803  0.00  0.00    +0.000 NA
ATOM      8  C   UNL     1       5.293   4.825  17.324  0.00  0.00    +0.000 A 
ATOM      9  C   UNL     1       4.015   4.221  17.607  0.00  0.00    +0.000 A 
ATOM     10  C   UNL     1       3.766   2.868  17.341  0.00  0.00    +0.000 A 
ATOM     11  C   UNL     1       2.512   2.327  17.602  0.00  0.00    +0.000 A 
ATOM     12  C   UNL     1       1.494   3.146  18.086  0.00  0.00    +0.000 A 
ATOM     13  C   UNL     1       1.734   4.506  18.315  0.00  0.00    +0.000 A 
ATOM     14  C   UNL     1       3.012   5.052  18.134  0.00  0.00    +0.000 A 
ENDROOT
BRANCH   1  17
ATOM     15  C   UNL     1       1.161   9.508  19.171  0.00  0.00    +0.000 A 
ATOM     16  C   UNL     1       1.985   8.578  18.525  0.00  0.00    +0.000 A 
ATOM     17  C   UNL     1       2.454   7.425  19.149  0.00  0.00    +0.000 A 
ATOM     18  C   UNL     1       1.961   7.105  20.411  0.00  0.00    +0.000 A 
ATOM     19  C   UNL     1       1.078   7.979  21.055  0.00  0.00    +0.000 A 
ATOM     20  C   UNL     1       0.683   9.194  20.458  0.00  0.00    +0.000 A 
ATOM     21  C   UNL     1      -0.273  10.080  21.210  0.00  0.00    +0.000 C 
BRANCH  15  24
ATOM     22  C   UNL     1       1.329  11.993  18.924  0.00  0.00    +0.000 C 
ATOM     23  O   UNL     1       2.170  12.206  19.796  0.00  0.00    +0.000 OA
ATOM     24  N   UNL     1       0.837  10.748  18.552  0.00  0.00    +0.000 N 
ATOM     25  H   UNL     1       0.203  10.717  17.763  0.00  0.00    +0.000 HD
BRANCH  22  27
ATOM     26  C   UNL     1      -0.794  13.059  18.185  0.00  0.00    +0.000 C 
ATOM     27  C   UNL     1       0.728  13.154  18.158  0.00  0.00    +0.000 C 
ENDBRANCH  22  27
ENDBRANCH  15  24
ENDBRANCH   1  17
TORSDOF 3
ENDMDL
MODEL 8
REMARK VINA RESULT:      -8.8      1.244      3.237
REMARK  Name = 
REMARK  6 active torsions:
REMARK  status: ('A' for Active; 'I' for Inactive)
REMARK    1  A    between atoms: C_1  and  C_2
REMARK    2  A    between atoms: C_2  and  C_3
REMARK    3  A    between atoms: N_5  and  C_6
REMARK    4  A    between atoms: C_8  and  C_9
REMARK    5  A    between atoms: C_12  and  C_13
REMARK    6  A    between atoms: C_25  and  C_26
REMARK                            x       y       z     vdW  Elec       q    Type
REMARK                         _______ _______ _______ _____ _____    ______ ____
ROOT
ATOM      1  C   UNL     1       2.850   6.283  18.211  0.00  0.00    +0.000 A 
ATOM      2  N   UNL     1       3.715   6.209  17.231  0.00  0.00    +0.000 NA
ATOM      3  N   UNL     1       4.293   4.992  17.030  0.00  0.00    +0.000 N 
ATOM      4  C   UNL     1       5.239   4.650  16.091  0.00  0.00    +0.000 A 
ATOM      5  C   UNL     1       5.795   5.589  15.098  0.00  0.00    +0.000 C 
ATOM      6  N   UNL     1       5.554   3.375  16.236  0.00  0.00    +0.000 NA
ATOM      7  N   UNL     1       4.817   2.871  17.285  0.00  0.00    +0.000 NA
ATOM      8  C   UNL     1       4.074   3.851  17.749  0.00  0.00    +0.000 A 
ATOM      9  C   UNL     1       3.113   3.871  18.823  0.00  0.00    +0.000 A 
ATOM     10  C   UNL     1       2.839   2.727  19.584  0.00  0.00    +0.000 A 
ATOM     11  C   UNL     1       1.884   2.776  20.595  0.00  0.00    +0.000 A 
ATOM     12  C   UNL     1       1.174   3.954  20.816  0.00  0.00    +0.000 A 
ATOM     13  C   UNL     1       1.423   5.085  20.029  0.00  0.00    +0.000 A 
ATOM     14  C   UNL     1       2.435   5.078  19.060  0.00  0.00    +0.000 A 
ENDROOT
BRANCH   1  17
ATOM     15  C   UNL     1       1.049   9.166  19.960  0.00  0.00    +0.000 A 
ATOM     16  C   UNL     1       1.645   7.928  19.688  0.00  0.00    +0.000 A 
ATOM     17  C   UNL     1       2.299   7.653  18.490  0.00  0.00    +0.000 A 
ATOM     18  C   UNL     1       2.505   8.695  17.590  0.00  0.00    +0.000 A 
ATOM     19  C   UNL     1       1.984   9.964  17.866  0.00  0.00    +0.000 A 
ATOM     20  C   UNL     1       1.237  10.212  19.037  0.00  0.00    +0.000 A 
ATOM     21  C   UNL     1       0.713  11.604  19.266  0.00  0.00    +0.000 C 
BRANCH  15  24
ATOM     22  C   UNL     1       0.737   9.482  22.422  0.00  0.00    +0.000 C 
ATOM     23  O   UNL     1       1.921   9.524  22.752  0.00  0.00    +0.000 OA
ATOM     24  N   UNL     1       0.255   9.352  21.126  0.00  0.00    +0.000 N 
ATOM     25  H   UNL     1      -0.747   9.410  20.995  0.00  0.00    +0.000 HD
BRANCH  22  27
ATOM     26  C   UNL     1      -1.246  10.760  23.213  0.00  0.00    +0.000 C 
ATOM     27  C   UNL     1      -0.343   9.561  23.482  0.00  0.00    +0.000 C 
ENDBRANCH  22  27
ENDBRANCH  15  24
ENDBRANCH   1  17
TORSDOF 3
ENDMDL
MODEL 9
REMARK VINA RESULT:      -8.7      2.371      4.122
REMARK  Name = 
REMARK  6 active torsions:
REMARK  status: ('A' for Active; 'I' for Inactive)
REMARK    1  A    between atoms: C_1  and  C_2
REMARK    2  A    between atoms: C_2  and  C_3
REMARK    3  A    between atoms: N_5  and  C_6
REMARK    4  A    between atoms: C_8  and  C_9
REMARK    5  A    between atoms: C_12  and  C_13
REMARK    6  A    between atoms: C_25  and  C_26
REMARK                            x       y       z     vdW  Elec       q    Type
REMARK                         _______ _______ _______ _____ _____    ______ ____
ROOT
ATOM      1  C   UNL     1       3.286   6.471  18.552  0.00  0.00    +0.000 A 
ATOM      2  N   UNL     1       4.429   7.011  18.209  0.00  0.00    +0.000 NA
ATOM      3  N   UNL     1       5.314   6.193  17.574  0.00  0.00    +0.000 N 
ATOM      4  C   UNL     1       6.580   6.499  17.129  0.00  0.00    +0.000 A 
ATOM      5  C   UNL     1       7.205   7.829  17.265  0.00  0.00    +0.000 C 
ATOM      6  N   UNL     1       7.120   5.424  16.583  0.00  0.00    +0.000 NA
ATOM      7  N   UNL     1       6.208   4.396  16.673  0.00  0.00    +0.000 NA
ATOM      8  C   UNL     1       5.139   4.872  17.271  0.00  0.00    +0.000 A 
ATOM      9  C   UNL     1       3.890   4.235  17.605  0.00  0.00    +0.000 A 
ATOM     10  C   UNL     1       3.650   2.887  17.306  0.00  0.00    +0.000 A 
ATOM     11  C   UNL     1       2.421   2.313  17.617  0.00  0.00    +0.000 A 
ATOM     12  C   UNL     1       1.419   3.095  18.185  0.00  0.00    +0.000 A 
ATOM     13  C   UNL     1       1.647   4.451  18.449  0.00  0.00    +0.000 A 
ATOM     14  C   UNL     1       2.903   5.027  18.216  0.00  0.00    +0.000 A 
ENDROOT
BRANCH   1  17
ATOM     15  C   UNL     1       1.002   9.388  19.493  0.00  0.00    +0.000 A 
ATOM     16  C   UNL     1       1.806   8.496  18.773  0.00  0.00    +0.000 A 
ATOM     17  C   UNL     1       2.362   7.354  19.343  0.00  0.00    +0.000 A 
ATOM     18  C   UNL     1       1.981   7.001  20.635  0.00  0.00    +0.000 A 
ATOM     19  C   UNL     1       1.120   7.836  21.357  0.00  0.00    +0.000 A 
ATOM     20  C   UNL     1       0.637   9.043  20.809  0.00  0.00    +0.000 A 
ATOM     21  C   UNL     1      -0.289   9.885  21.644  0.00  0.00    +0.000 C 
BRANCH  15  24
ATOM     22  C   UNL     1      -0.672  10.890  18.398  0.00  0.00    +0.000 C 
ATOM     23  O   UNL     1      -1.638  10.129  18.415  0.00  0.00    +0.000 OA
ATOM     24  N   UNL     1       0.587  10.622  18.919  0.00  0.00    +0.000 N 
ATOM     25  H   UNL     1       1.266  11.373  18.902  0.00  0.00    +0.000 HD
BRANCH  22  27
ATOM     26  C   UNL     1       0.097  13.256  18.473  0.00  0.00    +0.000 C 
ATOM     27  C   UNL     1      -0.800  12.255  17.752  0.00  0.00    +0.000 C 
ENDBRANCH  22  27
ENDBRANCH  15  24
ENDBRANCH   1  17
TORSDOF 3
ENDMDL
