MODEL 1
REMARK VINA RESULT:      -7.8      0.000      0.000
REMARK  Name = 
REMARK  10 active torsions:
REMARK  status: ('A' for Active; 'I' for Inactive)
REMARK    1  A    between atoms: C_1  and  O_2
REMARK    2  A    between atoms: O_2  and  C_3
REMARK    3  A    between atoms: C_3  and  C_4
REMARK    4  A    between atoms: C_4  and  N_5
REMARK    5  A    between atoms: C_4  and  C_9
REMARK    6  A    between atoms: C_6  and  C_7
REMARK    7  A    between atoms: N_11  and  C_12
REMARK    8  A    between atoms: C_12  and  C_13
REMARK    9  A    between atoms: C_16  and  C_17
REMARK   10  A    between atoms: C_18  and  C_19
REMARK                            x       y       z     vdW  Elec       q    Type
REMARK                         _______ _______ _______ _____ _____    ______ ____
ROOT
ATOM      1  C   UNL     1       1.936   8.312  18.732  0.00  0.00    +0.000 A 
ATOM      2  C   UNL     1       1.167   9.348  18.181  0.00  0.00    +0.000 A 
ATOM      3  C   UNL     1       0.336  10.134  18.994  0.00  0.00    +0.000 A 
ATOM      4  C   UNL     1       0.265   9.900  20.368  0.00  0.00    +0.000 A 
ATOM      5  C   UNL     1       0.999   8.849  20.921  0.00  0.00    +0.000 A 
ATOM      6  C   UNL     1       1.832   8.062  20.109  0.00  0.00    +0.000 A 
ENDROOT
BRANCH   4   7
ATOM      7  C   UNL     1      -0.514  10.765  21.212  0.00  0.00    +0.000 C 
ATOM      8  C   UNL     1      -1.108  11.512  21.942  0.00  0.00    +0.000 C 
BRANCH   8   9
ATOM      9  C   UNL     1      -1.757  12.433  22.832  0.00  0.00    +0.000 A 
ATOM     10  C   UNL     1      -1.111  13.611  23.224  0.00  0.00    +0.000 A 
ATOM     11  C   UNL     1      -1.727  14.489  24.126  0.00  0.00    +0.000 A 
ATOM     12  C   UNL     1      -2.987  14.189  24.636  0.00  0.00    +0.000 A 
ATOM     13  C   UNL     1      -3.625  13.022  24.236  0.00  0.00    +0.000 A 
ATOM     14  F   UNL     1      -4.837  12.733  24.731  0.00  0.00    +0.000 F 
ATOM     15  C   UNL     1      -3.026  12.140  23.338  0.00  0.00    +0.000 A 
ENDBRANCH   8   9
ENDBRANCH   4   7
BRANCH   1  16
ATOM     16  C   UNL     1       2.858   7.487  17.866  0.00  0.00    +0.000 C 
BRANCH  16  19
ATOM     17  C   UNL     1       4.288   5.495  18.018  0.00  0.00    +0.000 C 
ATOM     18  O   UNL     1       4.289   5.362  16.793  0.00  0.00    +0.000 OA
ATOM     19  N   UNL     1       3.703   6.589  18.632  0.00  0.00    +0.000 N 
ATOM     20  H   UNL     1       3.666   6.621  19.644  0.00  0.00    +0.000 HD
BRANCH  17  21
ATOM     21  C   UNL     1       5.082   4.532  18.925  0.00  0.00    +0.000 C 
BRANCH  21  22
ATOM     22  N   UNL     1       6.298   4.073  18.249  0.00  0.00    +0.000 N 
ATOM     23  C   UNL     1       7.494   4.720  18.114  0.00  0.00    +0.000 C 
ATOM     24  C   UNL     1       7.681   6.105  18.682  0.00  0.00    +0.000 C 
ATOM     25  O   UNL     1       8.408   4.147  17.530  0.00  0.00    +0.000 OA
ATOM     26  H   UNL     1       6.347   3.105  17.955  0.00  0.00    +0.000 HD
ENDBRANCH  21  22
BRANCH  21  27
ATOM     27  C   UNL     1       4.173   3.358  19.329  0.00  0.00    +0.000 C 
BRANCH  27  29
ATOM     28  C   UNL     1       1.904   2.831  18.875  0.00  0.00    +0.000 C 
ATOM     29  O   UNL     1       2.812   3.806  19.373  0.00  0.00    +0.000 OA
ENDBRANCH  27  29
ENDBRANCH  21  27
ENDBRANCH  17  21
ENDBRANCH  16  19
ENDBRANCH   1  16
TORSDOF 8
ENDMDL
MODEL 2
REMARK VINA RESULT:      -7.7      0.930      1.313
REMARK  Name = 
REMARK  10 active torsions:
REMARK  status: ('A' for Active; 'I' for Inactive)
REMARK    1  A    between atoms: C_1  and  O_2
REMARK    2  A    between atoms: O_2  and  C_3
REMARK    3  A    between atoms: C_3  and  C_4
REMARK    4  A    between atoms: C_4  and  N_5
REMARK    5  A    between atoms: C_4  and  C_9
REMARK    6  A    between atoms: C_6  and  C_7
REMARK    7  A    between atoms: N_11  and  C_12
REMARK    8  A    between atoms: C_12  and  C_13
REMARK    9  A    between atoms: C_16  and  C_17
REMARK   10  A    between atoms: C_18  and  C_19
REMARK                            x       y       z     vdW  Elec       q    Type
REMARK                         _______ _______ _______ _____ _____    ______ ____
ROOT
ATOM      1  C   UNL     1       1.993   8.224  18.845  0.00  0.00    +0.000 A 
ATOM      2  C   UNL     1       1.415   9.420  18.396  0.00  0.00    +0.000 A 
ATOM      3  C   UNL     1       0.633  10.206  19.256  0.00  0.00    +0.000 A 
ATOM      4  C   UNL     1       0.421   9.810  20.578  0.00  0.00    +0.000 A 
ATOM      5  C   UNL     1       0.962   8.603  21.024  0.00  0.00    +0.000 A 
ATOM      6  C   UNL     1       1.746   7.816  20.165  0.00  0.00    +0.000 A 
ENDROOT
BRANCH   4   7
ATOM      7  C   UNL     1      -0.302  10.661  21.484  0.00  0.00    +0.000 C 
ATOM      8  C   UNL     1      -0.914  11.416  22.191  0.00  0.00    +0.000 C 
BRANCH   8   9
ATOM      9  C   UNL     1      -1.657  12.356  22.980  0.00  0.00    +0.000 A 
ATOM     10  C   UNL     1      -2.971  12.069  23.370  0.00  0.00    +0.000 A 
ATOM     11  C   UNL     1      -3.711  13.005  24.104  0.00  0.00    +0.000 A 
ATOM     12  C   UNL     1      -3.140  14.227  24.447  0.00  0.00    +0.000 A 
ATOM     13  C   UNL     1      -1.833  14.502  24.063  0.00  0.00    +0.000 A 
ATOM     14  F   UNL     1      -1.286  15.681  24.391  0.00  0.00    +0.000 F 
ATOM     15  C   UNL     1      -1.084  13.580  23.335  0.00  0.00    +0.000 A 
ENDBRANCH   8   9
ENDBRANCH   4   7
BRANCH   1  16
ATOM     16  C   UNL     1       2.864   7.394  17.932  0.00  0.00    +0.000 C 
BRANCH  16  19
ATOM     17  C   UNL     1       4.228   5.359  18.115  0.00  0.00    +0.000 C 
ATOM     18  O   UNL     1       3.980   5.047  16.950  0.00  0.00    +0.000 OA
ATOM     19  N   UNL     1       3.814   6.566  18.651  0.00  0.00    +0.000 N 
ATOM     20  H   UNL     1       3.981   6.749  19.634  0.00  0.00    +0.000 HD
BRANCH  17  21
ATOM     21  C   UNL     1       5.154   4.491  18.992  0.00  0.00    +0.000 C 
BRANCH  21  22
ATOM     22  N   UNL     1       6.314   4.036  18.223  0.00  0.00    +0.000 N 
ATOM     23  C   UNL     1       7.462   4.716  17.929  0.00  0.00    +0.000 C 
ATOM     24  C   UNL     1       7.646   6.139  18.395  0.00  0.00    +0.000 C 
ATOM     25  O   UNL     1       8.336   4.142  17.288  0.00  0.00    +0.000 OA
ATOM     26  H   UNL     1       6.374   3.054  17.981  0.00  0.00    +0.000 HD
ENDBRANCH  21  22
BRANCH  21  27
ATOM     27  C   UNL     1       4.346   3.311  19.562  0.00  0.00    +0.000 C 
BRANCH  27  29
ATOM     28  C   UNL     1       2.046   2.764  19.346  0.00  0.00    +0.000 C 
ATOM     29  O   UNL     1       2.994   3.730  19.789  0.00  0.00    +0.000 OA
ENDBRANCH  27  29
ENDBRANCH  21  27
ENDBRANCH  17  21
ENDBRANCH  16  19
ENDBRANCH   1  16
TORSDOF 8
ENDMDL
MODEL 3
REMARK VINA RESULT:      -7.7      0.632      1.114
REMARK  Name = 
REMARK  10 active torsions:
REMARK  status: ('A' for Active; 'I' for Inactive)
REMARK    1  A    between atoms: C_1  and  O_2
REMARK    2  A    between atoms: O_2  and  C_3
REMARK    3  A    between atoms: C_3  and  C_4
REMARK    4  A    between atoms: C_4  and  N_5
REMARK    5  A    between atoms: C_4  and  C_9
REMARK    6  A    between atoms: C_6  and  C_7
REMARK    7  A    between atoms: N_11  and  C_12
REMARK    8  A    between atoms: C_12  and  C_13
REMARK    9  A    between atoms: C_16  and  C_17
REMARK   10  A    between atoms: C_18  and  C_19
REMARK                            x       y       z     vdW  Elec       q    Type
REMARK                         _______ _______ _______ _____ _____    ______ ____
ROOT
ATOM      1  C   UNL     1       1.924   8.483  18.862  0.00  0.00    +0.000 A 
ATOM      2  C   UNL     1       1.668   8.146  20.199  0.00  0.00    +0.000 A 
ATOM      3  C   UNL     1       0.908   8.994  21.019  0.00  0.00    +0.000 A 
ATOM      4  C   UNL     1       0.389  10.187  20.514  0.00  0.00    +0.000 A 
ATOM      5  C   UNL     1       0.668  10.549  19.195  0.00  0.00    +0.000 A 
ATOM      6  C   UNL     1       1.427   9.701  18.372  0.00  0.00    +0.000 A 
ENDROOT
BRANCH   4   7
ATOM      7  C   UNL     1      -0.466  11.010  21.327  0.00  0.00    +0.000 C 
ATOM      8  C   UNL     1      -1.134  11.694  22.054  0.00  0.00    +0.000 C 
BRANCH   8   9
ATOM      9  C   UNL     1      -1.878  12.515  22.966  0.00  0.00    +0.000 A 
ATOM     10  C   UNL     1      -1.390  13.772  23.344  0.00  0.00    +0.000 A 
ATOM     11  C   UNL     1      -2.096  14.555  24.268  0.00  0.00    +0.000 A 
ATOM     12  C   UNL     1      -3.286  14.084  24.813  0.00  0.00    +0.000 A 
ATOM     13  C   UNL     1      -3.768  12.839  24.426  0.00  0.00    +0.000 A 
ATOM     14  F   UNL     1      -4.913  12.384  24.954  0.00  0.00    +0.000 F 
ATOM     15  C   UNL     1      -3.078  12.050  23.507  0.00  0.00    +0.000 A 
ENDBRANCH   8   9
ENDBRANCH   4   7
BRANCH   1  16
ATOM     16  C   UNL     1       2.712   7.555  17.967  0.00  0.00    +0.000 C 
BRANCH  16  19
ATOM     17  C   UNL     1       4.292   5.676  18.032  0.00  0.00    +0.000 C 
ATOM     18  O   UNL     1       4.422   5.699  16.808  0.00  0.00    +0.000 OA
ATOM     19  N   UNL     1       3.556   6.635  18.706  0.00  0.00    +0.000 N 
ATOM     20  H   UNL     1       3.420   6.536  19.705  0.00  0.00    +0.000 HD
BRANCH  17  21
ATOM     21  C   UNL     1       5.078   4.668  18.898  0.00  0.00    +0.000 C 
BRANCH  21  22
ATOM     22  N   UNL     1       6.248   4.169  18.172  0.00  0.00    +0.000 N 
ATOM     23  C   UNL     1       7.491   4.725  18.074  0.00  0.00    +0.000 C 
ATOM     24  C   UNL     1       7.794   6.040  18.749  0.00  0.00    +0.000 C 
ATOM     25  O   UNL     1       8.352   4.129  17.435  0.00  0.00    +0.000 OA
ATOM     26  H   UNL     1       6.215   3.226  17.801  0.00  0.00    +0.000 HD
ENDBRANCH  21  22
BRANCH  21  27
ATOM     27  C   UNL     1       4.135   3.528  19.322  0.00  0.00    +0.000 C 
BRANCH  27  29
ATOM     28  C   UNL     1       3.623   1.366  18.483  0.00  0.00    +0.000 C 
ATOM     29  O   UNL     1       3.792   2.745  18.171  0.00  0.00    +0.000 OA
ENDBRANCH  27  29
ENDBRANCH  21  27
ENDBRANCH  17  21
ENDBRANCH  16  19
ENDBRANCH   1  16
TORSDOF 8
ENDMDL
MODEL 4
REMARK VINA RESULT:      -7.7      7.199      8.981
REMARK  Name = 
REMARK  10 active torsions:
REMARK  status: ('A' for Active; 'I' for Inactive)
REMARK    1  A    between atoms: C_1  and  O_2
REMARK    2  A    between atoms: O_2  and  C_3
REMARK    3  A    between atoms: C_3  and  C_4
REMARK    4  A    between atoms: C_4  and  N_5
REMARK    5  A    between atoms: C_4  and  C_9
REMARK    6  A    between atoms: C_6  and  C_7
REMARK    7  A    between atoms: N_11  and  C_12
REMARK    8  A    between atoms: C_12  and  C_13
REMARK    9  A    between atoms: C_16  and  C_17
REMARK   10  A    between atoms: C_18  and  C_19
REMARK                            x       y       z     vdW  Elec       q    Type
REMARK                         _______ _______ _______ _____ _____    ______ ____
ROOT
ATOM      1  C   UNL     1       6.554   5.358  17.773  0.00  0.00    +0.000 A 
ATOM      2  C   UNL     1       6.148   6.460  17.006  0.00  0.00    +0.000 A 
ATOM      3  C   UNL     1       6.776   7.707  17.155  0.00  0.00    +0.000 A 
ATOM      4  C   UNL     1       7.820   7.868  18.068  0.00  0.00    +0.000 A 
ATOM      5  C   UNL     1       8.207   6.786  18.861  0.00  0.00    +0.000 A 
ATOM      6  C   UNL     1       7.581   5.538  18.712  0.00  0.00    +0.000 A 
ENDROOT
BRANCH   4   7
ATOM      7  C   UNL     1       8.523   9.120  18.153  0.00  0.00    +0.000 C 
ATOM      8  C   UNL     1       9.054  10.196  18.203  0.00  0.00    +0.000 C 
BRANCH   8   9
ATOM      9  C   UNL     1       9.629  11.510  18.250  0.00  0.00    +0.000 A 
ATOM     10  C   UNL     1      10.962  11.685  18.642  0.00  0.00    +0.000 A 
ATOM     11  C   UNL     1      11.510  12.972  18.729  0.00  0.00    +0.000 A 
ATOM     12  C   UNL     1      10.728  14.082  18.425  0.00  0.00    +0.000 A 
ATOM     13  C   UNL     1       9.408  13.900  18.029  0.00  0.00    +0.000 A 
ATOM     14  F   UNL     1       8.655  14.970  17.741  0.00  0.00    +0.000 F 
ATOM     15  C   UNL     1       8.850  12.626  17.936  0.00  0.00    +0.000 A 
ENDBRANCH   8   9
ENDBRANCH   4   7
BRANCH   1  16
ATOM     16  C   UNL     1       5.904   4.006  17.590  0.00  0.00    +0.000 C 
BRANCH  16  19
ATOM     17  C   UNL     1       4.189   2.637  18.693  0.00  0.00    +0.000 C 
ATOM     18  O   UNL     1       3.913   2.071  17.634  0.00  0.00    +0.000 OA
ATOM     19  N   UNL     1       5.245   3.527  18.790  0.00  0.00    +0.000 N 
ATOM     20  H   UNL     1       5.392   4.020  19.663  0.00  0.00    +0.000 HD
BRANCH  17  21
ATOM     21  C   UNL     1       3.475   2.261  20.008  0.00  0.00    +0.000 C 
BRANCH  21  22
ATOM     22  N   UNL     1       2.521   3.303  20.392  0.00  0.00    +0.000 N 
ATOM     23  C   UNL     1       1.246   3.500  19.941  0.00  0.00    +0.000 C 
ATOM     24  C   UNL     1       0.659   2.589  18.892  0.00  0.00    +0.000 C 
ATOM     25  O   UNL     1       0.593   4.424  20.414  0.00  0.00    +0.000 OA
ATOM     26  H   UNL     1       2.742   3.886  21.191  0.00  0.00    +0.000 HD
ENDBRANCH  21  22
BRANCH  21  27
ATOM     27  C   UNL     1       4.530   2.019  21.102  0.00  0.00    +0.000 C 
BRANCH  27  29
ATOM     28  C   UNL     1       5.912   0.192  21.728  0.00  0.00    +0.000 C 
ATOM     29  O   UNL     1       5.448   1.010  20.659  0.00  0.00    +0.000 OA
ENDBRANCH  27  29
ENDBRANCH  21  27
ENDBRANCH  17  21
ENDBRANCH  16  19
ENDBRANCH   1  16
TORSDOF 8
ENDMDL
MODEL 5
REMARK VINA RESULT:      -7.7      1.686      2.796
REMARK  Name = 
REMARK  10 active torsions:
REMARK  status: ('A' for Active; 'I' for Inactive)
REMARK    1  A    between atoms: C_1  and  O_2
REMARK    2  A    between atoms: O_2  and  C_3
REMARK    3  A    between atoms: C_3  and  C_4
REMARK    4  A    between atoms: C_4  and  N_5
REMARK    5  A    between atoms: C_4  and  C_9
REMARK    6  A    between atoms: C_6  and  C_7
REMARK    7  A    between atoms: N_11  and  C_12
REMARK    8  A    between atoms: C_12  and  C_13
REMARK    9  A    between atoms: C_16  and  C_17
REMARK   10  A    between atoms: C_18  and  C_19
REMARK                            x       y       z     vdW  Elec       q    Type
REMARK                         _______ _______ _______ _____ _____    ______ ____
ROOT
ATOM      1  C   UNL     1       1.961   8.407  18.842  0.00  0.00    +0.000 A 
ATOM      2  C   UNL     1       1.295   9.505  18.280  0.00  0.00    +0.000 A 
ATOM      3  C   UNL     1       0.486  10.335  19.071  0.00  0.00    +0.000 A 
ATOM      4  C   UNL     1       0.336  10.082  20.435  0.00  0.00    +0.000 A 
ATOM      5  C   UNL     1       0.966   8.970  20.998  0.00  0.00    +0.000 A 
ATOM      6  C   UNL     1       1.777   8.140  20.208  0.00  0.00    +0.000 A 
ENDROOT
BRANCH   4   7
ATOM      7  C   UNL     1      -0.418  10.986  21.263  0.00  0.00    +0.000 C 
ATOM      8  C   UNL     1      -1.062  11.688  21.994  0.00  0.00    +0.000 C 
BRANCH   8   9
ATOM      9  C   UNL     1      -1.838  12.475  22.909  0.00  0.00    +0.000 A 
ATOM     10  C   UNL     1      -1.390  13.740  23.310  0.00  0.00    +0.000 A 
ATOM     11  C   UNL     1      -2.127  14.489  24.237  0.00  0.00    +0.000 A 
ATOM     12  C   UNL     1      -3.308  13.976  24.764  0.00  0.00    +0.000 A 
ATOM     13  C   UNL     1      -3.751  12.724  24.355  0.00  0.00    +0.000 A 
ATOM     14  F   UNL     1      -4.887  12.229  24.866  0.00  0.00    +0.000 F 
ATOM     15  C   UNL     1      -3.030  11.968  23.433  0.00  0.00    +0.000 A 
ENDBRANCH   8   9
ENDBRANCH   4   7
BRANCH   1  16
ATOM     16  C   UNL     1       2.860   7.532  18.000  0.00  0.00    +0.000 C 
BRANCH  16  19
ATOM     17  C   UNL     1       3.494   5.258  18.681  0.00  0.00    +0.000 C 
ATOM     18  O   UNL     1       4.499   5.675  19.259  0.00  0.00    +0.000 OA
ATOM     19  N   UNL     1       2.560   6.118  18.130  0.00  0.00    +0.000 N 
ATOM     20  H   UNL     1       1.785   5.729  17.605  0.00  0.00    +0.000 HD
BRANCH  17  21
ATOM     21  C   UNL     1       3.140   3.757  18.683  0.00  0.00    +0.000 C 
BRANCH  21  22
ATOM     22  N   UNL     1       3.362   3.177  20.010  0.00  0.00    +0.000 N 
ATOM     23  C   UNL     1       2.452   2.952  21.004  0.00  0.00    +0.000 C 
ATOM     24  C   UNL     1       1.005   3.335  20.816  0.00  0.00    +0.000 C 
ATOM     25  O   UNL     1       2.837   2.424  22.043  0.00  0.00    +0.000 OA
ATOM     26  H   UNL     1       4.259   2.747  20.202  0.00  0.00    +0.000 HD
ENDBRANCH  21  22
BRANCH  21  27
ATOM     27  C   UNL     1       3.968   3.043  17.600  0.00  0.00    +0.000 C 
BRANCH  27  29
ATOM     28  C   UNL     1       5.535   3.865  16.017  0.00  0.00    +0.000 C 
ATOM     29  O   UNL     1       4.202   3.946  16.512  0.00  0.00    +0.000 OA
ENDBRANCH  27  29
ENDBRANCH  21  27
ENDBRANCH  17  21
ENDBRANCH  16  19
ENDBRANCH   1  16
TORSDOF 8
ENDMDL
MODEL 6
REMARK VINA RESULT:      -7.6      0.921      1.601
REMARK  Name = 
REMARK  10 active torsions:
REMARK  status: ('A' for Active; 'I' for Inactive)
REMARK    1  A    between atoms: C_1  and  O_2
REMARK    2  A    between atoms: O_2  and  C_3
REMARK    3  A    between atoms: C_3  and  C_4
REMARK    4  A    between atoms: C_4  and  N_5
REMARK    5  A    between atoms: C_4  and  C_9
REMARK    6  A    between atoms: C_6  and  C_7
REMARK    7  A    between atoms: N_11  and  C_12
REMARK    8  A    between atoms: C_12  and  C_13
REMARK    9  A    between atoms: C_16  and  C_17
REMARK   10  A    between atoms: C_18  and  C_19
REMARK                            x       y       z     vdW  Elec       q    Type
REMARK                         _______ _______ _______ _____ _____    ______ ____
ROOT
ATOM      1  C   UNL     1       1.866   8.430  18.820  0.00  0.00    +0.000 A 
ATOM      2  C   UNL     1       1.740   8.173  20.193  0.00  0.00    +0.000 A 
ATOM      3  C   UNL     1       0.998   9.032  21.018  0.00  0.00    +0.000 A 
ATOM      4  C   UNL     1       0.369  10.157  20.482  0.00  0.00    +0.000 A 
ATOM      5  C   UNL     1       0.518  10.441  19.123  0.00  0.00    +0.000 A 
ATOM      6  C   UNL     1       1.259   9.581  18.296  0.00  0.00    +0.000 A 
ENDROOT
BRANCH   4   7
ATOM      7  C   UNL     1      -0.467  10.985  21.309  0.00  0.00    +0.000 C 
ATOM      8  C   UNL     1      -1.115  11.680  22.044  0.00  0.00    +0.000 C 
BRANCH   8   9
ATOM      9  C   UNL     1      -1.833  12.518  22.962  0.00  0.00    +0.000 A 
ATOM     10  C   UNL     1      -3.093  12.130  23.434  0.00  0.00    +0.000 A 
ATOM     11  C   UNL     1      -3.813  12.968  24.296  0.00  0.00    +0.000 A 
ATOM     12  C   UNL     1      -3.276  14.192  24.685  0.00  0.00    +0.000 A 
ATOM     13  C   UNL     1      -2.022  14.566  24.218  0.00  0.00    +0.000 A 
ATOM     14  F   UNL     1      -1.507  15.746  24.590  0.00  0.00    +0.000 F 
ATOM     15  C   UNL     1      -1.294  13.742  23.362  0.00  0.00    +0.000 A 
ENDBRANCH   8   9
ENDBRANCH   4   7
BRANCH   1  16
ATOM     16  C   UNL     1       2.635   7.487  17.924  0.00  0.00    +0.000 C 
BRANCH  16  19
ATOM     17  C   UNL     1       4.305   5.687  17.983  0.00  0.00    +0.000 C 
ATOM     18  O   UNL     1       4.533   5.813  16.779  0.00  0.00    +0.000 OA
ATOM     19  N   UNL     1       3.465   6.553  18.661  0.00  0.00    +0.000 N 
ATOM     20  H   UNL     1       3.254   6.369  19.635  0.00  0.00    +0.000 HD
BRANCH  17  21
ATOM     21  C   UNL     1       5.071   4.653  18.834  0.00  0.00    +0.000 C 
BRANCH  21  22
ATOM     22  N   UNL     1       6.257   4.175  18.120  0.00  0.00    +0.000 N 
ATOM     23  C   UNL     1       7.501   4.734  18.063  0.00  0.00    +0.000 C 
ATOM     24  C   UNL     1       7.789   6.030  18.781  0.00  0.00    +0.000 C 
ATOM     25  O   UNL     1       8.376   4.157  17.426  0.00  0.00    +0.000 OA
ATOM     26  H   UNL     1       6.233   3.243  17.722  0.00  0.00    +0.000 HD
ENDBRANCH  21  22
BRANCH  21  27
ATOM     27  C   UNL     1       4.120   3.501  19.203  0.00  0.00    +0.000 C 
BRANCH  27  29
ATOM     28  C   UNL     1       1.772   3.407  19.539  0.00  0.00    +0.000 C 
ATOM     29  O   UNL     1       2.824   3.761  18.648  0.00  0.00    +0.000 OA
ENDBRANCH  27  29
ENDBRANCH  21  27
ENDBRANCH  17  21
ENDBRANCH  16  19
ENDBRANCH   1  16
TORSDOF 8
ENDMDL
MODEL 7
REMARK VINA RESULT:      -7.5      6.809      8.913
REMARK  Name = 
REMARK  10 active torsions:
REMARK  status: ('A' for Active; 'I' for Inactive)
REMARK    1  A    between atoms: C_1  and  O_2
REMARK    2  A    between atoms: O_2  and  C_3
REMARK    3  A    between atoms: C_3  and  C_4
REMARK    4  A    between atoms: C_4  and  N_5
REMARK    5  A    between atoms: C_4  and  C_9
REMARK    6  A    between atoms: C_6  and  C_7
REMARK    7  A    between atoms: N_11  and  C_12
REMARK    8  A    between atoms: C_12  and  C_13
REMARK    9  A    between atoms: C_16  and  C_17
REMARK   10  A    between atoms: C_18  and  C_19
REMARK                            x       y       z     vdW  Elec       q    Type
REMARK                         _______ _______ _______ _____ _____    ______ ____
ROOT
ATOM      1  C   UNL     1       5.897   4.937  17.001  0.00  0.00    +0.000 A 
ATOM      2  C   UNL     1       7.103   4.863  17.713  0.00  0.00    +0.000 A 
ATOM      3  C   UNL     1       7.835   6.024  18.007  0.00  0.00    +0.000 A 
ATOM      4  C   UNL     1       7.370   7.274  17.598  0.00  0.00    +0.000 A 
ATOM      5  C   UNL     1       6.189   7.356  16.857  0.00  0.00    +0.000 A 
ATOM      6  C   UNL     1       5.455   6.195  16.564  0.00  0.00    +0.000 A 
ENDROOT
BRANCH   4   7
ATOM      7  C   UNL     1       8.071   8.471  17.979  0.00  0.00    +0.000 C 
ATOM      8  C   UNL     1       8.651   9.451  18.362  0.00  0.00    +0.000 C 
BRANCH   8   9
ATOM      9  C   UNL     1       9.342  10.596  18.882  0.00  0.00    +0.000 A 
ATOM     10  C   UNL     1       9.460  10.782  20.265  0.00  0.00    +0.000 A 
ATOM     11  C   UNL     1      10.097  11.922  20.773  0.00  0.00    +0.000 A 
ATOM     12  C   UNL     1      10.616  12.875  19.902  0.00  0.00    +0.000 A 
ATOM     13  C   UNL     1      10.502  12.679  18.530  0.00  0.00    +0.000 A 
ATOM     14  F   UNL     1      10.999  13.599  17.692  0.00  0.00    +0.000 F 
ATOM     15  C   UNL     1       9.873  11.550  18.010  0.00  0.00    +0.000 A 
ENDBRANCH   8   9
ENDBRANCH   4   7
BRANCH   1  16
ATOM     16  C   UNL     1       5.090   3.693  16.714  0.00  0.00    +0.000 C 
BRANCH  16  19
ATOM     17  C   UNL     1       3.305   2.743  18.109  0.00  0.00    +0.000 C 
ATOM     18  O   UNL     1       2.481   2.874  17.203  0.00  0.00    +0.000 OA
ATOM     19  N   UNL     1       4.649   3.012  17.917  0.00  0.00    +0.000 N 
ATOM     20  H   UNL     1       5.278   2.956  18.710  0.00  0.00    +0.000 HD
BRANCH  17  21
ATOM     21  C   UNL     1       2.909   2.114  19.461  0.00  0.00    +0.000 C 
BRANCH  21  22
ATOM     22  N   UNL     1       1.668   2.710  19.963  0.00  0.00    +0.000 N 
ATOM     23  C   UNL     1       1.417   4.015  20.276  0.00  0.00    +0.000 C 
ATOM     24  C   UNL     1       2.501   5.055  20.142  0.00  0.00    +0.000 C 
ATOM     25  O   UNL     1       0.292   4.321  20.657  0.00  0.00    +0.000 OA
ATOM     26  H   UNL     1       0.827   2.145  19.956  0.00  0.00    +0.000 HD
ENDBRANCH  21  22
BRANCH  21  27
ATOM     27  C   UNL     1       4.071   2.286  20.455  0.00  0.00    +0.000 C 
BRANCH  27  29
ATOM     28  C   UNL     1       5.625   0.850  21.531  0.00  0.00    +0.000 C 
ATOM     29  O   UNL     1       4.988   1.195  20.305  0.00  0.00    +0.000 OA
ENDBRANCH  27  29
ENDBRANCH  21  27
ENDBRANCH  17  21
ENDBRANCH  16  19
ENDBRANCH   1  16
TORSDOF 8
ENDMDL
MODEL 8
REMARK VINA RESULT:      -7.5      2.017      3.133
REMARK  Name = 
REMARK  10 active torsions:
REMARK  status: ('A' for Active; 'I' for Inactive)
REMARK    1  A    between atoms: C_1  and  O_2
REMARK    2  A    between atoms: O_2  and  C_3
REMARK    3  A    between atoms: C_3  and  C_4
REMARK    4  A    between atoms: C_4  and  N_5
REMARK    5  A    between atoms: C_4  and  C_9
REMARK    6  A    between atoms: C_6  and  C_7
REMARK    7  A    between atoms: N_11  and  C_12
REMARK    8  A    between atoms: C_12  and  C_13
REMARK    9  A    between atoms: C_16  and  C_17
REMARK   10  A    between atoms: C_18  and  C_19
REMARK                            x       y       z     vdW  Elec       q    Type
REMARK                         _______ _______ _______ _____ _____    ______ ____
ROOT
ATOM      1  C   UNL     1       2.587   5.797  18.674  0.00  0.00    +0.000 A 
ATOM      2  C   UNL     1       2.131   5.710  19.997  0.00  0.00    +0.000 A 
ATOM      3  C   UNL     1       1.653   6.848  20.666  0.00  0.00    +0.000 A 
ATOM      4  C   UNL     1       1.620   8.085  20.021  0.00  0.00    +0.000 A 
ATOM      5  C   UNL     1       2.105   8.189  18.716  0.00  0.00    +0.000 A 
ATOM      6  C   UNL     1       2.582   7.051  18.045  0.00  0.00    +0.000 A 
ENDROOT
BRANCH   4   7
ATOM      7  C   UNL     1       1.044   9.230  20.675  0.00  0.00    +0.000 C 
ATOM      8  C   UNL     1       0.506  10.172  21.190  0.00  0.00    +0.000 C 
BRANCH   8   9
ATOM      9  C   UNL     1      -0.197  11.275  21.780  0.00  0.00    +0.000 A 
ATOM     10  C   UNL     1       0.254  12.586  21.584  0.00  0.00    +0.000 A 
ATOM     11  C   UNL     1      -0.407  13.660  22.195  0.00  0.00    +0.000 A 
ATOM     12  C   UNL     1      -1.516  13.425  23.001  0.00  0.00    +0.000 A 
ATOM     13  C   UNL     1      -1.964  12.122  23.184  0.00  0.00    +0.000 A 
ATOM     14  F   UNL     1      -3.031  11.897  23.963  0.00  0.00    +0.000 F 
ATOM     15  C   UNL     1      -1.318  11.045  22.581  0.00  0.00    +0.000 A 
ENDBRANCH   8   9
ENDBRANCH   4   7
BRANCH   1  16
ATOM     16  C   UNL     1       3.069   4.568  17.939  0.00  0.00    +0.000 C 
BRANCH  16  19
ATOM     17  C   UNL     1       5.521   4.482  17.825  0.00  0.00    +0.000 C 
ATOM     18  O   UNL     1       5.581   3.839  18.874  0.00  0.00    +0.000 OA
ATOM     19  N   UNL     1       4.313   4.785  17.223  0.00  0.00    +0.000 N 
ATOM     20  H   UNL     1       4.309   5.375  16.399  0.00  0.00    +0.000 HD
BRANCH  17  21
ATOM     21  C   UNL     1       6.799   4.844  17.038  0.00  0.00    +0.000 C 
BRANCH  21  22
ATOM     22  N   UNL     1       6.859   6.286  16.790  0.00  0.00    +0.000 N 
ATOM     23  C   UNL     1       7.474   7.254  17.534  0.00  0.00    +0.000 C 
ATOM     24  C   UNL     1       8.195   6.893  18.809  0.00  0.00    +0.000 C 
ATOM     25  O   UNL     1       7.433   8.414  17.136  0.00  0.00    +0.000 OA
ATOM     26  H   UNL     1       6.540   6.632  15.893  0.00  0.00    +0.000 HD
ENDBRANCH  21  22
BRANCH  21  27
ATOM     27  C   UNL     1       6.829   4.036  15.729  0.00  0.00    +0.000 C 
BRANCH  27  29
ATOM     28  C   UNL     1       5.893   3.953  13.549  0.00  0.00    +0.000 C 
ATOM     29  O   UNL     1       5.800   4.514  14.853  0.00  0.00    +0.000 OA
ENDBRANCH  27  29
ENDBRANCH  21  27
ENDBRANCH  17  21
ENDBRANCH  16  19
ENDBRANCH   1  16
TORSDOF 8
ENDMDL
MODEL 9
REMARK VINA RESULT:      -7.4      2.339      3.568
REMARK  Name = 
REMARK  10 active torsions:
REMARK  status: ('A' for Active; 'I' for Inactive)
REMARK    1  A    between atoms: C_1  and  O_2
REMARK    2  A    between atoms: O_2  and  C_3
REMARK    3  A    between atoms: C_3  and  C_4
REMARK    4  A    between atoms: C_4  and  N_5
REMARK    5  A    between atoms: C_4  and  C_9
REMARK    6  A    between atoms: C_6  and  C_7
REMARK    7  A    between atoms: N_11  and  C_12
REMARK    8  A    between atoms: C_12  and  C_13
REMARK    9  A    between atoms: C_16  and  C_17
REMARK   10  A    between atoms: C_18  and  C_19
REMARK                            x       y       z     vdW  Elec       q    Type
REMARK                         _______ _______ _______ _____ _____    ______ ____
ROOT
ATOM      1  C   UNL     1       2.887   5.365  18.774  0.00  0.00    +0.000 A 
ATOM      2  C   UNL     1       2.902   6.588  18.089  0.00  0.00    +0.000 A 
ATOM      3  C   UNL     1       2.317   7.732  18.653  0.00  0.00    +0.000 A 
ATOM      4  C   UNL     1       1.714   7.671  19.910  0.00  0.00    +0.000 A 
ATOM      5  C   UNL     1       1.663   6.450  20.585  0.00  0.00    +0.000 A 
ATOM      6  C   UNL     1       2.249   5.304  20.022  0.00  0.00    +0.000 A 
ENDROOT
BRANCH   4   7
ATOM      7  C   UNL     1       1.198   8.863  20.527  0.00  0.00    +0.000 C 
ATOM      8  C   UNL     1       0.708   9.828  21.049  0.00  0.00    +0.000 C 
BRANCH   8   9
ATOM      9  C   UNL     1       0.067  10.942  21.688  0.00  0.00    +0.000 A 
ATOM     10  C   UNL     1      -0.920  10.729  22.658  0.00  0.00    +0.000 A 
ATOM     11  C   UNL     1      -1.576  11.817  23.250  0.00  0.00    +0.000 A 
ATOM     12  C   UNL     1      -1.248  13.115  22.872  0.00  0.00    +0.000 A 
ATOM     13  C   UNL     1      -0.262  13.319  21.914  0.00  0.00    +0.000 A 
ATOM     14  F   UNL     1       0.051  14.570  21.549  0.00  0.00    +0.000 F 
ATOM     15  C   UNL     1       0.401  12.247  21.319  0.00  0.00    +0.000 A 
ENDBRANCH   8   9
ENDBRANCH   4   7
BRANCH   1  16
ATOM     16  C   UNL     1       3.547   4.139  18.185  0.00  0.00    +0.000 C 
BRANCH  16  19
ATOM     17  C   UNL     1       5.955   4.541  17.914  0.00  0.00    +0.000 C 
ATOM     18  O   UNL     1       6.183   4.156  19.061  0.00  0.00    +0.000 OA
ATOM     19  N   UNL     1       4.693   4.456  17.353  0.00  0.00    +0.000 N 
ATOM     20  H   UNL     1       4.538   4.848  16.431  0.00  0.00    +0.000 HD
BRANCH  17  21
ATOM     21  C   UNL     1       7.101   4.988  16.981  0.00  0.00    +0.000 C 
BRANCH  21  22
ATOM     22  N   UNL     1       7.054   6.436  16.766  0.00  0.00    +0.000 N 
ATOM     23  C   UNL     1       7.576   7.430  17.544  0.00  0.00    +0.000 C 
ATOM     24  C   UNL     1       8.296   7.096  18.827  0.00  0.00    +0.000 C 
ATOM     25  O   UNL     1       7.454   8.592  17.171  0.00  0.00    +0.000 OA
ATOM     26  H   UNL     1       6.728   6.777  15.870  0.00  0.00    +0.000 HD
ENDBRANCH  21  22
BRANCH  21  27
ATOM     27  C   UNL     1       7.004   4.208  15.658  0.00  0.00    +0.000 C 
BRANCH  27  29
ATOM     28  C   UNL     1       5.653   4.093  13.710  0.00  0.00    +0.000 C 
ATOM     29  O   UNL     1       6.162   4.925  14.746  0.00  0.00    +0.000 OA
ENDBRANCH  27  29
ENDBRANCH  21  27
ENDBRANCH  17  21
ENDBRANCH  16  19
ENDBRANCH   1  16
TORSDOF 8
ENDMDL
