MODEL 1
REMARK VINA RESULT:      -7.6      0.000      0.000
REMARK  Name = 
REMARK  6 active torsions:
REMARK  status: ('A' for Active; 'I' for Inactive)
REMARK    1  A    between atoms: C_1  and  N_2
REMARK    2  A    between atoms: N_5  and  C_6
REMARK    3  A    between atoms: C_6  and  C_7
REMARK    4  A    between atoms: C_6  and  C_8
REMARK    5  A    between atoms: C_6  and  C_9
REMARK    6  A    between atoms: N_11  and  C_12
REMARK                            x       y       z     vdW  Elec       q    Type
REMARK                         _______ _______ _______ _____ _____    ______ ____
ROOT
ATOM      1  C   UNL     1       5.680   5.430  17.258  0.00  0.00    +0.000 C 
ATOM      2  O   UNL     1       4.845   6.329  17.158  0.00  0.00    +0.000 OA
ATOM      3  N   UNL     1       5.461   4.226  17.921  0.00  0.00    +0.000 N 
ATOM      4  H   UNL     1       6.284   3.704  18.192  0.00  0.00    +0.000 HD
ENDROOT
BRANCH   3   5
ATOM      5  C   UNL     1       4.210   3.774  18.423  0.00  0.00    +0.000 A 
ATOM      6  C   UNL     1       3.170   3.339  17.580  0.00  0.00    +0.000 A 
ATOM      7  C   UNL     1       1.922   2.969  18.088  0.00  0.00    +0.000 A 
ATOM      8  C   UNL     1       1.728   3.018  19.454  0.00  0.00    +0.000 A 
ATOM      9  C   UNL     1       2.762   3.410  20.311  0.00  0.00    +0.000 A 
ATOM     10  C   UNL     1       4.009   3.780  19.812  0.00  0.00    +0.000 A 
ATOM     11  C   UNL     1       2.273   3.453  21.727  0.00  0.00    +0.000 C 
ATOM     12  C   UNL     1       0.998   2.599  21.638  0.00  0.00    +0.000 C 
ATOM     13  C   UNL     1       0.463   2.756  20.208  0.00  0.00    +0.000 C 
ENDBRANCH   3   5
BRANCH   1  14
ATOM     14  C   UNL     1       7.147   5.656  16.783  0.00  0.00    +0.000 C 
ATOM     15  C   UNL     1       8.014   4.561  17.423  0.00  0.00    +0.000 C 
ATOM     16  C   UNL     1       7.582   7.047  17.286  0.00  0.00    +0.000 C 
BRANCH  14  21
ATOM     17  C   UNL     1       6.467   3.554  12.387  0.00  0.00    +0.000 C 
ATOM     18  N   UNL     1       6.934   4.590  13.273  0.00  0.00    +0.000 N 
ATOM     19  C   UNL     1       6.705   4.495  14.613  0.00  0.00    +0.000 C 
ATOM     20  O   UNL     1       6.090   3.566  15.122  0.00  0.00    +0.000 OA
ATOM     21  N   UNL     1       7.206   5.567  15.309  0.00  0.00    +0.000 N 
ATOM     22  H   UNL     1       7.498   5.336  12.902  0.00  0.00    +0.000 HD
ATOM     23  H   UNL     1       7.921   6.108  14.843  0.00  0.00    +0.000 HD
ENDBRANCH  14  21
ENDBRANCH   1  14
TORSDOF 3
ENDMDL
MODEL 2
REMARK VINA RESULT:      -7.4      1.408      2.953
REMARK  Name = 
REMARK  6 active torsions:
REMARK  status: ('A' for Active; 'I' for Inactive)
REMARK    1  A    between atoms: C_1  and  N_2
REMARK    2  A    between atoms: N_5  and  C_6
REMARK    3  A    between atoms: C_6  and  C_7
REMARK    4  A    between atoms: C_6  and  C_8
REMARK    5  A    between atoms: C_6  and  C_9
REMARK    6  A    between atoms: N_11  and  C_12
REMARK                            x       y       z     vdW  Elec       q    Type
REMARK                         _______ _______ _______ _____ _____    ______ ____
ROOT
ATOM      1  C   UNL     1       5.548   5.186  16.970  0.00  0.00    +0.000 C 
ATOM      2  O   UNL     1       4.757   6.130  16.933  0.00  0.00    +0.000 OA
ATOM      3  N   UNL     1       5.317   3.996  17.653  0.00  0.00    +0.000 N 
ATOM      4  H   UNL     1       6.129   3.429  17.862  0.00  0.00    +0.000 HD
ENDROOT
BRANCH   3   5
ATOM      5  C   UNL     1       4.086   3.612  18.254  0.00  0.00    +0.000 A 
ATOM      6  C   UNL     1       2.968   3.213  17.497  0.00  0.00    +0.000 A 
ATOM      7  C   UNL     1       1.745   2.911  18.102  0.00  0.00    +0.000 A 
ATOM      8  C   UNL     1       1.655   2.992  19.477  0.00  0.00    +0.000 A 
ATOM      9  C   UNL     1       2.765   3.349  20.249  0.00  0.00    +0.000 A 
ATOM     10  C   UNL     1       3.989   3.651  19.653  0.00  0.00    +0.000 A 
ATOM     11  C   UNL     1       2.384   3.439  21.695  0.00  0.00    +0.000 C 
ATOM     12  C   UNL     1       1.068   2.645  21.716  0.00  0.00    +0.000 C 
ATOM     13  C   UNL     1       0.437   2.803  20.326  0.00  0.00    +0.000 C 
ENDBRANCH   3   5
BRANCH   1  14
ATOM     14  C   UNL     1       6.983   5.333  16.381  0.00  0.00    +0.000 C 
ATOM     15  C   UNL     1       6.944   4.820  14.934  0.00  0.00    +0.000 C 
ATOM     16  C   UNL     1       7.921   4.456  17.236  0.00  0.00    +0.000 C 
BRANCH  14  21
ATOM     17  C   UNL     1       8.522   9.508  18.481  0.00  0.00    +0.000 C 
ATOM     18  N   UNL     1       8.057   8.702  17.380  0.00  0.00    +0.000 N 
ATOM     19  C   UNL     1       7.810   7.375  17.564  0.00  0.00    +0.000 C 
ATOM     20  O   UNL     1       7.985   6.804  18.634  0.00  0.00    +0.000 OA
ATOM     21  N   UNL     1       7.385   6.755  16.416  0.00  0.00    +0.000 N 
ATOM     22  H   UNL     1       7.840   9.145  16.503  0.00  0.00    +0.000 HD
ATOM     23  H   UNL     1       7.011   7.356  15.695  0.00  0.00    +0.000 HD
ENDBRANCH  14  21
ENDBRANCH   1  14
TORSDOF 3
ENDMDL
MODEL 3
REMARK VINA RESULT:      -7.4      4.103      5.389
REMARK  Name = 
REMARK  6 active torsions:
REMARK  status: ('A' for Active; 'I' for Inactive)
REMARK    1  A    between atoms: C_1  and  N_2
REMARK    2  A    between atoms: N_5  and  C_6
REMARK    3  A    between atoms: C_6  and  C_7
REMARK    4  A    between atoms: C_6  and  C_8
REMARK    5  A    between atoms: C_6  and  C_9
REMARK    6  A    between atoms: N_11  and  C_12
REMARK                            x       y       z     vdW  Elec       q    Type
REMARK                         _______ _______ _______ _____ _____    ______ ____
ROOT
ATOM      1  C   UNL     1       2.550   4.345  19.084  0.00  0.00    +0.000 C 
ATOM      2  O   UNL     1       1.566   4.221  18.354  0.00  0.00    +0.000 OA
ATOM      3  N   UNL     1       3.071   5.568  19.496  0.00  0.00    +0.000 N 
ATOM      4  H   UNL     1       4.025   5.562  19.834  0.00  0.00    +0.000 HD
ENDROOT
BRANCH   3   5
ATOM      5  C   UNL     1       2.461   6.837  19.297  0.00  0.00    +0.000 A 
ATOM      6  C   UNL     1       2.548   7.534  18.077  0.00  0.00    +0.000 A 
ATOM      7  C   UNL     1       2.005   8.813  17.925  0.00  0.00    +0.000 A 
ATOM      8  C   UNL     1       1.354   9.383  19.000  0.00  0.00    +0.000 A 
ATOM      9  C   UNL     1       1.225   8.690  20.209  0.00  0.00    +0.000 A 
ATOM     10  C   UNL     1       1.762   7.414  20.368  0.00  0.00    +0.000 A 
ATOM     11  C   UNL     1       0.551   9.554  21.231  0.00  0.00    +0.000 C 
ATOM     12  C   UNL     1      -0.101  10.628  20.345  0.00  0.00    +0.000 C 
ATOM     13  C   UNL     1       0.780  10.761  19.096  0.00  0.00    +0.000 C 
ENDBRANCH   3   5
BRANCH   1  14
ATOM     14  C   UNL     1       3.414   3.106  19.467  0.00  0.00    +0.000 C 
ATOM     15  C   UNL     1       3.058   1.975  18.490  0.00  0.00    +0.000 C 
ATOM     16  C   UNL     1       3.035   2.710  20.908  0.00  0.00    +0.000 C 
BRANCH  14  21
ATOM     17  C   UNL     1       7.490   4.655  17.187  0.00  0.00    +0.000 C 
ATOM     18  N   UNL     1       6.746   4.129  18.304  0.00  0.00    +0.000 N 
ATOM     19  C   UNL     1       5.399   3.951  18.203  0.00  0.00    +0.000 C 
ATOM     20  O   UNL     1       4.760   4.240  17.198  0.00  0.00    +0.000 OA
ATOM     21  N   UNL     1       4.846   3.453  19.356  0.00  0.00    +0.000 N 
ATOM     22  H   UNL     1       7.243   3.819  19.123  0.00  0.00    +0.000 HD
ATOM     23  H   UNL     1       5.482   2.994  19.995  0.00  0.00    +0.000 HD
ENDBRANCH  14  21
ENDBRANCH   1  14
TORSDOF 3
ENDMDL
MODEL 4
REMARK VINA RESULT:      -7.3      3.931      4.852
REMARK  Name = 
REMARK  6 active torsions:
REMARK  status: ('A' for Active; 'I' for Inactive)
REMARK    1  A    between atoms: C_1  and  N_2
REMARK    2  A    between atoms: N_5  and  C_6
REMARK    3  A    between atoms: C_6  and  C_7
REMARK    4  A    between atoms: C_6  and  C_8
REMARK    5  A    between atoms: C_6  and  C_9
REMARK    6  A    between atoms: N_11  and  C_12
REMARK                            x       y       z     vdW  Elec       q    Type
REMARK                         _______ _______ _______ _____ _____    ______ ____
ROOT
ATOM      1  C   UNL     1       2.719   4.341  18.351  0.00  0.00    +0.000 C 
ATOM      2  O   UNL     1       1.773   4.370  17.564  0.00  0.00    +0.000 OA
ATOM      3  N   UNL     1       3.171   5.441  19.074  0.00  0.00    +0.000 N 
ATOM      4  H   UNL     1       4.110   5.381  19.448  0.00  0.00    +0.000 HD
ENDROOT
BRANCH   3   5
ATOM      5  C   UNL     1       2.519   6.702  19.156  0.00  0.00    +0.000 A 
ATOM      6  C   UNL     1       2.484   7.607  18.078  0.00  0.00    +0.000 A 
ATOM      7  C   UNL     1       1.902   8.871  18.203  0.00  0.00    +0.000 A 
ATOM      8  C   UNL     1       1.337   9.218  19.414  0.00  0.00    +0.000 A 
ATOM      9  C   UNL     1       1.329   8.318  20.485  0.00  0.00    +0.000 A 
ATOM     10  C   UNL     1       1.906   7.055  20.368  0.00  0.00    +0.000 A 
ATOM     11  C   UNL     1       0.730   8.962  21.698  0.00  0.00    +0.000 C 
ATOM     12  C   UNL     1      -0.020  10.151  21.076  0.00  0.00    +0.000 C 
ATOM     13  C   UNL     1       0.744  10.536  19.802  0.00  0.00    +0.000 C 
ENDBRANCH   3   5
BRANCH   1  14
ATOM     14  C   UNL     1       3.616   3.071  18.466  0.00  0.00    +0.000 C 
ATOM     15  C   UNL     1       2.684   1.854  18.562  0.00  0.00    +0.000 C 
ATOM     16  C   UNL     1       4.447   3.213  19.757  0.00  0.00    +0.000 C 
BRANCH  14  21
ATOM     17  C   UNL     1       6.951   4.624  15.200  0.00  0.00    +0.000 C 
ATOM     18  N   UNL     1       5.989   3.691  15.731  0.00  0.00    +0.000 N 
ATOM     19  C   UNL     1       5.352   3.964  16.904  0.00  0.00    +0.000 C 
ATOM     20  O   UNL     1       5.569   4.972  17.564  0.00  0.00    +0.000 OA
ATOM     21  N   UNL     1       4.479   2.970  17.271  0.00  0.00    +0.000 N 
ATOM     22  H   UNL     1       5.736   2.883  15.187  0.00  0.00    +0.000 HD
ATOM     23  H   UNL     1       4.174   2.348  16.535  0.00  0.00    +0.000 HD
ENDBRANCH  14  21
ENDBRANCH   1  14
TORSDOF 3
ENDMDL
MODEL 5
REMARK VINA RESULT:      -7.2      1.184      1.781
REMARK  Name = 
REMARK  6 active torsions:
REMARK  status: ('A' for Active; 'I' for Inactive)
REMARK    1  A    between atoms: C_1  and  N_2
REMARK    2  A    between atoms: N_5  and  C_6
REMARK    3  A    between atoms: C_6  and  C_7
REMARK    4  A    between atoms: C_6  and  C_8
REMARK    5  A    between atoms: C_6  and  C_9
REMARK    6  A    between atoms: N_11  and  C_12
REMARK                            x       y       z     vdW  Elec       q    Type
REMARK                         _______ _______ _______ _____ _____    ______ ____
ROOT
ATOM      1  C   UNL     1       5.748   6.408  17.735  0.00  0.00    +0.000 C 
ATOM      2  O   UNL     1       4.899   7.195  17.316  0.00  0.00    +0.000 OA
ATOM      3  N   UNL     1       5.481   5.359  18.609  0.00  0.00    +0.000 N 
ATOM      4  H   UNL     1       6.273   4.974  19.108  0.00  0.00    +0.000 HD
ENDROOT
BRANCH   3   5
ATOM      5  C   UNL     1       4.188   4.923  19.009  0.00  0.00    +0.000 A 
ATOM      6  C   UNL     1       3.419   5.616  19.964  0.00  0.00    +0.000 A 
ATOM      7  C   UNL     1       2.183   5.131  20.398  0.00  0.00    +0.000 A 
ATOM      8  C   UNL     1       1.710   3.953  19.854  0.00  0.00    +0.000 A 
ATOM      9  C   UNL     1       2.443   3.271  18.876  0.00  0.00    +0.000 A 
ATOM     10  C   UNL     1       3.676   3.749  18.437  0.00  0.00    +0.000 A 
ATOM     11  C   UNL     1       1.753   1.992  18.511  0.00  0.00    +0.000 C 
ATOM     12  C   UNL     1       0.332   2.248  19.036  0.00  0.00    +0.000 C 
ATOM     13  C   UNL     1       0.469   3.207  20.227  0.00  0.00    +0.000 C 
ENDBRANCH   3   5
BRANCH   1  14
ATOM     14  C   UNL     1       7.261   6.646  17.443  0.00  0.00    +0.000 C 
ATOM     15  C   UNL     1       8.062   5.731  18.381  0.00  0.00    +0.000 C 
ATOM     16  C   UNL     1       7.560   8.126  17.754  0.00  0.00    +0.000 C 
BRANCH  14  21
ATOM     17  C   UNL     1       6.935   4.020  13.296  0.00  0.00    +0.000 C 
ATOM     18  N   UNL     1       7.437   5.092  14.119  0.00  0.00    +0.000 N 
ATOM     19  C   UNL     1       6.974   5.247  15.391  0.00  0.00    +0.000 C 
ATOM     20  O   UNL     1       6.117   4.525  15.883  0.00  0.00    +0.000 OA
ATOM     21  N   UNL     1       7.546   6.318  16.031  0.00  0.00    +0.000 N 
ATOM     22  H   UNL     1       8.187   5.667  13.773  0.00  0.00    +0.000 HD
ATOM     23  H   UNL     1       8.419   6.654  15.648  0.00  0.00    +0.000 HD
ENDBRANCH  14  21
ENDBRANCH   1  14
TORSDOF 3
ENDMDL
MODEL 6
REMARK VINA RESULT:      -7.0      3.730      4.849
REMARK  Name = 
REMARK  6 active torsions:
REMARK  status: ('A' for Active; 'I' for Inactive)
REMARK    1  A    between atoms: C_1  and  N_2
REMARK    2  A    between atoms: N_5  and  C_6
REMARK    3  A    between atoms: C_6  and  C_7
REMARK    4  A    between atoms: C_6  and  C_8
REMARK    5  A    between atoms: C_6  and  C_9
REMARK    6  A    between atoms: N_11  and  C_12
REMARK                            x       y       z     vdW  Elec       q    Type
REMARK                         _______ _______ _______ _____ _____    ______ ____
ROOT
ATOM      1  C   UNL     1       5.051   6.212  17.269  0.00  0.00    +0.000 C 
ATOM      2  O   UNL     1       5.735   7.215  17.475  0.00  0.00    +0.000 OA
ATOM      3  N   UNL     1       3.721   6.077  17.656  0.00  0.00    +0.000 N 
ATOM      4  H   UNL     1       3.358   5.134  17.705  0.00  0.00    +0.000 HD
ENDROOT
BRANCH   3   5
ATOM      5  C   UNL     1       2.902   7.115  18.179  0.00  0.00    +0.000 A 
ATOM      6  C   UNL     1       2.570   8.263  17.434  0.00  0.00    +0.000 A 
ATOM      7  C   UNL     1       1.825   9.306  17.992  0.00  0.00    +0.000 A 
ATOM      8  C   UNL     1       1.397   9.183  19.298  0.00  0.00    +0.000 A 
ATOM      9  C   UNL     1       1.685   8.034  20.041  0.00  0.00    +0.000 A 
ATOM     10  C   UNL     1       2.426   6.989  19.493  0.00  0.00    +0.000 A 
ATOM     11  C   UNL     1       1.179   8.183  21.444  0.00  0.00    +0.000 C 
ATOM     12  C   UNL     1       0.172   9.333  21.286  0.00  0.00    +0.000 C 
ATOM     13  C   UNL     1       0.672  10.200  20.122  0.00  0.00    +0.000 C 
ENDBRANCH   3   5
BRANCH   1  14
ATOM     14  C   UNL     1       5.699   4.915  16.696  0.00  0.00    +0.000 C 
ATOM     15  C   UNL     1       7.199   4.966  17.020  0.00  0.00    +0.000 C 
ATOM     16  C   UNL     1       5.478   4.928  15.170  0.00  0.00    +0.000 C 
BRANCH  14  21
ATOM     17  C   UNL     1       4.450   1.955  20.422  0.00  0.00    +0.000 C 
ATOM     18  N   UNL     1       4.523   2.336  19.034  0.00  0.00    +0.000 N 
ATOM     19  C   UNL     1       5.093   3.523  18.682  0.00  0.00    +0.000 C 
ATOM     20  O   UNL     1       5.541   4.317  19.500  0.00  0.00    +0.000 OA
ATOM     21  N   UNL     1       5.073   3.734  17.326  0.00  0.00    +0.000 N 
ATOM     22  H   UNL     1       4.225   1.683  18.329  0.00  0.00    +0.000 HD
ATOM     23  H   UNL     1       4.949   2.915  16.747  0.00  0.00    +0.000 HD
ENDBRANCH  14  21
ENDBRANCH   1  14
TORSDOF 3
ENDMDL
MODEL 7
REMARK VINA RESULT:      -7.0      3.902      5.092
REMARK  Name = 
REMARK  6 active torsions:
REMARK  status: ('A' for Active; 'I' for Inactive)
REMARK    1  A    between atoms: C_1  and  N_2
REMARK    2  A    between atoms: N_5  and  C_6
REMARK    3  A    between atoms: C_6  and  C_7
REMARK    4  A    between atoms: C_6  and  C_8
REMARK    5  A    between atoms: C_6  and  C_9
REMARK    6  A    between atoms: N_11  and  C_12
REMARK                            x       y       z     vdW  Elec       q    Type
REMARK                         _______ _______ _______ _____ _____    ______ ____
ROOT
ATOM      1  C   UNL     1       2.729   4.314  18.468  0.00  0.00    +0.000 C 
ATOM      2  O   UNL     1       1.745   4.413  17.735  0.00  0.00    +0.000 OA
ATOM      3  N   UNL     1       3.203   5.335  19.287  0.00  0.00    +0.000 N 
ATOM      4  H   UNL     1       4.159   5.250  19.608  0.00  0.00    +0.000 HD
ENDROOT
BRANCH   3   5
ATOM      5  C   UNL     1       2.540   6.567  19.542  0.00  0.00    +0.000 A 
ATOM      6  C   UNL     1       1.823   6.807  20.729  0.00  0.00    +0.000 A 
ATOM      7  C   UNL     1       1.116   7.996  20.929  0.00  0.00    +0.000 A 
ATOM      8  C   UNL     1       1.148   8.955  19.935  0.00  0.00    +0.000 A 
ATOM      9  C   UNL     1       1.885   8.749  18.765  0.00  0.00    +0.000 A 
ATOM     10  C   UNL     1       2.594   7.566  18.559  0.00  0.00    +0.000 A 
ATOM     11  C   UNL     1       1.692   9.898  17.822  0.00  0.00    +0.000 C 
ATOM     12  C   UNL     1       1.148  10.981  18.766  0.00  0.00    +0.000 C 
ATOM     13  C   UNL     1       0.403  10.251  19.892  0.00  0.00    +0.000 C 
ENDBRANCH   3   5
BRANCH   1  14
ATOM     14  C   UNL     1       3.647   3.056  18.397  0.00  0.00    +0.000 C 
ATOM     15  C   UNL     1       2.737   1.819  18.420  0.00  0.00    +0.000 C 
ATOM     16  C   UNL     1       4.553   3.078  19.644  0.00  0.00    +0.000 C 
BRANCH  14  21
ATOM     17  C   UNL     1       6.871   4.930  15.188  0.00  0.00    +0.000 C 
ATOM     18  N   UNL     1       5.894   3.970  15.638  0.00  0.00    +0.000 N 
ATOM     19  C   UNL     1       5.336   4.095  16.875  0.00  0.00    +0.000 C 
ATOM     20  O   UNL     1       5.639   4.986  17.658  0.00  0.00    +0.000 OA
ATOM     21  N   UNL     1       4.437   3.095  17.149  0.00  0.00    +0.000 N 
ATOM     22  H   UNL     1       5.572   3.260  15.001  0.00  0.00    +0.000 HD
ATOM     23  H   UNL     1       4.062   2.599  16.351  0.00  0.00    +0.000 HD
ENDBRANCH  14  21
ENDBRANCH   1  14
TORSDOF 3
ENDMDL
MODEL 8
REMARK VINA RESULT:      -7.0      3.896      4.699
REMARK  Name = 
REMARK  6 active torsions:
REMARK  status: ('A' for Active; 'I' for Inactive)
REMARK    1  A    between atoms: C_1  and  N_2
REMARK    2  A    between atoms: N_5  and  C_6
REMARK    3  A    between atoms: C_6  and  C_7
REMARK    4  A    between atoms: C_6  and  C_8
REMARK    5  A    between atoms: C_6  and  C_9
REMARK    6  A    between atoms: N_11  and  C_12
REMARK                            x       y       z     vdW  Elec       q    Type
REMARK                         _______ _______ _______ _____ _____    ______ ____
ROOT
ATOM      1  C   UNL     1       3.971   4.997  18.892  0.00  0.00    +0.000 C 
ATOM      2  O   UNL     1       4.767   5.575  19.631  0.00  0.00    +0.000 OA
ATOM      3  N   UNL     1       2.713   5.488  18.557  0.00  0.00    +0.000 N 
ATOM      4  H   UNL     1       2.045   4.816  18.199  0.00  0.00    +0.000 HD
ENDROOT
BRANCH   3   5
ATOM      5  C   UNL     1       2.225   6.789  18.860  0.00  0.00    +0.000 A 
ATOM      6  C   UNL     1       2.180   7.821  17.903  0.00  0.00    +0.000 A 
ATOM      7  C   UNL     1       1.767   9.112  18.239  0.00  0.00    +0.000 A 
ATOM      8  C   UNL     1       1.378   9.361  19.541  0.00  0.00    +0.000 A 
ATOM      9  C   UNL     1       1.380   8.339  20.496  0.00  0.00    +0.000 A 
ATOM     10  C   UNL     1       1.790   7.048  20.168  0.00  0.00    +0.000 A 
ATOM     11  C   UNL     1       0.994   8.883  21.837  0.00  0.00    +0.000 C 
ATOM     12  C   UNL     1       0.325  10.212  21.449  0.00  0.00    +0.000 C 
ATOM     13  C   UNL     1       0.988  10.673  20.144  0.00  0.00    +0.000 C 
ENDBRANCH   3   5
BRANCH   1  14
ATOM     14  C   UNL     1       4.256   3.544  18.403  0.00  0.00    +0.000 C 
ATOM     15  C   UNL     1       3.026   3.074  17.611  0.00  0.00    +0.000 C 
ATOM     16  C   UNL     1       4.454   2.669  19.657  0.00  0.00    +0.000 C 
BRANCH  14  21
ATOM     17  C   UNL     1       7.026   4.892  14.567  0.00  0.00    +0.000 C 
ATOM     18  N   UNL     1       6.733   4.126  15.752  0.00  0.00    +0.000 N 
ATOM     19  C   UNL     1       5.575   4.347  16.437  0.00  0.00    +0.000 C 
ATOM     20  O   UNL     1       4.756   5.196  16.108  0.00  0.00    +0.000 OA
ATOM     21  N   UNL     1       5.457   3.543  17.543  0.00  0.00    +0.000 N 
ATOM     22  H   UNL     1       7.349   3.376  16.018  0.00  0.00    +0.000 HD
ATOM     23  H   UNL     1       6.030   2.709  17.553  0.00  0.00    +0.000 HD
ENDBRANCH  14  21
ENDBRANCH   1  14
TORSDOF 3
ENDMDL
MODEL 9
REMARK VINA RESULT:      -6.9      1.559      2.165
REMARK  Name = 
REMARK  6 active torsions:
REMARK  status: ('A' for Active; 'I' for Inactive)
REMARK    1  A    between atoms: C_1  and  N_2
REMARK    2  A    between atoms: N_5  and  C_6
REMARK    3  A    between atoms: C_6  and  C_7
REMARK    4  A    between atoms: C_6  and  C_8
REMARK    5  A    between atoms: C_6  and  C_9
REMARK    6  A    between atoms: N_11  and  C_12
REMARK                            x       y       z     vdW  Elec       q    Type
REMARK                         _______ _______ _______ _____ _____    ______ ____
ROOT
ATOM      1  C   UNL     1       6.156   5.848  18.392  0.00  0.00    +0.000 C 
ATOM      2  O   UNL     1       6.534   4.869  19.036  0.00  0.00    +0.000 OA
ATOM      3  N   UNL     1       4.823   6.135  18.113  0.00  0.00    +0.000 N 
ATOM      4  H   UNL     1       4.649   6.774  17.349  0.00  0.00    +0.000 HD
ENDROOT
BRANCH   3   5
ATOM      5  C   UNL     1       3.699   5.463  18.666  0.00  0.00    +0.000 A 
ATOM      6  C   UNL     1       2.984   5.967  19.770  0.00  0.00    +0.000 A 
ATOM      7  C   UNL     1       1.928   5.254  20.344  0.00  0.00    +0.000 A 
ATOM      8  C   UNL     1       1.578   4.039  19.792  0.00  0.00    +0.000 A 
ATOM      9  C   UNL     1       2.251   3.540  18.672  0.00  0.00    +0.000 A 
ATOM     10  C   UNL     1       3.305   4.244  18.093  0.00  0.00    +0.000 A 
ATOM     11  C   UNL     1       1.734   2.178  18.321  0.00  0.00    +0.000 C 
ATOM     12  C   UNL     1       0.390   2.158  19.066  0.00  0.00    +0.000 C 
ATOM     13  C   UNL     1       0.551   3.071  20.289  0.00  0.00    +0.000 C 
ENDBRANCH   3   5
BRANCH   1  14
ATOM     14  C   UNL     1       7.187   6.768  17.672  0.00  0.00    +0.000 C 
ATOM     15  C   UNL     1       8.332   7.042  18.658  0.00  0.00    +0.000 C 
ATOM     16  C   UNL     1       6.460   8.081  17.316  0.00  0.00    +0.000 C 
BRANCH  14  21
ATOM     17  C   UNL     1       6.837   4.493  13.323  0.00  0.00    +0.000 C 
ATOM     18  N   UNL     1       7.546   4.995  14.474  0.00  0.00    +0.000 N 
ATOM     19  C   UNL     1       6.872   5.667  15.449  0.00  0.00    +0.000 C 
ATOM     20  O   UNL     1       5.670   5.896  15.394  0.00  0.00    +0.000 OA
ATOM     21  N   UNL     1       7.696   6.084  16.465  0.00  0.00    +0.000 N 
ATOM     22  H   UNL     1       8.521   4.772  14.586  0.00  0.00    +0.000 HD
ATOM     23  H   UNL     1       8.583   5.606  16.547  0.00  0.00    +0.000 HD
ENDBRANCH  14  21
ENDBRANCH   1  14
TORSDOF 3
ENDMDL
