MODEL 1
REMARK VINA RESULT:      -9.0      0.000      0.000
REMARK  Name = 
REMARK  8 active torsions:
REMARK  status: ('A' for Active; 'I' for Inactive)
REMARK    1  A    between atoms: C_1  and  N_2
REMARK    2  A    between atoms: C_3  and  C_5
REMARK    3  A    between atoms: C_10  and  N_11
REMARK    4  A    between atoms: N_11  and  C_12
REMARK    5  A    between atoms: N_15  and  C_16
REMARK    6  A    between atoms: C_19  and  N_20
REMARK    7  A    between atoms: C_27  and  O_28
REMARK    8  A    between atoms: O_28  and  C_29
REMARK                            x       y       z     vdW  Elec       q    Type
REMARK                         _______ _______ _______ _____ _____    ______ ____
ROOT
ATOM      1  C   UNL     1       4.135   4.762  18.896  0.00  0.00    +0.000 A 
ATOM      2  N   UNL     1       3.973   6.092  19.083  0.00  0.00    +0.000 NA
ATOM      3  C   UNL     1       2.746   6.568  19.370  0.00  0.00    +0.000 A 
ATOM      4  N   UNL     1       2.619   7.957  19.496  0.00  0.00    +0.000 N 
ATOM      5  N   UNL     1       1.677   5.779  19.508  0.00  0.00    +0.000 NA
ATOM      6  C   UNL     1       1.863   4.488  19.338  0.00  0.00    +0.000 A 
ATOM      7  C   UNL     1       3.061   3.921  18.996  0.00  0.00    +0.000 A 
ATOM      8  C   UNL     1       2.876   2.456  18.854  0.00  0.00    +0.000 C 
ATOM      9  C   UNL     1       1.330   2.365  18.821  0.00  0.00    +0.000 C 
ATOM     10  N   UNL     1       0.829   3.539  19.522  0.00  0.00    +0.000 N 
ATOM     11  H   UNL     1       3.525   8.384  19.557  0.00  0.00    +0.000 HD
ATOM     12  H   UNL     1      -0.067   3.951  19.280  0.00  0.00    +0.000 HD
ENDROOT
BRANCH   4  13
ATOM     13  C   UNL     1       1.499   8.781  19.319  0.00  0.00    +0.000 A 
ATOM     14  C   UNL     1       1.132   9.212  18.034  0.00  0.00    +0.000 A 
ATOM     15  C   UNL     1       0.054  10.062  17.797  0.00  0.00    +0.000 A 
ATOM     16  C   UNL     1      -0.744  10.533  18.833  0.00  0.00    +0.000 A 
ATOM     17  C   UNL     1      -0.389  10.123  20.123  0.00  0.00    +0.000 A 
ATOM     18  C   UNL     1       0.712   9.269  20.381  0.00  0.00    +0.000 A 
BRANCH  16  19
ATOM     19  N   UNL     1      -1.806  11.362  18.547  0.00  0.00    +0.000 N 
ATOM     20  C   UNL     1      -2.279  12.415  19.448  0.00  0.00    +0.000 C 
ATOM     21  C   UNL     1      -3.702  12.105  19.930  0.00  0.00    +0.000 C 
ATOM     22  O   UNL     1      -4.598  11.875  18.828  0.00  0.00    +0.000 OA
ATOM     23  C   UNL     1      -4.141  10.762  18.042  0.00  0.00    +0.000 C 
ATOM     24  C   UNL     1      -2.741  11.016  17.461  0.00  0.00    +0.000 C 
ENDBRANCH  16  19
BRANCH  18  25
ATOM     25  O   UNL     1       0.822   8.941  21.711  0.00  0.00    +0.000 OA
ATOM     26  C   UNL     1      -0.260   9.254  22.578  0.00  0.00    +0.000 C 
ENDBRANCH  18  25
ENDBRANCH   4  13
BRANCH   1  27
ATOM     27  N   UNL     1       5.404   4.259  18.493  0.00  0.00    +0.000 N 
ATOM     28  H   UNL     1       6.122   4.659  19.100  0.00  0.00    +0.000 HD
BRANCH  27  34
ATOM     29  C   UNL     1       6.765   5.411  16.750  0.00  0.00    +0.000 A 
ATOM     30  C   UNL     1       7.103   5.540  15.386  0.00  0.00    +0.000 A 
ATOM     31  C   UNL     1       6.588   4.672  14.423  0.00  0.00    +0.000 A 
ATOM     32  C   UNL     1       5.712   3.670  14.806  0.00  0.00    +0.000 A 
ATOM     33  C   UNL     1       5.361   3.535  16.151  0.00  0.00    +0.000 A 
ATOM     34  C   UNL     1       5.902   4.372  17.155  0.00  0.00    +0.000 A 
BRANCH  29  37
ATOM     35  C   UNL     1       8.057   8.752  17.994  0.00  0.00    +0.000 C 
ATOM     36  N   UNL     1       7.697   7.666  17.113  0.00  0.00    +0.000 N 
ATOM     37  C   UNL     1       7.392   6.432  17.645  0.00  0.00    +0.000 C 
ATOM     38  O   UNL     1       7.569   6.172  18.833  0.00  0.00    +0.000 OA
ATOM     39  H   UNL     1       7.414   7.862  16.159  0.00  0.00    +0.000 HD
ENDBRANCH  29  37
ENDBRANCH  27  34
ENDBRANCH   1  27
TORSDOF 6
ENDMDL
MODEL 2
REMARK VINA RESULT:      -9.0      1.193      1.202
REMARK  Name = 
REMARK  8 active torsions:
REMARK  status: ('A' for Active; 'I' for Inactive)
REMARK    1  A    between atoms: C_1  and  N_2
REMARK    2  A    between atoms: C_3  and  C_5
REMARK    3  A    between atoms: C_10  and  N_11
REMARK    4  A    between atoms: N_11  and  C_12
REMARK    5  A    between atoms: N_15  and  C_16
REMARK    6  A    between atoms: C_19  and  N_20
REMARK    7  A    between atoms: C_27  and  O_28
REMARK    8  A    between atoms: O_28  and  C_29
REMARK                            x       y       z     vdW  Elec       q    Type
REMARK                         _______ _______ _______ _____ _____    ______ ____
ROOT
ATOM      1  C   UNL     1       3.827   4.053  18.392  0.00  0.00    +0.000 A 
ATOM      2  N   UNL     1       3.897   5.397  18.525  0.00  0.00    +0.000 NA
ATOM      3  C   UNL     1       2.829   6.064  19.003  0.00  0.00    +0.000 A 
ATOM      4  N   UNL     1       2.929   7.460  19.066  0.00  0.00    +0.000 N 
ATOM      5  N   UNL     1       1.703   5.453  19.384  0.00  0.00    +0.000 NA
ATOM      6  C   UNL     1       1.665   4.144  19.262  0.00  0.00    +0.000 A 
ATOM      7  C   UNL     1       2.682   3.389  18.740  0.00  0.00    +0.000 A 
ATOM      8  C   UNL     1       2.264   1.966  18.724  0.00  0.00    +0.000 C 
ATOM      9  C   UNL     1       0.744   2.112  18.982  0.00  0.00    +0.000 C 
ATOM     10  N   UNL     1       0.561   3.371  19.691  0.00  0.00    +0.000 N 
ATOM     11  H   UNL     1       3.883   7.745  18.932  0.00  0.00    +0.000 HD
ATOM     12  H   UNL     1      -0.296   3.907  19.593  0.00  0.00    +0.000 HD
ENDROOT
BRANCH   4  13
ATOM     13  C   UNL     1       1.927   8.439  19.047  0.00  0.00    +0.000 A 
ATOM     14  C   UNL     1       1.643   9.143  17.866  0.00  0.00    +0.000 A 
ATOM     15  C   UNL     1       0.686  10.153  17.794  0.00  0.00    +0.000 A 
ATOM     16  C   UNL     1      -0.066  10.523  18.901  0.00  0.00    +0.000 A 
ATOM     17  C   UNL     1       0.207   9.841  20.092  0.00  0.00    +0.000 A 
ATOM     18  C   UNL     1       1.186   8.819  20.184  0.00  0.00    +0.000 A 
BRANCH  16  19
ATOM     19  N   UNL     1      -1.009  11.520  18.778  0.00  0.00    +0.000 N 
ATOM     20  C   UNL     1      -1.264  12.527  19.809  0.00  0.00    +0.000 C 
ATOM     21  C   UNL     1      -2.686  12.372  20.366  0.00  0.00    +0.000 C 
ATOM     22  O   UNL     1      -3.671  12.390  19.317  0.00  0.00    +0.000 OA
ATOM     23  C   UNL     1      -3.433  11.313  18.395  0.00  0.00    +0.000 C 
ATOM     24  C   UNL     1      -2.049  11.427  17.738  0.00  0.00    +0.000 C 
ENDBRANCH  16  19
BRANCH  18  25
ATOM     25  O   UNL     1       1.225   8.241  21.430  0.00  0.00    +0.000 OA
ATOM     26  C   UNL     1       1.552   9.056  22.546  0.00  0.00    +0.000 C 
ENDBRANCH  18  25
ENDBRANCH   4  13
BRANCH   1  27
ATOM     27  N   UNL     1       4.909   3.349  17.794  0.00  0.00    +0.000 N 
ATOM     28  H   UNL     1       5.650   3.238  18.488  0.00  0.00    +0.000 HD
BRANCH  27  34
ATOM     29  C   UNL     1       6.777   4.473  16.584  0.00  0.00    +0.000 A 
ATOM     30  C   UNL     1       7.279   4.987  15.370  0.00  0.00    +0.000 A 
ATOM     31  C   UNL     1       6.581   4.837  14.171  0.00  0.00    +0.000 A 
ATOM     32  C   UNL     1       5.359   4.185  14.170  0.00  0.00    +0.000 A 
ATOM     33  C   UNL     1       4.844   3.680  15.366  0.00  0.00    +0.000 A 
ATOM     34  C   UNL     1       5.550   3.777  16.588  0.00  0.00    +0.000 A 
BRANCH  29  37
ATOM     35  C   UNL     1       7.924   5.842  19.930  0.00  0.00    +0.000 C 
ATOM     36  N   UNL     1       7.268   5.733  18.647  0.00  0.00    +0.000 N 
ATOM     37  C   UNL     1       7.643   4.734  17.775  0.00  0.00    +0.000 C 
ATOM     38  O   UNL     1       8.626   4.025  17.979  0.00  0.00    +0.000 OA
ATOM     39  H   UNL     1       6.381   6.199  18.493  0.00  0.00    +0.000 HD
ENDBRANCH  29  37
ENDBRANCH  27  34
ENDBRANCH   1  27
TORSDOF 6
ENDMDL
MODEL 3
REMARK VINA RESULT:      -8.8      2.394      3.873
REMARK  Name = 
REMARK  8 active torsions:
REMARK  status: ('A' for Active; 'I' for Inactive)
REMARK    1  A    between atoms: C_1  and  N_2
REMARK    2  A    between atoms: C_3  and  C_5
REMARK    3  A    between atoms: C_10  and  N_11
REMARK    4  A    between atoms: N_11  and  C_12
REMARK    5  A    between atoms: N_15  and  C_16
REMARK    6  A    between atoms: C_19  and  N_20
REMARK    7  A    between atoms: C_27  and  O_28
REMARK    8  A    between atoms: O_28  and  C_29
REMARK                            x       y       z     vdW  Elec       q    Type
REMARK                         _______ _______ _______ _____ _____    ______ ____
ROOT
ATOM      1  C   UNL     1       3.018   7.420  17.920  0.00  0.00    +0.000 A 
ATOM      2  N   UNL     1       2.476   8.623  17.621  0.00  0.00    +0.000 NA
ATOM      3  C   UNL     1       1.638   9.201  18.503  0.00  0.00    +0.000 A 
ATOM      4  N   UNL     1       1.057  10.418  18.122  0.00  0.00    +0.000 N 
ATOM      5  N   UNL     1       1.335   8.652  19.682  0.00  0.00    +0.000 NA
ATOM      6  C   UNL     1       1.888   7.490  19.958  0.00  0.00    +0.000 A 
ATOM      7  C   UNL     1       2.710   6.806  19.103  0.00  0.00    +0.000 A 
ATOM      8  C   UNL     1       3.104   5.524  19.738  0.00  0.00    +0.000 C 
ATOM      9  C   UNL     1       2.089   5.461  20.905  0.00  0.00    +0.000 C 
ATOM     10  N   UNL     1       1.704   6.834  21.198  0.00  0.00    +0.000 N 
ATOM     11  H   UNL     1       1.523  10.786  17.313  0.00  0.00    +0.000 HD
ATOM     12  H   UNL     1       0.785   7.052  21.573  0.00  0.00    +0.000 HD
ENDROOT
BRANCH   4  13
ATOM     13  C   UNL     1      -0.142  11.015  18.536  0.00  0.00    +0.000 A 
ATOM     14  C   UNL     1      -0.137  11.984  19.552  0.00  0.00    +0.000 A 
ATOM     15  C   UNL     1      -1.299  12.585  20.032  0.00  0.00    +0.000 A 
ATOM     16  C   UNL     1      -2.549  12.266  19.521  0.00  0.00    +0.000 A 
ATOM     17  C   UNL     1      -2.577  11.295  18.514  0.00  0.00    +0.000 A 
ATOM     18  C   UNL     1      -1.406  10.665  18.022  0.00  0.00    +0.000 A 
BRANCH  16  19
ATOM     19  N   UNL     1      -3.667  12.896  20.021  0.00  0.00    +0.000 N 
ATOM     20  C   UNL     1      -3.695  13.601  21.305  0.00  0.00    +0.000 C 
ATOM     21  C   UNL     1      -4.653  12.900  22.277  0.00  0.00    +0.000 C 
ATOM     22  O   UNL     1      -5.964  12.737  21.707  0.00  0.00    +0.000 OA
ATOM     23  C   UNL     1      -5.887  11.946  20.509  0.00  0.00    +0.000 C 
ATOM     24  C   UNL     1      -4.995  12.611  19.448  0.00  0.00    +0.000 C 
ENDBRANCH  16  19
BRANCH  18  25
ATOM     25  O   UNL     1      -1.669   9.804  16.984  0.00  0.00    +0.000 OA
ATOM     26  C   UNL     1      -2.642  10.182  16.020  0.00  0.00    +0.000 C 
ENDBRANCH  18  25
ENDBRANCH   4  13
BRANCH   1  27
ATOM     27  N   UNL     1       3.823   6.753  16.955  0.00  0.00    +0.000 N 
ATOM     28  H   UNL     1       3.307   5.945  16.601  0.00  0.00    +0.000 HD
BRANCH  27  34
ATOM     29  C   UNL     1       5.456   4.931  17.433  0.00  0.00    +0.000 A 
ATOM     30  C   UNL     1       6.759   4.565  17.836  0.00  0.00    +0.000 A 
ATOM     31  C   UNL     1       7.749   5.522  18.053  0.00  0.00    +0.000 A 
ATOM     32  C   UNL     1       7.450   6.865  17.887  0.00  0.00    +0.000 A 
ATOM     33  C   UNL     1       6.163   7.243  17.498  0.00  0.00    +0.000 A 
ATOM     34  C   UNL     1       5.151   6.292  17.227  0.00  0.00    +0.000 A 
BRANCH  29  37
ATOM     35  C   UNL     1       3.577   1.717  18.157  0.00  0.00    +0.000 C 
ATOM     36  N   UNL     1       4.621   2.715  18.124  0.00  0.00    +0.000 N 
ATOM     37  C   UNL     1       4.514   3.783  17.259  0.00  0.00    +0.000 C 
ATOM     38  O   UNL     1       3.639   3.839  16.397  0.00  0.00    +0.000 OA
ATOM     39  H   UNL     1       5.280   2.782  18.892  0.00  0.00    +0.000 HD
ENDBRANCH  29  37
ENDBRANCH  27  34
ENDBRANCH   1  27
TORSDOF 6
ENDMDL
MODEL 4
REMARK VINA RESULT:      -8.6      2.285      3.517
REMARK  Name = 
REMARK  8 active torsions:
REMARK  status: ('A' for Active; 'I' for Inactive)
REMARK    1  A    between atoms: C_1  and  N_2
REMARK    2  A    between atoms: C_3  and  C_5
REMARK    3  A    between atoms: C_10  and  N_11
REMARK    4  A    between atoms: N_11  and  C_12
REMARK    5  A    between atoms: N_15  and  C_16
REMARK    6  A    between atoms: C_19  and  N_20
REMARK    7  A    between atoms: C_27  and  O_28
REMARK    8  A    between atoms: O_28  and  C_29
REMARK                            x       y       z     vdW  Elec       q    Type
REMARK                         _______ _______ _______ _____ _____    ______ ____
ROOT
ATOM      1  C   UNL     1       3.102   7.285  17.927  0.00  0.00    +0.000 A 
ATOM      2  N   UNL     1       2.488   8.409  17.491  0.00  0.00    +0.000 NA
ATOM      3  C   UNL     1       1.542   8.980  18.261  0.00  0.00    +0.000 A 
ATOM      4  N   UNL     1       0.895  10.107  17.739  0.00  0.00    +0.000 N 
ATOM      5  N   UNL     1       1.198   8.502  19.460  0.00  0.00    +0.000 NA
ATOM      6  C   UNL     1       1.820   7.418  19.871  0.00  0.00    +0.000 A 
ATOM      7  C   UNL     1       2.757   6.742  19.135  0.00  0.00    +0.000 A 
ATOM      8  C   UNL     1       3.205   5.554  19.902  0.00  0.00    +0.000 C 
ATOM      9  C   UNL     1       2.113   5.495  21.000  0.00  0.00    +0.000 C 
ATOM     10  N   UNL     1       1.598   6.849  21.147  0.00  0.00    +0.000 N 
ATOM     11  H   UNL     1       1.390  10.449  16.935  0.00  0.00    +0.000 HD
ATOM     12  H   UNL     1       0.639   7.016  21.438  0.00  0.00    +0.000 HD
ENDROOT
BRANCH   4  13
ATOM     13  C   UNL     1      -0.375  10.629  18.018  0.00  0.00    +0.000 A 
ATOM     14  C   UNL     1      -1.522  10.047  17.454  0.00  0.00    +0.000 A 
ATOM     15  C   UNL     1      -2.806  10.544  17.663  0.00  0.00    +0.000 A 
ATOM     16  C   UNL     1      -3.036  11.655  18.464  0.00  0.00    +0.000 A 
ATOM     17  C   UNL     1      -1.906  12.257  19.028  0.00  0.00    +0.000 A 
ATOM     18  C   UNL     1      -0.592  11.771  18.815  0.00  0.00    +0.000 A 
BRANCH  16  19
ATOM     19  N   UNL     1      -4.326  12.101  18.649  0.00  0.00    +0.000 N 
ATOM     20  C   UNL     1      -4.796  12.736  19.882  0.00  0.00    +0.000 C 
ATOM     21  C   UNL     1      -5.865  11.867  20.557  0.00  0.00    +0.000 C 
ATOM     22  O   UNL     1      -6.939  11.550  19.653  0.00  0.00    +0.000 OA
ATOM     23  C   UNL     1      -6.433  10.832  18.515  0.00  0.00    +0.000 C 
ATOM     24  C   UNL     1      -5.398  11.660  17.738  0.00  0.00    +0.000 C 
ENDBRANCH  16  19
BRANCH  18  25
ATOM     25  O   UNL     1       0.350  12.473  19.530  0.00  0.00    +0.000 OA
ATOM     26  C   UNL     1       0.880  11.887  20.710  0.00  0.00    +0.000 C 
ENDBRANCH  18  25
ENDBRANCH   4  13
BRANCH   1  27
ATOM     27  N   UNL     1       4.028   6.616  17.080  0.00  0.00    +0.000 N 
ATOM     28  H   UNL     1       3.658   5.689  16.859  0.00  0.00    +0.000 HD
BRANCH  27  34
ATOM     29  C   UNL     1       5.904   5.205  17.922  0.00  0.00    +0.000 A 
ATOM     30  C   UNL     1       7.240   5.132  18.370  0.00  0.00    +0.000 A 
ATOM     31  C   UNL     1       8.078   6.247  18.346  0.00  0.00    +0.000 A 
ATOM     32  C   UNL     1       7.588   7.459  17.889  0.00  0.00    +0.000 A 
ATOM     33  C   UNL     1       6.265   7.550  17.451  0.00  0.00    +0.000 A 
ATOM     34  C   UNL     1       5.406   6.426  17.422  0.00  0.00    +0.000 A 
BRANCH  29  37
ATOM     35  C   UNL     1       4.376   2.079  19.431  0.00  0.00    +0.000 C 
ATOM     36  N   UNL     1       5.282   3.175  19.179  0.00  0.00    +0.000 N 
ATOM     37  C   UNL     1       5.141   3.922  18.030  0.00  0.00    +0.000 C 
ATOM     38  O   UNL     1       4.373   3.594  17.128  0.00  0.00    +0.000 OA
ATOM     39  H   UNL     1       5.833   3.560  19.939  0.00  0.00    +0.000 HD
ENDBRANCH  29  37
ENDBRANCH  27  34
ENDBRANCH   1  27
TORSDOF 6
ENDMDL
MODEL 5
REMARK VINA RESULT:      -8.5      2.670     10.325
REMARK  Name = 
REMARK  8 active torsions:
REMARK  status: ('A' for Active; 'I' for Inactive)
REMARK    1  A    between atoms: C_1  and  N_2
REMARK    2  A    between atoms: C_3  and  C_5
REMARK    3  A    between atoms: C_10  and  N_11
REMARK    4  A    between atoms: N_11  and  C_12
REMARK    5  A    between atoms: N_15  and  C_16
REMARK    6  A    between atoms: C_19  and  N_20
REMARK    7  A    between atoms: C_27  and  O_28
REMARK    8  A    between atoms: O_28  and  C_29
REMARK                            x       y       z     vdW  Elec       q    Type
REMARK                         _______ _______ _______ _____ _____    ______ ____
ROOT
ATOM      1  C   UNL     1      -1.937  12.047  18.941  0.00  0.00    +0.000 A 
ATOM      2  N   UNL     1      -0.710  11.622  19.320  0.00  0.00    +0.000 NA
ATOM      3  C   UNL     1      -0.146  10.585  18.672  0.00  0.00    +0.000 A 
ATOM      4  N   UNL     1       1.098  10.144  19.141  0.00  0.00    +0.000 N 
ATOM      5  N   UNL     1      -0.734   9.968  17.643  0.00  0.00    +0.000 NA
ATOM      6  C   UNL     1      -1.919  10.410  17.281  0.00  0.00    +0.000 A 
ATOM      7  C   UNL     1      -2.589  11.423  17.912  0.00  0.00    +0.000 A 
ATOM      8  C   UNL     1      -3.905  11.614  17.253  0.00  0.00    +0.000 C 
ATOM      9  C   UNL     1      -3.989  10.321  16.405  0.00  0.00    +0.000 C 
ATOM     10  N   UNL     1      -2.618   9.890  16.167  0.00  0.00    +0.000 N 
ATOM     11  H   UNL     1       1.486  10.817  19.777  0.00  0.00    +0.000 HD
ATOM     12  H   UNL     1      -2.393   8.907  16.043  0.00  0.00    +0.000 HD
ENDROOT
BRANCH   4  13
ATOM     13  C   UNL     1       1.708   8.887  19.038  0.00  0.00    +0.000 A 
ATOM     14  C   UNL     1       2.321   8.491  17.838  0.00  0.00    +0.000 A 
ATOM     15  C   UNL     1       2.909   7.241  17.662  0.00  0.00    +0.000 A 
ATOM     16  C   UNL     1       2.937   6.299  18.682  0.00  0.00    +0.000 A 
ATOM     17  C   UNL     1       2.323   6.670  19.884  0.00  0.00    +0.000 A 
ATOM     18  C   UNL     1       1.710   7.933  20.075  0.00  0.00    +0.000 A 
BRANCH  16  19
ATOM     19  N   UNL     1       3.541   5.081  18.463  0.00  0.00    +0.000 N 
ATOM     20  C   UNL     1       3.186   4.185  17.361  0.00  0.00    +0.000 C 
ATOM     21  C   UNL     1       2.594   2.878  17.904  0.00  0.00    +0.000 C 
ATOM     22  O   UNL     1       3.470   2.257  18.862  0.00  0.00    +0.000 OA
ATOM     23  C   UNL     1       3.696   3.140  19.973  0.00  0.00    +0.000 C 
ATOM     24  C   UNL     1       4.351   4.456  19.525  0.00  0.00    +0.000 C 
ENDBRANCH  16  19
BRANCH  18  25
ATOM     25  O   UNL     1       1.242   8.102  21.356  0.00  0.00    +0.000 OA
ATOM     26  C   UNL     1      -0.152   8.293  21.549  0.00  0.00    +0.000 C 
ENDBRANCH  18  25
ENDBRANCH   4  13
BRANCH   1  27
ATOM     27  N   UNL     1      -2.585  13.073  19.682  0.00  0.00    +0.000 N 
ATOM     28  H   UNL     1      -2.068  13.945  19.555  0.00  0.00    +0.000 HD
BRANCH  27  34
ATOM     29  C   UNL     1      -4.166  12.818  21.594  0.00  0.00    +0.000 A 
ATOM     30  C   UNL     1      -4.378  12.868  22.988  0.00  0.00    +0.000 A 
ATOM     31  C   UNL     1      -3.324  13.083  23.877  0.00  0.00    +0.000 A 
ATOM     32  C   UNL     1      -2.043  13.271  23.384  0.00  0.00    +0.000 A 
ATOM     33  C   UNL     1      -1.820  13.234  22.006  0.00  0.00    +0.000 A 
ATOM     34  C   UNL     1      -2.860  12.973  21.084  0.00  0.00    +0.000 A 
BRANCH  29  37
ATOM     35  C   UNL     1      -7.622  11.591  20.627  0.00  0.00    +0.000 C 
ATOM     36  N   UNL     1      -6.309  11.652  21.226  0.00  0.00    +0.000 N 
ATOM     37  C   UNL     1      -5.405  12.594  20.785  0.00  0.00    +0.000 C 
ATOM     38  O   UNL     1      -5.614  13.283  19.789  0.00  0.00    +0.000 OA
ATOM     39  H   UNL     1      -6.141  11.205  22.120  0.00  0.00    +0.000 HD
ENDBRANCH  29  37
ENDBRANCH  27  34
ENDBRANCH   1  27
TORSDOF 6
ENDMDL
MODEL 6
REMARK VINA RESULT:      -8.3      2.497     10.404
REMARK  Name = 
REMARK  8 active torsions:
REMARK  status: ('A' for Active; 'I' for Inactive)
REMARK    1  A    between atoms: C_1  and  N_2
REMARK    2  A    between atoms: C_3  and  C_5
REMARK    3  A    between atoms: C_10  and  N_11
REMARK    4  A    between atoms: N_11  and  C_12
REMARK    5  A    between atoms: N_15  and  C_16
REMARK    6  A    between atoms: C_19  and  N_20
REMARK    7  A    between atoms: C_27  and  O_28
REMARK    8  A    between atoms: O_28  and  C_29
REMARK                            x       y       z     vdW  Elec       q    Type
REMARK                         _______ _______ _______ _____ _____    ______ ____
ROOT
ATOM      1  C   UNL     1      -2.119  12.106  18.834  0.00  0.00    +0.000 A 
ATOM      2  N   UNL     1      -0.902  11.720  19.278  0.00  0.00    +0.000 NA
ATOM      3  C   UNL     1      -0.293  10.670  18.693  0.00  0.00    +0.000 A 
ATOM      4  N   UNL     1       0.938  10.272  19.228  0.00  0.00    +0.000 N 
ATOM      5  N   UNL     1      -0.828  10.003  17.666  0.00  0.00    +0.000 NA
ATOM      6  C   UNL     1      -2.005  10.408  17.240  0.00  0.00    +0.000 A 
ATOM      7  C   UNL     1      -2.718  11.431  17.805  0.00  0.00    +0.000 A 
ATOM      8  C   UNL     1      -4.009  11.572  17.087  0.00  0.00    +0.000 C 
ATOM      9  C   UNL     1      -4.035  10.246  16.287  0.00  0.00    +0.000 C 
ATOM     10  N   UNL     1      -2.649   9.832  16.120  0.00  0.00    +0.000 N 
ATOM     11  H   UNL     1       1.288  10.976  19.853  0.00  0.00    +0.000 HD
ATOM     12  H   UNL     1      -2.401   8.851  16.044  0.00  0.00    +0.000 HD
ENDROOT
BRANCH   4  13
ATOM     13  C   UNL     1       1.575   9.023  19.198  0.00  0.00    +0.000 A 
ATOM     14  C   UNL     1       2.215   8.581  18.030  0.00  0.00    +0.000 A 
ATOM     15  C   UNL     1       2.831   7.336  17.927  0.00  0.00    +0.000 A 
ATOM     16  C   UNL     1       2.860   6.447  18.994  0.00  0.00    +0.000 A 
ATOM     17  C   UNL     1       2.218   6.864  20.165  0.00  0.00    +0.000 A 
ATOM     18  C   UNL     1       1.577   8.123  20.282  0.00  0.00    +0.000 A 
BRANCH  16  19
ATOM     19  N   UNL     1       3.491   5.231  18.846  0.00  0.00    +0.000 N 
ATOM     20  C   UNL     1       4.048   4.755  17.578  0.00  0.00    +0.000 C 
ATOM     21  C   UNL     1       3.298   3.504  17.102  0.00  0.00    +0.000 C 
ATOM     22  O   UNL     1       3.272   2.483  18.115  0.00  0.00    +0.000 OA
ATOM     23  C   UNL     1       2.618   2.973  19.297  0.00  0.00    +0.000 C 
ATOM     24  C   UNL     1       3.346   4.193  19.882  0.00  0.00    +0.000 C 
ENDBRANCH  16  19
BRANCH  18  25
ATOM     25  O   UNL     1       1.085   8.346  21.546  0.00  0.00    +0.000 OA
ATOM     26  C   UNL     1      -0.323   8.355  21.732  0.00  0.00    +0.000 C 
ENDBRANCH  18  25
ENDBRANCH   4  13
BRANCH   1  27
ATOM     27  N   UNL     1      -2.816  13.147  19.508  0.00  0.00    +0.000 N 
ATOM     28  H   UNL     1      -2.182  13.940  19.628  0.00  0.00    +0.000 HD
BRANCH  27  34
ATOM     29  C   UNL     1      -4.873  12.960  20.905  0.00  0.00    +0.000 A 
ATOM     30  C   UNL     1      -5.445  12.915  22.194  0.00  0.00    +0.000 A 
ATOM     31  C   UNL     1      -4.653  12.891  23.342  0.00  0.00    +0.000 A 
ATOM     32  C   UNL     1      -3.273  12.930  23.220  0.00  0.00    +0.000 A 
ATOM     33  C   UNL     1      -2.692  12.984  21.952  0.00  0.00    +0.000 A 
ATOM     34  C   UNL     1      -3.469  12.964  20.769  0.00  0.00    +0.000 A 
BRANCH  29  37
ATOM     35  C   UNL     1      -6.679  14.107  17.774  0.00  0.00    +0.000 C 
ATOM     36  N   UNL     1      -5.930  14.131  19.009  0.00  0.00    +0.000 N 
ATOM     37  C   UNL     1      -5.864  12.995  19.785  0.00  0.00    +0.000 C 
ATOM     38  O   UNL     1      -6.551  12.003  19.550  0.00  0.00    +0.000 OA
ATOM     39  H   UNL     1      -5.252  14.867  19.174  0.00  0.00    +0.000 HD
ENDBRANCH  29  37
ENDBRANCH  27  34
ENDBRANCH   1  27
TORSDOF 6
ENDMDL
MODEL 7
REMARK VINA RESULT:      -8.3      1.848      2.559
REMARK  Name = 
REMARK  8 active torsions:
REMARK  status: ('A' for Active; 'I' for Inactive)
REMARK    1  A    between atoms: C_1  and  N_2
REMARK    2  A    between atoms: C_3  and  C_5
REMARK    3  A    between atoms: C_10  and  N_11
REMARK    4  A    between atoms: N_11  and  C_12
REMARK    5  A    between atoms: N_15  and  C_16
REMARK    6  A    between atoms: C_19  and  N_20
REMARK    7  A    between atoms: C_27  and  O_28
REMARK    8  A    between atoms: O_28  and  C_29
REMARK                            x       y       z     vdW  Elec       q    Type
REMARK                         _______ _______ _______ _____ _____    ______ ____
ROOT
ATOM      1  C   UNL     1       3.739   3.998  18.898  0.00  0.00    +0.000 A 
ATOM      2  N   UNL     1       3.821   5.281  19.320  0.00  0.00    +0.000 NA
ATOM      3  C   UNL     1       2.735   5.862  19.864  0.00  0.00    +0.000 A 
ATOM      4  N   UNL     1       2.852   7.209  20.230  0.00  0.00    +0.000 N 
ATOM      5  N   UNL     1       1.577   5.217  20.034  0.00  0.00    +0.000 NA
ATOM      6  C   UNL     1       1.526   3.966  19.631  0.00  0.00    +0.000 A 
ATOM      7  C   UNL     1       2.563   3.310  19.023  0.00  0.00    +0.000 A 
ATOM      8  C   UNL     1       2.126   1.936  18.676  0.00  0.00    +0.000 C 
ATOM      9  C   UNL     1       0.594   2.068  18.865  0.00  0.00    +0.000 C 
ATOM     10  N   UNL     1       0.384   3.152  19.814  0.00  0.00    +0.000 N 
ATOM     11  H   UNL     1       3.817   7.487  20.221  0.00  0.00    +0.000 HD
ATOM     12  H   UNL     1      -0.456   3.722  19.781  0.00  0.00    +0.000 HD
ENDROOT
BRANCH   4  13
ATOM     13  C   UNL     1       1.869   8.198  20.361  0.00  0.00    +0.000 A 
ATOM     14  C   UNL     1       1.425   8.595  21.632  0.00  0.00    +0.000 A 
ATOM     15  C   UNL     1       0.424   9.545  21.825  0.00  0.00    +0.000 A 
ATOM     16  C   UNL     1      -0.197  10.176  20.755  0.00  0.00    +0.000 A 
ATOM     17  C   UNL     1       0.224   9.788  19.478  0.00  0.00    +0.000 A 
ATOM     18  C   UNL     1       1.232   8.815  19.265  0.00  0.00    +0.000 A 
BRANCH  16  19
ATOM     19  N   UNL     1      -1.173  11.117  20.997  0.00  0.00    +0.000 N 
ATOM     20  C   UNL     1      -1.753  11.970  19.959  0.00  0.00    +0.000 C 
ATOM     21  C   UNL     1      -1.412  13.442  20.225  0.00  0.00    +0.000 C 
ATOM     22  O   UNL     1      -1.798  13.845  21.552  0.00  0.00    +0.000 OA
ATOM     23  C   UNL     1      -1.115  13.043  22.531  0.00  0.00    +0.000 C 
ATOM     24  C   UNL     1      -1.453  11.552  22.377  0.00  0.00    +0.000 C 
ENDBRANCH  16  19
BRANCH  18  25
ATOM     25  O   UNL     1       1.533   8.653  17.934  0.00  0.00    +0.000 OA
ATOM     26  C   UNL     1       2.888   8.778  17.525  0.00  0.00    +0.000 C 
ENDBRANCH  18  25
ENDBRANCH   4  13
BRANCH   1  27
ATOM     27  N   UNL     1       4.848   3.406  18.230  0.00  0.00    +0.000 N 
ATOM     28  H   UNL     1       5.638   3.370  18.878  0.00  0.00    +0.000 HD
BRANCH  27  34
ATOM     29  C   UNL     1       6.615   4.551  16.895  0.00  0.00    +0.000 A 
ATOM     30  C   UNL     1       7.001   5.133  15.668  0.00  0.00    +0.000 A 
ATOM     31  C   UNL     1       6.169   5.092  14.549  0.00  0.00    +0.000 A 
ATOM     32  C   UNL     1       4.928   4.482  14.643  0.00  0.00    +0.000 A 
ATOM     33  C   UNL     1       4.528   3.910  15.852  0.00  0.00    +0.000 A 
ATOM     34  C   UNL     1       5.369   3.897  16.990  0.00  0.00    +0.000 A 
BRANCH  29  37
ATOM     35  C   UNL     1       8.117   5.477  20.252  0.00  0.00    +0.000 C 
ATOM     36  N   UNL     1       7.300   5.512  19.061  0.00  0.00    +0.000 N 
ATOM     37  C   UNL     1       7.617   4.698  17.995  0.00  0.00    +0.000 C 
ATOM     38  O   UNL     1       8.664   4.056  17.954  0.00  0.00    +0.000 OA
ATOM     39  H   UNL     1       6.371   5.917  19.098  0.00  0.00    +0.000 HD
ENDBRANCH  29  37
ENDBRANCH  27  34
ENDBRANCH   1  27
TORSDOF 6
ENDMDL
MODEL 8
REMARK VINA RESULT:      -8.2      2.179      3.666
REMARK  Name = 
REMARK  8 active torsions:
REMARK  status: ('A' for Active; 'I' for Inactive)
REMARK    1  A    between atoms: C_1  and  N_2
REMARK    2  A    between atoms: C_3  and  C_5
REMARK    3  A    between atoms: C_10  and  N_11
REMARK    4  A    between atoms: N_11  and  C_12
REMARK    5  A    between atoms: N_15  and  C_16
REMARK    6  A    between atoms: C_19  and  N_20
REMARK    7  A    between atoms: C_27  and  O_28
REMARK    8  A    between atoms: O_28  and  C_29
REMARK                            x       y       z     vdW  Elec       q    Type
REMARK                         _______ _______ _______ _____ _____    ______ ____
ROOT
ATOM      1  C   UNL     1       3.234   7.475  17.728  0.00  0.00    +0.000 A 
ATOM      2  N   UNL     1       2.527   8.566  17.355  0.00  0.00    +0.000 NA
ATOM      3  C   UNL     1       1.561   9.031  18.171  0.00  0.00    +0.000 A 
ATOM      4  N   UNL     1       0.817  10.126  17.714  0.00  0.00    +0.000 N 
ATOM      5  N   UNL     1       1.285   8.477  19.355  0.00  0.00    +0.000 NA
ATOM      6  C   UNL     1       1.997   7.428  19.704  0.00  0.00    +0.000 A 
ATOM      7  C   UNL     1       2.963   6.857  18.918  0.00  0.00    +0.000 A 
ATOM      8  C   UNL     1       3.519   5.675  19.622  0.00  0.00    +0.000 C 
ATOM      9  C   UNL     1       2.464   5.488  20.740  0.00  0.00    +0.000 C 
ATOM     10  N   UNL     1       1.852   6.791  20.958  0.00  0.00    +0.000 N 
ATOM     11  H   UNL     1       1.264  10.538  16.915  0.00  0.00    +0.000 HD
ATOM     12  H   UNL     1       0.891   6.871  21.279  0.00  0.00    +0.000 HD
ENDROOT
BRANCH   4  13
ATOM     13  C   UNL     1      -0.481  10.537  18.045  0.00  0.00    +0.000 A 
ATOM     14  C   UNL     1      -1.594   9.927  17.445  0.00  0.00    +0.000 A 
ATOM     15  C   UNL     1      -2.906  10.318  17.704  0.00  0.00    +0.000 A 
ATOM     16  C   UNL     1      -3.198  11.343  18.594  0.00  0.00    +0.000 A 
ATOM     17  C   UNL     1      -2.103  11.972  19.196  0.00  0.00    +0.000 A 
ATOM     18  C   UNL     1      -0.762  11.594  18.934  0.00  0.00    +0.000 A 
BRANCH  16  19
ATOM     19  N   UNL     1      -4.512  11.685  18.825  0.00  0.00    +0.000 N 
ATOM     20  C   UNL     1      -5.561  11.614  17.806  0.00  0.00    +0.000 C 
ATOM     21  C   UNL     1      -6.100  13.017  17.496  0.00  0.00    +0.000 C 
ATOM     22  O   UNL     1      -6.532  13.695  18.689  0.00  0.00    +0.000 OA
ATOM     23  C   UNL     1      -5.434  13.831  19.607  0.00  0.00    +0.000 C 
ATOM     24  C   UNL     1      -4.873  12.463  20.024  0.00  0.00    +0.000 C 
ENDBRANCH  16  19
BRANCH  18  25
ATOM     25  O   UNL     1       0.140  12.298  19.695  0.00  0.00    +0.000 OA
ATOM     26  C   UNL     1       0.567  11.740  20.929  0.00  0.00    +0.000 C 
ENDBRANCH  18  25
ENDBRANCH   4  13
BRANCH   1  27
ATOM     27  N   UNL     1       4.186   6.914  16.831  0.00  0.00    +0.000 N 
ATOM     28  H   UNL     1       3.749   6.134  16.337  0.00  0.00    +0.000 HD
BRANCH  27  34
ATOM     29  C   UNL     1       5.772   5.087  17.433  0.00  0.00    +0.000 A 
ATOM     30  C   UNL     1       7.019   4.715  17.978  0.00  0.00    +0.000 A 
ATOM     31  C   UNL     1       7.963   5.670  18.355  0.00  0.00    +0.000 A 
ATOM     32  C   UNL     1       7.668   7.016  18.208  0.00  0.00    +0.000 A 
ATOM     33  C   UNL     1       6.434   7.400  17.678  0.00  0.00    +0.000 A 
ATOM     34  C   UNL     1       5.476   6.453  17.246  0.00  0.00    +0.000 A 
BRANCH  29  37
ATOM     35  C   UNL     1       3.596   2.012  17.875  0.00  0.00    +0.000 C 
ATOM     36  N   UNL     1       4.649   2.983  18.064  0.00  0.00    +0.000 N 
ATOM     37  C   UNL     1       4.873   3.939  17.098  0.00  0.00    +0.000 C 
ATOM     38  O   UNL     1       4.317   3.902  16.002  0.00  0.00    +0.000 OA
ATOM     39  H   UNL     1       5.036   3.134  18.990  0.00  0.00    +0.000 HD
ENDBRANCH  29  37
ENDBRANCH  27  34
ENDBRANCH   1  27
TORSDOF 6
ENDMDL
MODEL 9
REMARK VINA RESULT:      -8.2      2.418     10.412
REMARK  Name = 
REMARK  8 active torsions:
REMARK  status: ('A' for Active; 'I' for Inactive)
REMARK    1  A    between atoms: C_1  and  N_2
REMARK    2  A    between atoms: C_3  and  C_5
REMARK    3  A    between atoms: C_10  and  N_11
REMARK    4  A    between atoms: N_11  and  C_12
REMARK    5  A    between atoms: N_15  and  C_16
REMARK    6  A    between atoms: C_19  and  N_20
REMARK    7  A    between atoms: C_27  and  O_28
REMARK    8  A    between atoms: O_28  and  C_29
REMARK                            x       y       z     vdW  Elec       q    Type
REMARK                         _______ _______ _______ _____ _____    ______ ____
ROOT
ATOM      1  C   UNL     1      -3.202  11.721  18.192  0.00  0.00    +0.000 A 
ATOM      2  N   UNL     1      -2.117  11.479  18.962  0.00  0.00    +0.000 NA
ATOM      3  C   UNL     1      -1.151  10.664  18.497  0.00  0.00    +0.000 A 
ATOM      4  N   UNL     1      -0.078  10.397  19.356  0.00  0.00    +0.000 N 
ATOM      5  N   UNL     1      -1.200  10.100  17.286  0.00  0.00    +0.000 NA
ATOM      6  C   UNL     1      -2.257  10.364  16.548  0.00  0.00    +0.000 A 
ATOM      7  C   UNL     1      -3.309  11.139  16.958  0.00  0.00    +0.000 A 
ATOM      8  C   UNL     1      -4.327  11.177  15.880  0.00  0.00    +0.000 C 
ATOM      9  C   UNL     1      -3.828  10.022  14.976  0.00  0.00    +0.000 C 
ATOM     10  N   UNL     1      -2.400   9.886  15.224  0.00  0.00    +0.000 N 
ATOM     11  H   UNL     1      -0.090  11.033  20.132  0.00  0.00    +0.000 HD
ATOM     12  H   UNL     1      -1.934   8.989  15.127  0.00  0.00    +0.000 HD
ENDROOT
BRANCH   4  13
ATOM     13  C   UNL     1       0.793   9.300  19.399  0.00  0.00    +0.000 A 
ATOM     14  C   UNL     1       1.614   9.000  18.300  0.00  0.00    +0.000 A 
ATOM     15  C   UNL     1       2.470   7.902  18.269  0.00  0.00    +0.000 A 
ATOM     16  C   UNL     1       2.576   7.030  19.344  0.00  0.00    +0.000 A 
ATOM     17  C   UNL     1       1.759   7.305  20.447  0.00  0.00    +0.000 A 
ATOM     18  C   UNL     1       0.874   8.411  20.489  0.00  0.00    +0.000 A 
BRANCH  16  19
ATOM     19  N   UNL     1       3.446   5.965  19.270  0.00  0.00    +0.000 N 
ATOM     20  C   UNL     1       4.485   5.835  18.246  0.00  0.00    +0.000 C 
ATOM     21  C   UNL     1       4.204   4.621  17.351  0.00  0.00    +0.000 C 
ATOM     22  O   UNL     1       4.036   3.419  18.124  0.00  0.00    +0.000 OA
ATOM     23  C   UNL     1       2.934   3.567  19.035  0.00  0.00    +0.000 C 
ATOM     24  C   UNL     1       3.163   4.726  20.017  0.00  0.00    +0.000 C 
ENDBRANCH  16  19
BRANCH  18  25
ATOM     25  O   UNL     1       0.232   8.523  21.700  0.00  0.00    +0.000 OA
ATOM     26  C   UNL     1       0.805   9.360  22.695  0.00  0.00    +0.000 C 
ENDBRANCH  18  25
ENDBRANCH   4  13
BRANCH   1  27
ATOM     27  N   UNL     1      -4.275  12.497  18.712  0.00  0.00    +0.000 N 
ATOM     28  H   UNL     1      -3.896  13.168  19.384  0.00  0.00    +0.000 HD
BRANCH  27  34
ATOM     29  C   UNL     1      -5.887  12.313  20.605  0.00  0.00    +0.000 A 
ATOM     30  C   UNL     1      -6.947  11.605  21.212  0.00  0.00    +0.000 A 
ATOM     31  C   UNL     1      -7.545  10.512  20.584  0.00  0.00    +0.000 A 
ATOM     32  C   UNL     1      -7.081  10.098  19.346  0.00  0.00    +0.000 A 
ATOM     33  C   UNL     1      -6.026  10.782  18.738  0.00  0.00    +0.000 A 
ATOM     34  C   UNL     1      -5.431  11.921  19.330  0.00  0.00    +0.000 A 
BRANCH  29  37
ATOM     35  C   UNL     1      -4.414  14.218  23.536  0.00  0.00    +0.000 C 
ATOM     36  N   UNL     1      -5.164  13.249  22.771  0.00  0.00    +0.000 N 
ATOM     37  C   UNL     1      -5.351  13.448  21.420  0.00  0.00    +0.000 C 
ATOM     38  O   UNL     1      -5.042  14.500  20.867  0.00  0.00    +0.000 OA
ATOM     39  H   UNL     1      -5.320  12.320  23.147  0.00  0.00    +0.000 HD
ENDBRANCH  29  37
ENDBRANCH  27  34
ENDBRANCH   1  27
TORSDOF 6
ENDMDL
