MODEL 1
REMARK VINA RESULT:      -7.3      0.000      0.000
REMARK  Name = 
REMARK  9 active torsions:
REMARK  status: ('A' for Active; 'I' for Inactive)
REMARK    1  A    between atoms: C_1  and  C_2
REMARK    2  A    between atoms: C_7  and  N_8
REMARK    3  A    between atoms: C_17  and  C_18
REMARK    4  A    between atoms: C_19  and  C_20
REMARK    5  A    between atoms: C_20  and  C_21
REMARK    6  A    between atoms: C_21  and  C_22
REMARK    7  A    between atoms: N_27  and  C_28
REMARK    8  A    between atoms: C_28  and  C_29
REMARK    9  A    between atoms: C_29  and  O_30
REMARK                            x       y       z     vdW  Elec       q    Type
REMARK                         _______ _______ _______ _____ _____    ______ ____
ROOT
ATOM      1  C   UNL     1      -0.192   9.661  22.932  0.00  0.00    +0.000 C 
ATOM      2  C   UNL     1       0.438   9.682  21.583  0.00  0.00    +0.000 A 
ATOM      3  N   UNL     1       0.866   8.535  21.047  0.00  0.00    +0.000 NA
ATOM      4  N   UNL     1       1.431   8.875  19.851  0.00  0.00    +0.000 N 
ATOM      5  C   UNL     1       2.134   7.901  19.075  0.00  0.00    +0.000 A 
ATOM      6  C   UNL     1       2.099   6.587  19.488  0.00  0.00    +0.000 A 
ATOM      7  C   UNL     1       2.906   5.680  18.821  0.00  0.00    +0.000 A 
ATOM      8  N   UNL     1       3.662   6.072  17.781  0.00  0.00    +0.000 NA
ATOM      9  C   UNL     1       3.593   7.352  17.415  0.00  0.00    +0.000 A 
ATOM     10  N   UNL     1       2.868   8.300  18.015  0.00  0.00    +0.000 NA
ATOM     11  C   UNL     1       1.259  10.225  19.592  0.00  0.00    +0.000 A 
ATOM     12  C   UNL     1       1.635  10.923  18.332  0.00  0.00    +0.000 C 
ATOM     13  C   UNL     1       0.651  10.779  20.710  0.00  0.00    +0.000 A 
ENDROOT
BRANCH   7  14
ATOM     14  N   UNL     1       2.963   4.373  19.223  0.00  0.00    +0.000 N 
ATOM     15  C   UNL     1       3.593   3.353  18.381  0.00  0.00    +0.000 C 
ATOM     16  C   UNL     1       2.620   2.185  18.170  0.00  0.00    +0.000 C 
ATOM     17  O   UNL     1       2.131   1.668  19.421  0.00  0.00    +0.000 OA
ATOM     18  C   UNL     1       1.454   2.696  20.163  0.00  0.00    +0.000 C 
ATOM     19  C   UNL     1       2.385   3.878  20.469  0.00  0.00    +0.000 C 
ENDBRANCH   7  14
BRANCH  13  20
ATOM     20  C   UNL     1       0.258  12.214  20.852  0.00  0.00    +0.000 C 
BRANCH  20  21
ATOM     21  C   UNL     1      -0.788  12.694  19.859  0.00  0.00    +0.000 C 
BRANCH  21  22
ATOM     22  C   UNL     1      -2.105  12.977  20.564  0.00  0.00    +0.000 C 
ATOM     23  O   UNL     1      -2.172  13.739  21.519  0.00  0.00    +0.000 OA
ATOM     24  N   UNL     1      -3.225  12.348  20.044  0.00  0.00    +0.000 N 
ATOM     25  C   UNL     1      -4.550  12.703  20.558  0.00  0.00    +0.000 C 
ATOM     26  C   UNL     1      -5.500  13.072  19.401  0.00  0.00    +0.000 C 
ATOM     27  N   UNL     1      -5.592  12.050  18.329  0.00  0.00    +0.000 NA
ATOM     28  C   UNL     1      -4.214  11.761  17.849  0.00  0.00    +0.000 C 
ATOM     29  C   UNL     1      -3.226  11.355  18.964  0.00  0.00    +0.000 C 
BRANCH  27  30
ATOM     30  C   UNL     1      -6.259  10.807  18.784  0.00  0.00    +0.000 C 
BRANCH  30  31
ATOM     31  C   UNL     1      -7.410  11.041  19.779  0.00  0.00    +0.000 C 
BRANCH  31  32
ATOM     32  O   UNL     1      -7.309  10.174  20.902  0.00  0.00    +0.000 OA
ATOM     33  H   UNL     1      -6.728  10.631  21.538  0.00  0.00    +0.000 HD
ENDBRANCH  31  32
ENDBRANCH  30  31
ENDBRANCH  27  30
ENDBRANCH  21  22
ENDBRANCH  20  21
ENDBRANCH  13  20
TORSDOF 7
ENDMDL
MODEL 2
REMARK VINA RESULT:      -7.3      2.002      2.387
REMARK  Name = 
REMARK  9 active torsions:
REMARK  status: ('A' for Active; 'I' for Inactive)
REMARK    1  A    between atoms: C_1  and  C_2
REMARK    2  A    between atoms: C_7  and  N_8
REMARK    3  A    between atoms: C_17  and  C_18
REMARK    4  A    between atoms: C_19  and  C_20
REMARK    5  A    between atoms: C_20  and  C_21
REMARK    6  A    between atoms: C_21  and  C_22
REMARK    7  A    between atoms: N_27  and  C_28
REMARK    8  A    between atoms: C_28  and  C_29
REMARK    9  A    between atoms: C_29  and  O_30
REMARK                            x       y       z     vdW  Elec       q    Type
REMARK                         _______ _______ _______ _____ _____    ______ ____
ROOT
ATOM      1  C   UNL     1      -0.445   9.777  23.262  0.00  0.00    +0.000 C 
ATOM      2  C   UNL     1       0.183   9.860  21.914  0.00  0.00    +0.000 A 
ATOM      3  N   UNL     1       0.569   8.735  21.305  0.00  0.00    +0.000 NA
ATOM      4  N   UNL     1       1.143   9.131  20.130  0.00  0.00    +0.000 N 
ATOM      5  C   UNL     1       1.810   8.183  19.291  0.00  0.00    +0.000 A 
ATOM      6  C   UNL     1       1.729   6.848  19.621  0.00  0.00    +0.000 A 
ATOM      7  C   UNL     1       2.502   5.957  18.895  0.00  0.00    +0.000 A 
ATOM      8  N   UNL     1       3.270   6.388  17.878  0.00  0.00    +0.000 NA
ATOM      9  C   UNL     1       3.245   7.690  17.594  0.00  0.00    +0.000 A 
ATOM     10  N   UNL     1       2.555   8.622  18.255  0.00  0.00    +0.000 NA
ATOM     11  C   UNL     1       1.018  10.500  19.958  0.00  0.00    +0.000 A 
ATOM     12  C   UNL     1       1.416  11.262  18.743  0.00  0.00    +0.000 C 
ATOM     13  C   UNL     1       0.432  11.003  21.111  0.00  0.00    +0.000 A 
ENDROOT
BRANCH   7  14
ATOM     14  N   UNL     1       2.515   4.627  19.214  0.00  0.00    +0.000 N 
ATOM     15  C   UNL     1       1.677   3.670  18.487  0.00  0.00    +0.000 C 
ATOM     16  C   UNL     1       0.836   2.859  19.482  0.00  0.00    +0.000 C 
ATOM     17  O   UNL     1       1.655   2.244  20.494  0.00  0.00    +0.000 OA
ATOM     18  C   UNL     1       2.390   3.242  21.223  0.00  0.00    +0.000 C 
ATOM     19  C   UNL     1       3.307   4.057  20.300  0.00  0.00    +0.000 C 
ENDBRANCH   7  14
BRANCH  13  20
ATOM     20  C   UNL     1       0.090  12.439  21.346  0.00  0.00    +0.000 C 
BRANCH  20  21
ATOM     21  C   UNL     1      -1.383  12.780  21.192  0.00  0.00    +0.000 C 
BRANCH  21  22
ATOM     22  C   UNL     1      -1.827  13.739  22.286  0.00  0.00    +0.000 C 
ATOM     23  O   UNL     1      -1.061  14.565  22.765  0.00  0.00    +0.000 OA
ATOM     24  N   UNL     1      -3.151  13.643  22.684  0.00  0.00    +0.000 N 
ATOM     25  C   UNL     1      -3.696  14.643  23.605  0.00  0.00    +0.000 C 
ATOM     26  C   UNL     1      -4.993  15.254  23.038  0.00  0.00    +0.000 C 
ATOM     27  N   UNL     1      -6.024  14.259  22.648  0.00  0.00    +0.000 NA
ATOM     28  C   UNL     1      -5.398  13.297  21.701  0.00  0.00    +0.000 C 
ATOM     29  C   UNL     1      -4.111  12.631  22.231  0.00  0.00    +0.000 C 
BRANCH  27  30
ATOM     30  C   UNL     1      -6.597  13.547  23.815  0.00  0.00    +0.000 C 
BRANCH  30  31
ATOM     31  C   UNL     1      -7.782  12.628  23.468  0.00  0.00    +0.000 C 
BRANCH  31  32
ATOM     32  O   UNL     1      -7.527  11.284  23.860  0.00  0.00    +0.000 OA
ATOM     33  H   UNL     1      -7.200  11.333  24.778  0.00  0.00    +0.000 HD
ENDBRANCH  31  32
ENDBRANCH  30  31
ENDBRANCH  27  30
ENDBRANCH  21  22
ENDBRANCH  20  21
ENDBRANCH  13  20
TORSDOF 7
ENDMDL
MODEL 3
REMARK VINA RESULT:      -7.2      2.125      2.560
REMARK  Name = 
REMARK  9 active torsions:
REMARK  status: ('A' for Active; 'I' for Inactive)
REMARK    1  A    between atoms: C_1  and  C_2
REMARK    2  A    between atoms: C_7  and  N_8
REMARK    3  A    between atoms: C_17  and  C_18
REMARK    4  A    between atoms: C_19  and  C_20
REMARK    5  A    between atoms: C_20  and  C_21
REMARK    6  A    between atoms: C_21  and  C_22
REMARK    7  A    between atoms: N_27  and  C_28
REMARK    8  A    between atoms: C_28  and  C_29
REMARK    9  A    between atoms: C_29  and  O_30
REMARK                            x       y       z     vdW  Elec       q    Type
REMARK                         _______ _______ _______ _____ _____    ______ ____
ROOT
ATOM      1  C   UNL     1      -0.115   9.324  23.050  0.00  0.00    +0.000 C 
ATOM      2  C   UNL     1       0.463   9.400  21.680  0.00  0.00    +0.000 A 
ATOM      3  N   UNL     1       0.952   8.291  21.117  0.00  0.00    +0.000 NA
ATOM      4  N   UNL     1       1.448   8.681  19.906  0.00  0.00    +0.000 N 
ATOM      5  C   UNL     1       2.190   7.765  19.095  0.00  0.00    +0.000 A 
ATOM      6  C   UNL     1       2.263   6.449  19.495  0.00  0.00    +0.000 A 
ATOM      7  C   UNL     1       3.107   5.607  18.791  0.00  0.00    +0.000 A 
ATOM      8  N   UNL     1       3.797   6.060  17.729  0.00  0.00    +0.000 NA
ATOM      9  C   UNL     1       3.624   7.335  17.380  0.00  0.00    +0.000 A 
ATOM     10  N   UNL     1       2.857   8.224  18.014  0.00  0.00    +0.000 NA
ATOM     11  C   UNL     1       1.172  10.017  19.668  0.00  0.00    +0.000 A 
ATOM     12  C   UNL     1       1.454  10.750  18.403  0.00  0.00    +0.000 C 
ATOM     13  C   UNL     1       0.567  10.517  20.812  0.00  0.00    +0.000 A 
ENDROOT
BRANCH   7  14
ATOM     14  N   UNL     1       3.272   4.304  19.177  0.00  0.00    +0.000 N 
ATOM     15  C   UNL     1       4.256   3.442  18.519  0.00  0.00    +0.000 C 
ATOM     16  C   UNL     1       3.577   2.152  18.042  0.00  0.00    +0.000 C 
ATOM     17  O   UNL     1       2.871   1.496  19.110  0.00  0.00    +0.000 OA
ATOM     18  C   UNL     1       1.866   2.365  19.659  0.00  0.00    +0.000 C 
ATOM     19  C   UNL     1       2.478   3.657  20.217  0.00  0.00    +0.000 C 
ENDBRANCH   7  14
BRANCH  13  20
ATOM     20  C   UNL     1       0.079  11.920  20.984  0.00  0.00    +0.000 C 
BRANCH  20  21
ATOM     21  C   UNL     1      -1.311  12.187  20.431  0.00  0.00    +0.000 C 
BRANCH  21  22
ATOM     22  C   UNL     1      -1.742  13.614  20.732  0.00  0.00    +0.000 C 
ATOM     23  O   UNL     1      -1.137  14.577  20.279  0.00  0.00    +0.000 OA
ATOM     24  N   UNL     1      -2.873  13.758  21.520  0.00  0.00    +0.000 N 
ATOM     25  C   UNL     1      -3.447  15.092  21.711  0.00  0.00    +0.000 C 
ATOM     26  C   UNL     1      -4.952  15.089  21.372  0.00  0.00    +0.000 C 
ATOM     27  N   UNL     1      -5.742  14.053  22.083  0.00  0.00    +0.000 NA
ATOM     28  C   UNL     1      -5.107  12.732  21.824  0.00  0.00    +0.000 C 
ATOM     29  C   UNL     1      -3.605  12.670  22.175  0.00  0.00    +0.000 C 
BRANCH  27  30
ATOM     30  C   UNL     1      -5.836  14.311  23.540  0.00  0.00    +0.000 C 
BRANCH  30  31
ATOM     31  C   UNL     1      -6.275  15.742  23.896  0.00  0.00    +0.000 C 
BRANCH  31  32
ATOM     32  O   UNL     1      -5.360  16.357  24.794  0.00  0.00    +0.000 OA
ATOM     33  H   UNL     1      -5.356  15.798  25.593  0.00  0.00    +0.000 HD
ENDBRANCH  31  32
ENDBRANCH  30  31
ENDBRANCH  27  30
ENDBRANCH  21  22
ENDBRANCH  20  21
ENDBRANCH  13  20
TORSDOF 7
ENDMDL
MODEL 4
REMARK VINA RESULT:      -7.2      2.866      3.949
REMARK  Name = 
REMARK  9 active torsions:
REMARK  status: ('A' for Active; 'I' for Inactive)
REMARK    1  A    between atoms: C_1  and  C_2
REMARK    2  A    between atoms: C_7  and  N_8
REMARK    3  A    between atoms: C_17  and  C_18
REMARK    4  A    between atoms: C_19  and  C_20
REMARK    5  A    between atoms: C_20  and  C_21
REMARK    6  A    between atoms: C_21  and  C_22
REMARK    7  A    between atoms: N_27  and  C_28
REMARK    8  A    between atoms: C_28  and  C_29
REMARK    9  A    between atoms: C_29  and  O_30
REMARK                            x       y       z     vdW  Elec       q    Type
REMARK                         _______ _______ _______ _____ _____    ______ ____
ROOT
ATOM      1  C   UNL     1       1.747  11.028  17.807  0.00  0.00    +0.000 C 
ATOM      2  C   UNL     1       1.473   9.950  18.796  0.00  0.00    +0.000 A 
ATOM      3  N   UNL     1       2.252   8.864  18.808  0.00  0.00    +0.000 NA
ATOM      4  N   UNL     1       1.730   8.048  19.772  0.00  0.00    +0.000 N 
ATOM      5  C   UNL     1       2.231   6.720  19.949  0.00  0.00    +0.000 A 
ATOM      6  C   UNL     1       3.343   6.339  19.230  0.00  0.00    +0.000 A 
ATOM      7  C   UNL     1       3.726   5.010  19.291  0.00  0.00    +0.000 A 
ATOM      8  N   UNL     1       3.052   4.138  20.063  0.00  0.00    +0.000 NA
ATOM      9  C   UNL     1       2.021   4.606  20.767  0.00  0.00    +0.000 A 
ATOM     10  N   UNL     1       1.564   5.860  20.748  0.00  0.00    +0.000 NA
ATOM     11  C   UNL     1       0.688   8.675  20.436  0.00  0.00    +0.000 A 
ATOM     12  C   UNL     1      -0.033   8.137  21.622  0.00  0.00    +0.000 C 
ATOM     13  C   UNL     1       0.477   9.892  19.804  0.00  0.00    +0.000 A 
ENDROOT
BRANCH   7  14
ATOM     14  N   UNL     1       4.783   4.555  18.552  0.00  0.00    +0.000 N 
ATOM     15  C   UNL     1       6.161   4.887  18.923  0.00  0.00    +0.000 C 
ATOM     16  C   UNL     1       6.889   5.496  17.718  0.00  0.00    +0.000 C 
ATOM     17  O   UNL     1       6.801   4.647  16.559  0.00  0.00    +0.000 OA
ATOM     18  C   UNL     1       5.428   4.426  16.198  0.00  0.00    +0.000 C 
ATOM     19  C   UNL     1       4.644   3.758  17.337  0.00  0.00    +0.000 C 
ENDBRANCH   7  14
BRANCH  13  20
ATOM     20  C   UNL     1      -0.544  10.906  20.211  0.00  0.00    +0.000 C 
BRANCH  20  21
ATOM     21  C   UNL     1      -0.124  11.814  21.354  0.00  0.00    +0.000 C 
BRANCH  21  22
ATOM     22  C   UNL     1      -1.068  11.656  22.536  0.00  0.00    +0.000 C 
ATOM     23  O   UNL     1      -0.840  10.862  23.439  0.00  0.00    +0.000 OA
ATOM     24  N   UNL     1      -2.179  12.485  22.547  0.00  0.00    +0.000 N 
ATOM     25  C   UNL     1      -3.039  12.514  23.732  0.00  0.00    +0.000 C 
ATOM     26  C   UNL     1      -3.245  13.963  24.218  0.00  0.00    +0.000 C 
ATOM     27  N   UNL     1      -3.730  14.900  23.174  0.00  0.00    +0.000 NA
ATOM     28  C   UNL     1      -2.796  14.825  22.019  0.00  0.00    +0.000 C 
ATOM     29  C   UNL     1      -2.576  13.399  21.471  0.00  0.00    +0.000 C 
BRANCH  27  30
ATOM     30  C   UNL     1      -5.118  14.604  22.744  0.00  0.00    +0.000 C 
BRANCH  30  31
ATOM     31  C   UNL     1      -6.196  15.094  23.726  0.00  0.00    +0.000 C 
BRANCH  31  32
ATOM     32  O   UNL     1      -6.821  14.006  24.396  0.00  0.00    +0.000 OA
ATOM     33  H   UNL     1      -7.649  13.834  23.910  0.00  0.00    +0.000 HD
ENDBRANCH  31  32
ENDBRANCH  30  31
ENDBRANCH  27  30
ENDBRANCH  21  22
ENDBRANCH  20  21
ENDBRANCH  13  20
TORSDOF 7
ENDMDL
MODEL 5
REMARK VINA RESULT:      -7.2      1.977      2.406
REMARK  Name = 
REMARK  9 active torsions:
REMARK  status: ('A' for Active; 'I' for Inactive)
REMARK    1  A    between atoms: C_1  and  C_2
REMARK    2  A    between atoms: C_7  and  N_8
REMARK    3  A    between atoms: C_17  and  C_18
REMARK    4  A    between atoms: C_19  and  C_20
REMARK    5  A    between atoms: C_20  and  C_21
REMARK    6  A    between atoms: C_21  and  C_22
REMARK    7  A    between atoms: N_27  and  C_28
REMARK    8  A    between atoms: C_28  and  C_29
REMARK    9  A    between atoms: C_29  and  O_30
REMARK                            x       y       z     vdW  Elec       q    Type
REMARK                         _______ _______ _______ _____ _____    ______ ____
ROOT
ATOM      1  C   UNL     1      -0.291   9.379  22.865  0.00  0.00    +0.000 C 
ATOM      2  C   UNL     1       0.398   9.450  21.547  0.00  0.00    +0.000 A 
ATOM      3  N   UNL     1       0.795   8.317  20.958  0.00  0.00    +0.000 NA
ATOM      4  N   UNL     1       1.428   8.702  19.811  0.00  0.00    +0.000 N 
ATOM      5  C   UNL     1       2.119   7.742  19.005  0.00  0.00    +0.000 A 
ATOM      6  C   UNL     1       2.004   6.409  19.333  0.00  0.00    +0.000 A 
ATOM      7  C   UNL     1       2.796   5.505  18.645  0.00  0.00    +0.000 A 
ATOM      8  N   UNL     1       3.616   5.922  17.664  0.00  0.00    +0.000 NA
ATOM      9  C   UNL     1       3.623   7.223  17.376  0.00  0.00    +0.000 A 
ATOM     10  N   UNL     1       2.918   8.168  18.003  0.00  0.00    +0.000 NA
ATOM     11  C   UNL     1       1.331  10.072  19.630  0.00  0.00    +0.000 A 
ATOM     12  C   UNL     1       1.796  10.825  18.433  0.00  0.00    +0.000 C 
ATOM     13  C   UNL     1       0.701  10.586  20.754  0.00  0.00    +0.000 A 
ENDROOT
BRANCH   7  14
ATOM     14  N   UNL     1       2.775   4.176  18.967  0.00  0.00    +0.000 N 
ATOM     15  C   UNL     1       3.522   3.667  20.120  0.00  0.00    +0.000 C 
ATOM     16  C   UNL     1       4.423   2.505  19.681  0.00  0.00    +0.000 C 
ATOM     17  O   UNL     1       3.677   1.485  18.992  0.00  0.00    +0.000 OA
ATOM     18  C   UNL     1       3.035   2.030  17.827  0.00  0.00    +0.000 C 
ATOM     19  C   UNL     1       2.064   3.162  18.193  0.00  0.00    +0.000 C 
ENDBRANCH   7  14
BRANCH  13  20
ATOM     20  C   UNL     1       0.369  12.028  20.970  0.00  0.00    +0.000 C 
BRANCH  20  21
ATOM     21  C   UNL     1      -0.887  12.509  20.263  0.00  0.00    +0.000 C 
BRANCH  21  22
ATOM     22  C   UNL     1      -1.330  13.855  20.816  0.00  0.00    +0.000 C 
ATOM     23  O   UNL     1      -0.719  14.885  20.565  0.00  0.00    +0.000 OA
ATOM     24  N   UNL     1      -2.478  13.849  21.592  0.00  0.00    +0.000 N 
ATOM     25  C   UNL     1      -3.062  15.124  22.016  0.00  0.00    +0.000 C 
ATOM     26  C   UNL     1      -4.559  15.184  21.649  0.00  0.00    +0.000 C 
ATOM     27  N   UNL     1      -5.360  14.033  22.137  0.00  0.00    +0.000 NA
ATOM     28  C   UNL     1      -4.714  12.785  21.649  0.00  0.00    +0.000 C 
ATOM     29  C   UNL     1      -3.221  12.657  22.016  0.00  0.00    +0.000 C 
BRANCH  27  30
ATOM     30  C   UNL     1      -5.487  14.015  23.613  0.00  0.00    +0.000 C 
BRANCH  30  31
ATOM     31  C   UNL     1      -6.166  12.750  24.168  0.00  0.00    +0.000 C 
BRANCH  31  32
ATOM     32  O   UNL     1      -5.265  11.980  24.955  0.00  0.00    +0.000 OA
ATOM     33  H   UNL     1      -4.990  11.234  24.390  0.00  0.00    +0.000 HD
ENDBRANCH  31  32
ENDBRANCH  30  31
ENDBRANCH  27  30
ENDBRANCH  21  22
ENDBRANCH  20  21
ENDBRANCH  13  20
TORSDOF 7
ENDMDL
MODEL 6
REMARK VINA RESULT:      -7.2      2.311     10.009
REMARK  Name = 
REMARK  9 active torsions:
REMARK  status: ('A' for Active; 'I' for Inactive)
REMARK    1  A    between atoms: C_1  and  C_2
REMARK    2  A    between atoms: C_7  and  N_8
REMARK    3  A    between atoms: C_17  and  C_18
REMARK    4  A    between atoms: C_19  and  C_20
REMARK    5  A    between atoms: C_20  and  C_21
REMARK    6  A    between atoms: C_21  and  C_22
REMARK    7  A    between atoms: N_27  and  C_28
REMARK    8  A    between atoms: C_28  and  C_29
REMARK    9  A    between atoms: C_29  and  O_30
REMARK                            x       y       z     vdW  Elec       q    Type
REMARK                         _______ _______ _______ _____ _____    ______ ____
ROOT
ATOM      1  C   UNL     1       0.720  10.984  20.996  0.00  0.00    +0.000 C 
ATOM      2  C   UNL     1      -0.318  10.944  19.929  0.00  0.00    +0.000 A 
ATOM      3  N   UNL     1      -1.483  11.566  20.131  0.00  0.00    +0.000 NA
ATOM      4  N   UNL     1      -2.233  11.314  19.017  0.00  0.00    +0.000 N 
ATOM      5  C   UNL     1      -3.608  11.705  18.962  0.00  0.00    +0.000 A 
ATOM      6  C   UNL     1      -4.113  12.468  19.992  0.00  0.00    +0.000 A 
ATOM      7  C   UNL     1      -5.476  12.710  20.008  0.00  0.00    +0.000 A 
ATOM      8  N   UNL     1      -6.265  12.244  19.023  0.00  0.00    +0.000 NA
ATOM      9  C   UNL     1      -5.683  11.561  18.037  0.00  0.00    +0.000 A 
ATOM     10  N   UNL     1      -4.386  11.256  17.954  0.00  0.00    +0.000 NA
ATOM     11  C   UNL     1      -1.493  10.623  18.072  0.00  0.00    +0.000 A 
ATOM     12  C   UNL     1      -1.943  10.286  16.693  0.00  0.00    +0.000 C 
ATOM     13  C   UNL     1      -0.262  10.340  18.647  0.00  0.00    +0.000 A 
ENDROOT
BRANCH   7  14
ATOM     14  N   UNL     1      -6.047  13.407  21.036  0.00  0.00    +0.000 N 
ATOM     15  C   UNL     1      -5.353  14.538  21.657  0.00  0.00    +0.000 C 
ATOM     16  C   UNL     1      -5.290  14.335  23.177  0.00  0.00    +0.000 C 
ATOM     17  O   UNL     1      -6.593  14.091  23.736  0.00  0.00    +0.000 OA
ATOM     18  C   UNL     1      -7.186  12.924  23.144  0.00  0.00    +0.000 C 
ATOM     19  C   UNL     1      -7.343  13.077  21.624  0.00  0.00    +0.000 C 
ENDBRANCH   7  14
BRANCH  13  20
ATOM     20  C   UNL     1       0.861   9.624  17.967  0.00  0.00    +0.000 C 
BRANCH  20  21
ATOM     21  C   UNL     1       1.477   8.491  18.769  0.00  0.00    +0.000 C 
BRANCH  21  22
ATOM     22  C   UNL     1       2.595   7.824  17.982  0.00  0.00    +0.000 C 
ATOM     23  O   UNL     1       3.283   8.452  17.187  0.00  0.00    +0.000 OA
ATOM     24  N   UNL     1       2.808   6.480  18.241  0.00  0.00    +0.000 N 
ATOM     25  C   UNL     1       3.973   5.813  17.653  0.00  0.00    +0.000 C 
ATOM     26  C   UNL     1       4.789   5.086  18.741  0.00  0.00    +0.000 C 
ATOM     27  N   UNL     1       3.999   4.152  19.582  0.00  0.00    +0.000 NA
ATOM     28  C   UNL     1       2.853   4.908  20.155  0.00  0.00    +0.000 C 
ATOM     29  C   UNL     1       1.982   5.631  19.106  0.00  0.00    +0.000 C 
BRANCH  27  30
ATOM     30  C   UNL     1       3.521   2.970  18.826  0.00  0.00    +0.000 C 
BRANCH  30  31
ATOM     31  C   UNL     1       2.420   2.170  19.544  0.00  0.00    +0.000 C 
BRANCH  31  32
ATOM     32  O   UNL     1       1.420   1.732  18.632  0.00  0.00    +0.000 OA
ATOM     33  H   UNL     1       0.596   2.176  18.907  0.00  0.00    +0.000 HD
ENDBRANCH  31  32
ENDBRANCH  30  31
ENDBRANCH  27  30
ENDBRANCH  21  22
ENDBRANCH  20  21
ENDBRANCH  13  20
TORSDOF 7
ENDMDL
MODEL 7
REMARK VINA RESULT:      -7.1      3.494      5.879
REMARK  Name = 
REMARK  9 active torsions:
REMARK  status: ('A' for Active; 'I' for Inactive)
REMARK    1  A    between atoms: C_1  and  C_2
REMARK    2  A    between atoms: C_7  and  N_8
REMARK    3  A    between atoms: C_17  and  C_18
REMARK    4  A    between atoms: C_19  and  C_20
REMARK    5  A    between atoms: C_20  and  C_21
REMARK    6  A    between atoms: C_21  and  C_22
REMARK    7  A    between atoms: N_27  and  C_28
REMARK    8  A    between atoms: C_28  and  C_29
REMARK    9  A    between atoms: C_29  and  O_30
REMARK                            x       y       z     vdW  Elec       q    Type
REMARK                         _______ _______ _______ _____ _____    ______ ____
ROOT
ATOM      1  C   UNL     1      -0.465   9.922  23.137  0.00  0.00    +0.000 C 
ATOM      2  C   UNL     1       0.060   9.900  21.744  0.00  0.00    +0.000 A 
ATOM      3  N   UNL     1       0.660   8.795  21.291  0.00  0.00    +0.000 NA
ATOM      4  N   UNL     1       1.071   9.092  20.023  0.00  0.00    +0.000 N 
ATOM      5  C   UNL     1       1.893   8.177  19.292  0.00  0.00    +0.000 A 
ATOM      6  C   UNL     1       2.132   6.934  19.836  0.00  0.00    +0.000 A 
ATOM      7  C   UNL     1       3.049   6.117  19.198  0.00  0.00    +0.000 A 
ATOM      8  N   UNL     1       3.649   6.517  18.063  0.00  0.00    +0.000 NA
ATOM      9  C   UNL     1       3.317   7.713  17.578  0.00  0.00    +0.000 A 
ATOM     10  N   UNL     1       2.468   8.577  18.138  0.00  0.00    +0.000 NA
ATOM     11  C   UNL     1       0.632  10.350  19.646  0.00  0.00    +0.000 A 
ATOM     12  C   UNL     1       0.788  10.955  18.294  0.00  0.00    +0.000 C 
ATOM     13  C   UNL     1       0.005  10.910  20.750  0.00  0.00    +0.000 A 
ENDROOT
BRANCH   7  14
ATOM     14  N   UNL     1       3.378   4.897  19.723  0.00  0.00    +0.000 N 
ATOM     15  C   UNL     1       4.537   4.151  19.228  0.00  0.00    +0.000 C 
ATOM     16  C   UNL     1       4.109   2.731  18.835  0.00  0.00    +0.000 C 
ATOM     17  O   UNL     1       3.421   2.065  19.910  0.00  0.00    +0.000 OA
ATOM     18  C   UNL     1       2.251   2.805  20.295  0.00  0.00    +0.000 C 
ATOM     19  C   UNL     1       2.606   4.223  20.764  0.00  0.00    +0.000 C 
ENDBRANCH   7  14
BRANCH  13  20
ATOM     20  C   UNL     1      -0.640  12.258  20.780  0.00  0.00    +0.000 C 
BRANCH  20  21
ATOM     21  C   UNL     1       0.300  13.412  21.085  0.00  0.00    +0.000 C 
BRANCH  21  22
ATOM     22  C   UNL     1       0.623  14.188  19.817  0.00  0.00    +0.000 C 
ATOM     23  O   UNL     1      -0.259  14.634  19.095  0.00  0.00    +0.000 OA
ATOM     24  N   UNL     1       1.968  14.387  19.547  0.00  0.00    +0.000 N 
ATOM     25  C   UNL     1       2.353  15.268  18.442  0.00  0.00    +0.000 C 
ATOM     26  C   UNL     1       3.360  16.333  18.924  0.00  0.00    +0.000 C 
ATOM     27  N   UNL     1       4.551  15.786  19.620  0.00  0.00    +0.000 NA
ATOM     28  C   UNL     1       4.075  14.922  20.734  0.00  0.00    +0.000 C 
ATOM     29  C   UNL     1       3.088  13.817  20.303  0.00  0.00    +0.000 C 
BRANCH  27  30
ATOM     30  C   UNL     1       5.441  15.024  18.711  0.00  0.00    +0.000 C 
BRANCH  30  31
ATOM     31  C   UNL     1       6.845  15.634  18.553  0.00  0.00    +0.000 C 
BRANCH  31  32
ATOM     32  O   UNL     1       7.508  15.117  17.406  0.00  0.00    +0.000 OA
ATOM     33  H   UNL     1       8.421  14.924  17.692  0.00  0.00    +0.000 HD
ENDBRANCH  31  32
ENDBRANCH  30  31
ENDBRANCH  27  30
ENDBRANCH  21  22
ENDBRANCH  20  21
ENDBRANCH  13  20
TORSDOF 7
ENDMDL
MODEL 8
REMARK VINA RESULT:      -7.1      3.951     10.264
REMARK  Name = 
REMARK  9 active torsions:
REMARK  status: ('A' for Active; 'I' for Inactive)
REMARK    1  A    between atoms: C_1  and  C_2
REMARK    2  A    between atoms: C_7  and  N_8
REMARK    3  A    between atoms: C_17  and  C_18
REMARK    4  A    between atoms: C_19  and  C_20
REMARK    5  A    between atoms: C_20  and  C_21
REMARK    6  A    between atoms: C_21  and  C_22
REMARK    7  A    between atoms: N_27  and  C_28
REMARK    8  A    between atoms: C_28  and  C_29
REMARK    9  A    between atoms: C_29  and  O_30
REMARK                            x       y       z     vdW  Elec       q    Type
REMARK                         _______ _______ _______ _____ _____    ______ ____
ROOT
ATOM      1  C   UNL     1       2.113   8.653  17.951  0.00  0.00    +0.000 C 
ATOM      2  C   UNL     1       1.453   9.329  19.101  0.00  0.00    +0.000 A 
ATOM      3  N   UNL     1       1.261  10.651  19.057  0.00  0.00    +0.000 NA
ATOM      4  N   UNL     1       0.692  10.980  20.254  0.00  0.00    +0.000 N 
ATOM      5  C   UNL     1       0.490  12.351  20.611  0.00  0.00    +0.000 A 
ATOM      6  C   UNL     1       0.745  13.318  19.663  0.00  0.00    +0.000 A 
ATOM      7  C   UNL     1       0.696  14.643  20.064  0.00  0.00    +0.000 A 
ATOM      8  N   UNL     1       0.369  14.964  21.328  0.00  0.00    +0.000 NA
ATOM      9  C   UNL     1       0.085  13.966  22.164  0.00  0.00    +0.000 A 
ATOM     10  N   UNL     1       0.134  12.663  21.876  0.00  0.00    +0.000 NA
ATOM     11  C   UNL     1       0.429   9.845  21.004  0.00  0.00    +0.000 A 
ATOM     12  C   UNL     1      -0.295   9.811  22.304  0.00  0.00    +0.000 C 
ATOM     13  C   UNL     1       0.942   8.766  20.299  0.00  0.00    +0.000 A 
ENDROOT
BRANCH   7  14
ATOM     14  N   UNL     1       1.000  15.647  19.186  0.00  0.00    +0.000 N 
ATOM     15  C   UNL     1       2.111  15.510  18.240  0.00  0.00    +0.000 C 
ATOM     16  C   UNL     1       3.051  16.716  18.368  0.00  0.00    +0.000 C 
ATOM     17  O   UNL     1       2.341  17.960  18.235  0.00  0.00    +0.000 OA
ATOM     18  C   UNL     1       1.320  18.069  19.241  0.00  0.00    +0.000 C 
ATOM     19  C   UNL     1       0.299  16.926  19.137  0.00  0.00    +0.000 C 
ENDBRANCH   7  14
BRANCH  13  20
ATOM     20  C   UNL     1       0.859   7.337  20.733  0.00  0.00    +0.000 C 
BRANCH  20  21
ATOM     21  C   UNL     1       2.195   6.623  20.846  0.00  0.00    +0.000 C 
BRANCH  21  22
ATOM     22  C   UNL     1       2.097   5.214  20.281  0.00  0.00    +0.000 C 
ATOM     23  O   UNL     1       1.176   4.465  20.578  0.00  0.00    +0.000 OA
ATOM     24  N   UNL     1       3.091   4.843  19.388  0.00  0.00    +0.000 N 
ATOM     25  C   UNL     1       2.972   3.571  18.672  0.00  0.00    +0.000 C 
ATOM     26  C   UNL     1       3.132   3.786  17.153  0.00  0.00    +0.000 C 
ATOM     27  N   UNL     1       4.364   4.514  16.760  0.00  0.00    +0.000 NA
ATOM     28  C   UNL     1       4.399   5.797  17.513  0.00  0.00    +0.000 C 
ATOM     29  C   UNL     1       4.274   5.638  19.043  0.00  0.00    +0.000 C 
BRANCH  27  30
ATOM     30  C   UNL     1       5.594   3.726  17.011  0.00  0.00    +0.000 C 
BRANCH  30  31
ATOM     31  C   UNL     1       6.897   4.528  16.844  0.00  0.00    +0.000 C 
BRANCH  31  32
ATOM     32  O   UNL     1       7.890   4.103  17.770  0.00  0.00    +0.000 OA
ATOM     33  H   UNL     1       8.688   4.623  17.560  0.00  0.00    +0.000 HD
ENDBRANCH  31  32
ENDBRANCH  30  31
ENDBRANCH  27  30
ENDBRANCH  21  22
ENDBRANCH  20  21
ENDBRANCH  13  20
TORSDOF 7
ENDMDL
MODEL 9
REMARK VINA RESULT:      -7.1      2.722      3.838
REMARK  Name = 
REMARK  9 active torsions:
REMARK  status: ('A' for Active; 'I' for Inactive)
REMARK    1  A    between atoms: C_1  and  C_2
REMARK    2  A    between atoms: C_7  and  N_8
REMARK    3  A    between atoms: C_17  and  C_18
REMARK    4  A    between atoms: C_19  and  C_20
REMARK    5  A    between atoms: C_20  and  C_21
REMARK    6  A    between atoms: C_21  and  C_22
REMARK    7  A    between atoms: N_27  and  C_28
REMARK    8  A    between atoms: C_28  and  C_29
REMARK    9  A    between atoms: C_29  and  O_30
REMARK                            x       y       z     vdW  Elec       q    Type
REMARK                         _______ _______ _______ _____ _____    ______ ____
ROOT
ATOM      1  C   UNL     1      -0.013   9.444  23.473  0.00  0.00    +0.000 C 
ATOM      2  C   UNL     1       0.430   9.545  22.055  0.00  0.00    +0.000 A 
ATOM      3  N   UNL     1       0.920   8.460  21.447  0.00  0.00    +0.000 NA
ATOM      4  N   UNL     1       1.281   8.871  20.196  0.00  0.00    +0.000 N 
ATOM      5  C   UNL     1       1.990   7.991  19.318  0.00  0.00    +0.000 A 
ATOM      6  C   UNL     1       2.166   6.682  19.707  0.00  0.00    +0.000 A 
ATOM      7  C   UNL     1       2.983   5.882  18.926  0.00  0.00    +0.000 A 
ATOM      8  N   UNL     1       3.547   6.367  17.805  0.00  0.00    +0.000 NA
ATOM      9  C   UNL     1       3.277   7.629  17.476  0.00  0.00    +0.000 A 
ATOM     10  N   UNL     1       2.528   8.480  18.180  0.00  0.00    +0.000 NA
ATOM     11  C   UNL     1       0.916  10.191  19.986  0.00  0.00    +0.000 A 
ATOM     12  C   UNL     1       1.040  10.933  18.702  0.00  0.00    +0.000 C 
ATOM     13  C   UNL     1       0.395  10.663  21.183  0.00  0.00    +0.000 A 
ENDROOT
BRANCH   7  14
ATOM     14  N   UNL     1       3.249   4.591  19.293  0.00  0.00    +0.000 N 
ATOM     15  C   UNL     1       4.226   3.784  18.558  0.00  0.00    +0.000 C 
ATOM     16  C   UNL     1       3.585   2.458  18.130  0.00  0.00    +0.000 C 
ATOM     17  O   UNL     1       3.001   1.764  19.247  0.00  0.00    +0.000 OA
ATOM     18  C   UNL     1       1.995   2.576  19.876  0.00  0.00    +0.000 C 
ATOM     19  C   UNL     1       2.576   3.900  20.390  0.00  0.00    +0.000 C 
ENDBRANCH   7  14
BRANCH  13  20
ATOM     20  C   UNL     1      -0.146  12.039  21.401  0.00  0.00    +0.000 C 
BRANCH  20  21
ATOM     21  C   UNL     1      -1.655  12.163  21.272  0.00  0.00    +0.000 C 
BRANCH  21  22
ATOM     22  C   UNL     1      -2.286  12.450  22.626  0.00  0.00    +0.000 C 
ATOM     23  O   UNL     1      -2.538  11.554  23.420  0.00  0.00    +0.000 OA
ATOM     24  N   UNL     1      -2.527  13.783  22.918  0.00  0.00    +0.000 N 
ATOM     25  C   UNL     1      -2.971  14.152  24.264  0.00  0.00    +0.000 C 
ATOM     26  C   UNL     1      -2.073  15.263  24.846  0.00  0.00    +0.000 C 
ATOM     27  N   UNL     1      -1.929  16.458  23.978  0.00  0.00    +0.000 NA
ATOM     28  C   UNL     1      -1.458  16.001  22.642  0.00  0.00    +0.000 C 
ATOM     29  C   UNL     1      -2.339  14.910  21.998  0.00  0.00    +0.000 C 
BRANCH  27  30
ATOM     30  C   UNL     1      -3.191  17.226  23.853  0.00  0.00    +0.000 C 
BRANCH  30  31
ATOM     31  C   UNL     1      -3.806  17.642  25.201  0.00  0.00    +0.000 C 
BRANCH  31  32
ATOM     32  O   UNL     1      -5.212  17.425  25.218  0.00  0.00    +0.000 OA
ATOM     33  H   UNL     1      -5.332  16.460  25.140  0.00  0.00    +0.000 HD
ENDBRANCH  31  32
ENDBRANCH  30  31
ENDBRANCH  27  30
ENDBRANCH  21  22
ENDBRANCH  20  21
ENDBRANCH  13  20
TORSDOF 7
ENDMDL
