MODEL 1
REMARK VINA RESULT:      -7.3      0.000      0.000
REMARK  Name = 
REMARK  5 active torsions:
REMARK  status: ('A' for Active; 'I' for Inactive)
REMARK    1  A    between atoms: C_1  and  N_2
REMARK    2  A    between atoms: N_2  and  C_3
REMARK    3  A    between atoms: N_2  and  C_15
REMARK    4  A    between atoms: C_3  and  C_4
REMARK    5  A    between atoms: C_7  and  N_8
REMARK                            x       y       z     vdW  Elec       q    Type
REMARK                         _______ _______ _______ _____ _____    ______ ____
ROOT
ATOM      1  C   UNL     1       3.633   4.886  18.386  0.00  0.00    +0.000 A 
ATOM      2  N   UNL     1       3.704   3.823  19.216  0.00  0.00    +0.000 NA
ATOM      3  C   UNL     1       4.872   3.198  19.352  0.00  0.00    +0.000 A 
ATOM      4  N   UNL     1       4.958   2.160  20.256  0.00  0.00    +0.000 N 
ATOM      5  N   UNL     1       5.978   3.499  18.681  0.00  0.00    +0.000 NA
ATOM      6  C   UNL     1       5.907   4.543  17.833  0.00  0.00    +0.000 A 
ATOM      7  C   UNL     1       4.748   5.290  17.650  0.00  0.00    +0.000 A 
ATOM      8  C   UNL     1       4.787   6.484  16.735  0.00  0.00    +0.000 C 
ATOM      9  C   UNL     1       5.664   7.599  17.328  0.00  0.00    +0.000 C 
ATOM     10  N   UNL     1       7.100   7.449  17.053  0.00  0.00    +0.000 NA
ATOM     11  C   UNL     1       7.711   6.272  17.687  0.00  0.00    +0.000 C 
ATOM     12  C   UNL     1       7.198   4.928  17.159  0.00  0.00    +0.000 C 
ATOM     13  H   UNL     1       4.049   1.739  20.384  0.00  0.00    +0.000 HD
ATOM     14  H   UNL     1       5.723   1.554  19.995  0.00  0.00    +0.000 HD
ATOM     15  H   UNL     1       7.581   8.280  17.402  0.00  0.00    +0.000 HD
ENDROOT
BRANCH   1  17
ATOM     16  C   UNL     1       1.321   4.792  17.768  0.00  0.00    +0.000 C 
ATOM     17  N   UNL     1       2.411   5.601  18.317  0.00  0.00    +0.000 N 
BRANCH  17  18
ATOM     18  C   UNL     1       2.164   6.395  19.534  0.00  0.00    +0.000 C 
BRANCH  18  19
ATOM     19  C   UNL     1       1.786   7.843  19.334  0.00  0.00    +0.000 A 
ATOM     20  C   UNL     1       1.178   8.557  20.372  0.00  0.00    +0.000 A 
ATOM     21  C   UNL     1       0.885   9.913  20.223  0.00  0.00    +0.000 A 
ATOM     22  C   UNL     1       1.187  10.572  19.025  0.00  0.00    +0.000 A 
ATOM     23  C   UNL     1       1.767   9.853  17.970  0.00  0.00    +0.000 A 
ATOM     24  C   UNL     1       2.065   8.498  18.128  0.00  0.00    +0.000 A 
BRANCH  22  25
ATOM     25  N   UNL     1       0.925  11.961  18.865  0.00  0.00    +0.000 N 
ATOM     26  C   UNL     1      -0.301  12.591  18.804  0.00  0.00    +0.000 A 
ATOM     27  C   UNL     1      -0.061  13.936  18.654  0.00  0.00    +0.000 A 
ATOM     28  C   UNL     1       1.336  14.041  18.629  0.00  0.00    +0.000 A 
ATOM     29  N   UNL     1       1.941  12.861  18.761  0.00  0.00    +0.000 NA
ENDBRANCH  22  25
ENDBRANCH  18  19
ENDBRANCH  17  18
ENDBRANCH   1  17
TORSDOF 4
ENDMDL
MODEL 2
REMARK VINA RESULT:      -7.0      4.308      9.951
REMARK  Name = 
REMARK  5 active torsions:
REMARK  status: ('A' for Active; 'I' for Inactive)
REMARK    1  A    between atoms: C_1  and  N_2
REMARK    2  A    between atoms: N_2  and  C_3
REMARK    3  A    between atoms: N_2  and  C_15
REMARK    4  A    between atoms: C_3  and  C_4
REMARK    5  A    between atoms: C_7  and  N_8
REMARK                            x       y       z     vdW  Elec       q    Type
REMARK                         _______ _______ _______ _____ _____    ______ ____
ROOT
ATOM      1  C   UNL     1      -2.936  12.576  22.496  0.00  0.00    +0.000 A 
ATOM      2  N   UNL     1      -3.658  12.345  23.614  0.00  0.00    +0.000 NA
ATOM      3  C   UNL     1      -4.987  12.341  23.524  0.00  0.00    +0.000 A 
ATOM      4  N   UNL     1      -5.718  12.030  24.651  0.00  0.00    +0.000 N 
ATOM      5  N   UNL     1      -5.676  12.611  22.421  0.00  0.00    +0.000 NA
ATOM      6  C   UNL     1      -4.961  12.869  21.308  0.00  0.00    +0.000 A 
ATOM      7  C   UNL     1      -3.571  12.855  21.284  0.00  0.00    +0.000 A 
ATOM      8  C   UNL     1      -2.862  13.082  19.976  0.00  0.00    +0.000 C 
ATOM      9  C   UNL     1      -3.101  11.906  19.013  0.00  0.00    +0.000 C 
ATOM     10  N   UNL     1      -4.354  11.995  18.252  0.00  0.00    +0.000 NA
ATOM     11  C   UNL     1      -5.566  11.904  19.080  0.00  0.00    +0.000 C 
ATOM     12  C   UNL     1      -5.762  13.074  20.049  0.00  0.00    +0.000 C 
ATOM     13  H   UNL     1      -5.186  12.258  25.480  0.00  0.00    +0.000 HD
ATOM     14  H   UNL     1      -6.644  12.424  24.566  0.00  0.00    +0.000 HD
ATOM     15  H   UNL     1      -4.375  11.227  17.578  0.00  0.00    +0.000 HD
ENDROOT
BRANCH   1  17
ATOM     16  C   UNL     1      -0.926  13.675  23.197  0.00  0.00    +0.000 C 
ATOM     17  N   UNL     1      -1.524  12.489  22.581  0.00  0.00    +0.000 N 
BRANCH  17  18
ATOM     18  C   UNL     1      -1.078  11.156  23.025  0.00  0.00    +0.000 C 
BRANCH  18  19
ATOM     19  C   UNL     1      -0.308  10.330  22.021  0.00  0.00    +0.000 A 
ATOM     20  C   UNL     1      -0.074  10.832  20.736  0.00  0.00    +0.000 A 
ATOM     21  C   UNL     1       0.692  10.108  19.823  0.00  0.00    +0.000 A 
ATOM     22  C   UNL     1       1.226   8.863  20.179  0.00  0.00    +0.000 A 
ATOM     23  C   UNL     1       0.966   8.341  21.454  0.00  0.00    +0.000 A 
ATOM     24  C   UNL     1       0.206   9.074  22.368  0.00  0.00    +0.000 A 
BRANCH  22  25
ATOM     25  N   UNL     1       2.036   8.125  19.272  0.00  0.00    +0.000 N 
ATOM     26  C   UNL     1       2.484   6.826  19.400  0.00  0.00    +0.000 A 
ATOM     27  C   UNL     1       3.223   6.537  18.278  0.00  0.00    +0.000 A 
ATOM     28  C   UNL     1       3.181   7.714  17.519  0.00  0.00    +0.000 A 
ATOM     29  N   UNL     1       2.465   8.675  18.103  0.00  0.00    +0.000 NA
ENDBRANCH  22  25
ENDBRANCH  18  19
ENDBRANCH  17  18
ENDBRANCH   1  17
TORSDOF 4
ENDMDL
MODEL 3
REMARK VINA RESULT:      -7.0      2.918      8.988
REMARK  Name = 
REMARK  5 active torsions:
REMARK  status: ('A' for Active; 'I' for Inactive)
REMARK    1  A    between atoms: C_1  and  N_2
REMARK    2  A    between atoms: N_2  and  C_3
REMARK    3  A    between atoms: N_2  and  C_15
REMARK    4  A    between atoms: C_3  and  C_4
REMARK    5  A    between atoms: C_7  and  N_8
REMARK                            x       y       z     vdW  Elec       q    Type
REMARK                         _______ _______ _______ _____ _____    ______ ____
ROOT
ATOM      1  C   UNL     1      -1.233  11.848  20.374  0.00  0.00    +0.000 A 
ATOM      2  N   UNL     1      -1.708  12.268  21.566  0.00  0.00    +0.000 NA
ATOM      3  C   UNL     1      -2.999  12.583  21.661  0.00  0.00    +0.000 A 
ATOM      4  N   UNL     1      -3.495  12.940  22.897  0.00  0.00    +0.000 N 
ATOM      5  N   UNL     1      -3.860  12.579  20.650  0.00  0.00    +0.000 NA
ATOM      6  C   UNL     1      -3.384  12.185  19.452  0.00  0.00    +0.000 A 
ATOM      7  C   UNL     1      -2.066  11.793  19.254  0.00  0.00    +0.000 A 
ATOM      8  C   UNL     1      -1.647  11.299  17.896  0.00  0.00    +0.000 C 
ATOM      9  C   UNL     1      -2.317   9.953  17.574  0.00  0.00    +0.000 C 
ATOM     10  N   UNL     1      -3.672  10.070  17.019  0.00  0.00    +0.000 NA
ATOM     11  C   UNL     1      -4.656  10.633  17.956  0.00  0.00    +0.000 C 
ATOM     12  C   UNL     1      -4.401  12.093  18.344  0.00  0.00    +0.000 C 
ATOM     13  H   UNL     1      -2.755  13.320  23.470  0.00  0.00    +0.000 HD
ATOM     14  H   UNL     1      -4.326  13.502  22.772  0.00  0.00    +0.000 HD
ATOM     15  H   UNL     1      -3.990   9.137  16.752  0.00  0.00    +0.000 HD
ENDROOT
BRANCH   1  17
ATOM     16  C   UNL     1       1.056  12.496  20.652  0.00  0.00    +0.000 C 
ATOM     17  N   UNL     1       0.119  11.427  20.303  0.00  0.00    +0.000 N 
BRANCH  17  18
ATOM     18  C   UNL     1       0.315  10.090  20.892  0.00  0.00    +0.000 C 
BRANCH  18  19
ATOM     19  C   UNL     1       1.091   9.092  20.065  0.00  0.00    +0.000 A 
ATOM     20  C   UNL     1       1.448   9.404  18.748  0.00  0.00    +0.000 A 
ATOM     21  C   UNL     1       2.222   8.519  17.997  0.00  0.00    +0.000 A 
ATOM     22  C   UNL     1       2.640   7.303  18.549  0.00  0.00    +0.000 A 
ATOM     23  C   UNL     1       2.257   6.972  19.857  0.00  0.00    +0.000 A 
ATOM     24  C   UNL     1       1.489   7.865  20.607  0.00  0.00    +0.000 A 
BRANCH  22  25
ATOM     25  N   UNL     1       3.456   6.402  17.809  0.00  0.00    +0.000 N 
ATOM     26  C   UNL     1       3.427   5.023  17.828  0.00  0.00    +0.000 A 
ATOM     27  C   UNL     1       4.388   4.584  16.947  0.00  0.00    +0.000 A 
ATOM     28  C   UNL     1       4.958   5.758  16.438  0.00  0.00    +0.000 A 
ATOM     29  N   UNL     1       4.403   6.859  16.945  0.00  0.00    +0.000 NA
ENDBRANCH  22  25
ENDBRANCH  18  19
ENDBRANCH  17  18
ENDBRANCH   1  17
TORSDOF 4
ENDMDL
MODEL 4
REMARK VINA RESULT:      -6.9      0.557      1.147
REMARK  Name = 
REMARK  5 active torsions:
REMARK  status: ('A' for Active; 'I' for Inactive)
REMARK    1  A    between atoms: C_1  and  N_2
REMARK    2  A    between atoms: N_2  and  C_3
REMARK    3  A    between atoms: N_2  and  C_15
REMARK    4  A    between atoms: C_3  and  C_4
REMARK    5  A    between atoms: C_7  and  N_8
REMARK                            x       y       z     vdW  Elec       q    Type
REMARK                         _______ _______ _______ _____ _____    ______ ____
ROOT
ATOM      1  C   UNL     1       3.642   4.976  18.476  0.00  0.00    +0.000 A 
ATOM      2  N   UNL     1       3.729   3.887  19.270  0.00  0.00    +0.000 NA
ATOM      3  C   UNL     1       4.888   3.234  19.330  0.00  0.00    +0.000 A 
ATOM      4  N   UNL     1       4.994   2.167  20.198  0.00  0.00    +0.000 N 
ATOM      5  N   UNL     1       5.967   3.530  18.614  0.00  0.00    +0.000 NA
ATOM      6  C   UNL     1       5.877   4.601  17.800  0.00  0.00    +0.000 A 
ATOM      7  C   UNL     1       4.729   5.377  17.697  0.00  0.00    +0.000 A 
ATOM      8  C   UNL     1       4.750   6.596  16.816  0.00  0.00    +0.000 C 
ATOM      9  C   UNL     1       5.681   7.674  17.396  0.00  0.00    +0.000 C 
ATOM     10  N   UNL     1       7.097   7.502  17.046  0.00  0.00    +0.000 NA
ATOM     11  C   UNL     1       7.711   6.293  17.614  0.00  0.00    +0.000 C 
ATOM     12  C   UNL     1       7.142   4.977  17.074  0.00  0.00    +0.000 C 
ATOM     13  H   UNL     1       4.083   1.762  20.359  0.00  0.00    +0.000 HD
ATOM     14  H   UNL     1       5.731   1.553  19.882  0.00  0.00    +0.000 HD
ATOM     15  H   UNL     1       7.614   8.311  17.394  0.00  0.00    +0.000 HD
ENDROOT
BRANCH   1  17
ATOM     16  C   UNL     1       1.321   4.985  17.883  0.00  0.00    +0.000 C 
ATOM     17  N   UNL     1       2.435   5.718  18.488  0.00  0.00    +0.000 N 
BRANCH  17  18
ATOM     18  C   UNL     1       2.219   6.404  19.775  0.00  0.00    +0.000 C 
BRANCH  18  19
ATOM     19  C   UNL     1       1.770   7.844  19.709  0.00  0.00    +0.000 A 
ATOM     20  C   UNL     1       1.942   8.576  18.529  0.00  0.00    +0.000 A 
ATOM     21  C   UNL     1       1.471   9.886  18.434  0.00  0.00    +0.000 A 
ATOM     22  C   UNL     1       0.832  10.487  19.524  0.00  0.00    +0.000 A 
ATOM     23  C   UNL     1       0.686   9.769  20.720  0.00  0.00    +0.000 A 
ATOM     24  C   UNL     1       1.151   8.455  20.807  0.00  0.00    +0.000 A 
BRANCH  22  25
ATOM     25  N   UNL     1       0.316  11.810  19.435  0.00  0.00    +0.000 N 
ATOM     26  C   UNL     1      -0.465  12.479  20.355  0.00  0.00    +0.000 A 
ATOM     27  C   UNL     1      -0.711  13.732  19.847  0.00  0.00    +0.000 A 
ATOM     28  C   UNL     1      -0.048  13.745  18.613  0.00  0.00    +0.000 A 
ATOM     29  N   UNL     1       0.579  12.597  18.356  0.00  0.00    +0.000 NA
ENDBRANCH  22  25
ENDBRANCH  18  19
ENDBRANCH  17  18
ENDBRANCH   1  17
TORSDOF 4
ENDMDL
MODEL 5
REMARK VINA RESULT:      -6.9      1.557      2.029
REMARK  Name = 
REMARK  5 active torsions:
REMARK  status: ('A' for Active; 'I' for Inactive)
REMARK    1  A    between atoms: C_1  and  N_2
REMARK    2  A    between atoms: N_2  and  C_3
REMARK    3  A    between atoms: N_2  and  C_15
REMARK    4  A    between atoms: C_3  and  C_4
REMARK    5  A    between atoms: C_7  and  N_8
REMARK                            x       y       z     vdW  Elec       q    Type
REMARK                         _______ _______ _______ _____ _____    ______ ____
ROOT
ATOM      1  C   UNL     1       3.183   4.549  19.250  0.00  0.00    +0.000 A 
ATOM      2  N   UNL     1       3.540   3.481  19.996  0.00  0.00    +0.000 NA
ATOM      3  C   UNL     1       4.621   2.790  19.640  0.00  0.00    +0.000 A 
ATOM      4  N   UNL     1       5.025   1.746  20.447  0.00  0.00    +0.000 N 
ATOM      5  N   UNL     1       5.354   3.027  18.559  0.00  0.00    +0.000 NA
ATOM      6  C   UNL     1       4.987   4.076  17.796  0.00  0.00    +0.000 A 
ATOM      7  C   UNL     1       3.902   4.889  18.103  0.00  0.00    +0.000 A 
ATOM      8  C   UNL     1       3.615   6.081  17.231  0.00  0.00    +0.000 C 
ATOM      9  C   UNL     1       4.719   7.142  17.373  0.00  0.00    +0.000 C 
ATOM     10  N   UNL     1       5.893   6.909  16.521  0.00  0.00    +0.000 NA
ATOM     11  C   UNL     1       6.651   5.696  16.864  0.00  0.00    +0.000 C 
ATOM     12  C   UNL     1       5.891   4.386  16.632  0.00  0.00    +0.000 C 
ATOM     13  H   UNL     1       4.234   1.378  20.956  0.00  0.00    +0.000 HD
ATOM     14  H   UNL     1       5.574   1.097  19.901  0.00  0.00    +0.000 HD
ATOM     15  H   UNL     1       6.521   7.709  16.615  0.00  0.00    +0.000 HD
ENDROOT
BRANCH   1  17
ATOM     16  C   UNL     1       0.987   4.519  20.207  0.00  0.00    +0.000 C 
ATOM     17  N   UNL     1       2.086   5.334  19.687  0.00  0.00    +0.000 N 
BRANCH  17  18
ATOM     18  C   UNL     1       2.522   6.514  20.457  0.00  0.00    +0.000 C 
BRANCH  18  19
ATOM     19  C   UNL     1       1.673   7.757  20.329  0.00  0.00    +0.000 A 
ATOM     20  C   UNL     1       1.721   8.518  19.156  0.00  0.00    +0.000 A 
ATOM     21  C   UNL     1       0.894   9.630  18.999  0.00  0.00    +0.000 A 
ATOM     22  C   UNL     1       0.013  10.004  20.021  0.00  0.00    +0.000 A 
ATOM     23  C   UNL     1      -0.016   9.263  21.211  0.00  0.00    +0.000 A 
ATOM     24  C   UNL     1       0.809   8.146  21.360  0.00  0.00    +0.000 A 
BRANCH  22  25
ATOM     25  N   UNL     1      -0.861  11.116  19.867  0.00  0.00    +0.000 N 
ATOM     26  C   UNL     1      -0.789  12.343  20.492  0.00  0.00    +0.000 A 
ATOM     27  C   UNL     1      -1.838  13.100  20.026  0.00  0.00    +0.000 A 
ATOM     28  C   UNL     1      -2.502  12.259  19.124  0.00  0.00    +0.000 A 
ATOM     29  N   UNL     1      -1.921  11.064  19.015  0.00  0.00    +0.000 NA
ENDBRANCH  22  25
ENDBRANCH  18  19
ENDBRANCH  17  18
ENDBRANCH   1  17
TORSDOF 4
ENDMDL
MODEL 6
REMARK VINA RESULT:      -6.8      3.476      6.379
REMARK  Name = 
REMARK  5 active torsions:
REMARK  status: ('A' for Active; 'I' for Inactive)
REMARK    1  A    between atoms: C_1  and  N_2
REMARK    2  A    between atoms: N_2  and  C_3
REMARK    3  A    between atoms: N_2  and  C_15
REMARK    4  A    between atoms: C_3  and  C_4
REMARK    5  A    between atoms: C_7  and  N_8
REMARK                            x       y       z     vdW  Elec       q    Type
REMARK                         _______ _______ _______ _____ _____    ______ ____
ROOT
ATOM      1  C   UNL     1       4.221   4.901  17.509  0.00  0.00    +0.000 A 
ATOM      2  N   UNL     1       4.028   6.226  17.331  0.00  0.00    +0.000 NA
ATOM      3  C   UNL     1       3.069   6.829  18.031  0.00  0.00    +0.000 A 
ATOM      4  N   UNL     1       2.925   8.195  17.902  0.00  0.00    +0.000 N 
ATOM      5  N   UNL     1       2.230   6.216  18.858  0.00  0.00    +0.000 NA
ATOM      6  C   UNL     1       2.401   4.889  19.020  0.00  0.00    +0.000 A 
ATOM      7  C   UNL     1       3.399   4.172  18.371  0.00  0.00    +0.000 A 
ATOM      8  C   UNL     1       3.558   2.707  18.673  0.00  0.00    +0.000 C 
ATOM      9  C   UNL     1       4.051   2.495  20.114  0.00  0.00    +0.000 C 
ATOM     10  N   UNL     1       2.984   2.500  21.124  0.00  0.00    +0.000 NA
ATOM     11  C   UNL     1       2.303   3.795  21.269  0.00  0.00    +0.000 C 
ATOM     12  C   UNL     1       1.504   4.233  20.037  0.00  0.00    +0.000 C 
ATOM     13  H   UNL     1       3.270   8.494  17.001  0.00  0.00    +0.000 HD
ATOM     14  H   UNL     1       1.981   8.455  18.152  0.00  0.00    +0.000 HD
ATOM     15  H   UNL     1       3.396   2.259  22.027  0.00  0.00    +0.000 HD
ENDROOT
BRANCH   1  17
ATOM     16  C   UNL     1       5.351   4.649  15.413  0.00  0.00    +0.000 C 
ATOM     17  N   UNL     1       5.302   4.285  16.830  0.00  0.00    +0.000 N 
BRANCH  17  18
ATOM     18  C   UNL     1       6.547   4.326  17.619  0.00  0.00    +0.000 C 
BRANCH  18  19
ATOM     19  C   UNL     1       7.171   5.685  17.830  0.00  0.00    +0.000 A 
ATOM     20  C   UNL     1       7.031   6.678  16.854  0.00  0.00    +0.000 A 
ATOM     21  C   UNL     1       7.545   7.957  17.067  0.00  0.00    +0.000 A 
ATOM     22  C   UNL     1       8.218   8.258  18.257  0.00  0.00    +0.000 A 
ATOM     23  C   UNL     1       8.389   7.257  19.224  0.00  0.00    +0.000 A 
ATOM     24  C   UNL     1       7.865   5.981  19.010  0.00  0.00    +0.000 A 
BRANCH  22  25
ATOM     25  N   UNL     1       8.722   9.565  18.506  0.00  0.00    +0.000 N 
ATOM     26  C   UNL     1       8.588  10.689  17.716  0.00  0.00    +0.000 A 
ATOM     27  C   UNL     1       9.227  11.720  18.363  0.00  0.00    +0.000 A 
ATOM     28  C   UNL     1       9.727  11.140  19.536  0.00  0.00    +0.000 A 
ATOM     29  N   UNL     1       9.424   9.845  19.637  0.00  0.00    +0.000 NA
ENDBRANCH  22  25
ENDBRANCH  18  19
ENDBRANCH  17  18
ENDBRANCH   1  17
TORSDOF 4
ENDMDL
MODEL 7
REMARK VINA RESULT:      -6.8      1.753      2.137
REMARK  Name = 
REMARK  5 active torsions:
REMARK  status: ('A' for Active; 'I' for Inactive)
REMARK    1  A    between atoms: C_1  and  N_2
REMARK    2  A    between atoms: N_2  and  C_3
REMARK    3  A    between atoms: N_2  and  C_15
REMARK    4  A    between atoms: C_3  and  C_4
REMARK    5  A    between atoms: C_7  and  N_8
REMARK                            x       y       z     vdW  Elec       q    Type
REMARK                         _______ _______ _______ _____ _____    ______ ____
ROOT
ATOM      1  C   UNL     1       2.938   4.320  18.384  0.00  0.00    +0.000 A 
ATOM      2  N   UNL     1       2.955   3.005  18.690  0.00  0.00    +0.000 NA
ATOM      3  C   UNL     1       3.829   2.217  18.066  0.00  0.00    +0.000 A 
ATOM      4  N   UNL     1       3.894   0.890  18.436  0.00  0.00    +0.000 N 
ATOM      5  N   UNL     1       4.658   2.611  17.105  0.00  0.00    +0.000 NA
ATOM      6  C   UNL     1       4.627   3.918  16.778  0.00  0.00    +0.000 A 
ATOM      7  C   UNL     1       3.784   4.832  17.399  0.00  0.00    +0.000 A 
ATOM      8  C   UNL     1       3.875   6.284  17.015  0.00  0.00    +0.000 C 
ATOM      9  C   UNL     1       5.213   6.888  17.472  0.00  0.00    +0.000 C 
ATOM     10  N   UNL     1       6.327   6.661  16.541  0.00  0.00    +0.000 NA
ATOM     11  C   UNL     1       6.712   5.249  16.402  0.00  0.00    +0.000 C 
ATOM     12  C   UNL     1       5.643   4.360  15.758  0.00  0.00    +0.000 C 
ATOM     13  H   UNL     1       3.006   0.595  18.817  0.00  0.00    +0.000 HD
ATOM     14  H   UNL     1       4.278   0.351  17.672  0.00  0.00    +0.000 HD
ATOM     15  H   UNL     1       7.140   7.177  16.882  0.00  0.00    +0.000 HD
ENDROOT
BRANCH   1  17
ATOM     16  C   UNL     1       1.116   4.416  19.936  0.00  0.00    +0.000 C 
ATOM     17  N   UNL     1       2.070   5.167  19.118  0.00  0.00    +0.000 N 
BRANCH  17  18
ATOM     18  C   UNL     1       2.786   6.304  19.723  0.00  0.00    +0.000 C 
BRANCH  18  19
ATOM     19  C   UNL     1       1.995   7.575  19.922  0.00  0.00    +0.000 A 
ATOM     20  C   UNL     1       1.854   8.482  18.866  0.00  0.00    +0.000 A 
ATOM     21  C   UNL     1       1.071   9.627  19.016  0.00  0.00    +0.000 A 
ATOM     22  C   UNL     1       0.426   9.886  20.231  0.00  0.00    +0.000 A 
ATOM     23  C   UNL     1       0.590   8.996  21.302  0.00  0.00    +0.000 A 
ATOM     24  C   UNL     1       1.368   7.848  21.144  0.00  0.00    +0.000 A 
BRANCH  22  25
ATOM     25  N   UNL     1      -0.403  11.031  20.393  0.00  0.00    +0.000 N 
ATOM     26  C   UNL     1      -0.463  11.888  21.473  0.00  0.00    +0.000 A 
ATOM     27  C   UNL     1      -1.398  12.852  21.177  0.00  0.00    +0.000 A 
ATOM     28  C   UNL     1      -1.864  12.506  19.902  0.00  0.00    +0.000 A 
ATOM     29  N   UNL     1      -1.269  11.416  19.416  0.00  0.00    +0.000 NA
ENDBRANCH  22  25
ENDBRANCH  18  19
ENDBRANCH  17  18
ENDBRANCH   1  17
TORSDOF 4
ENDMDL
MODEL 8
REMARK VINA RESULT:      -6.8      2.285      3.963
REMARK  Name = 
REMARK  5 active torsions:
REMARK  status: ('A' for Active; 'I' for Inactive)
REMARK    1  A    between atoms: C_1  and  N_2
REMARK    2  A    between atoms: N_2  and  C_3
REMARK    3  A    between atoms: N_2  and  C_15
REMARK    4  A    between atoms: C_3  and  C_4
REMARK    5  A    between atoms: C_7  and  N_8
REMARK                            x       y       z     vdW  Elec       q    Type
REMARK                         _______ _______ _______ _____ _____    ______ ____
ROOT
ATOM      1  C   UNL     1       4.569   5.543  17.359  0.00  0.00    +0.000 A 
ATOM      2  N   UNL     1       5.217   5.363  16.189  0.00  0.00    +0.000 NA
ATOM      3  C   UNL     1       5.293   4.132  15.686  0.00  0.00    +0.000 A 
ATOM      4  N   UNL     1       5.891   3.963  14.455  0.00  0.00    +0.000 N 
ATOM      5  N   UNL     1       4.832   3.037  16.281  0.00  0.00    +0.000 NA
ATOM      6  C   UNL     1       4.207   3.208  17.463  0.00  0.00    +0.000 A 
ATOM      7  C   UNL     1       4.034   4.455  18.052  0.00  0.00    +0.000 A 
ATOM      8  C   UNL     1       3.258   4.554  19.337  0.00  0.00    +0.000 C 
ATOM      9  C   UNL     1       1.774   4.224  19.106  0.00  0.00    +0.000 C 
ATOM     10  N   UNL     1       1.464   2.788  19.128  0.00  0.00    +0.000 NA
ATOM     11  C   UNL     1       2.074   2.027  18.028  0.00  0.00    +0.000 C 
ATOM     12  C   UNL     1       3.605   1.968  18.069  0.00  0.00    +0.000 C 
ATOM     13  H   UNL     1       6.554   4.707  14.289  0.00  0.00    +0.000 HD
ATOM     14  H   UNL     1       6.222   3.012  14.373  0.00  0.00    +0.000 HD
ATOM     15  H   UNL     1       0.450   2.678  19.062  0.00  0.00    +0.000 HD
ENDROOT
BRANCH   1  17
ATOM     16  C   UNL     1       5.669   7.619  17.827  0.00  0.00    +0.000 C 
ATOM     17  N   UNL     1       4.413   6.867  17.841  0.00  0.00    +0.000 N 
BRANCH  17  18
ATOM     18  C   UNL     1       3.195   7.509  17.313  0.00  0.00    +0.000 C 
BRANCH  18  19
ATOM     19  C   UNL     1       2.295   8.186  18.319  0.00  0.00    +0.000 A 
ATOM     20  C   UNL     1       2.178   7.666  19.613  0.00  0.00    +0.000 A 
ATOM     21  C   UNL     1       1.403   8.319  20.571  0.00  0.00    +0.000 A 
ATOM     22  C   UNL     1       0.723   9.498  20.244  0.00  0.00    +0.000 A 
ATOM     23  C   UNL     1       0.811  10.006  18.940  0.00  0.00    +0.000 A 
ATOM     24  C   UNL     1       1.595   9.352  17.987  0.00  0.00    +0.000 A 
BRANCH  22  25
ATOM     25  N   UNL     1      -0.047  10.196  21.216  0.00  0.00    +0.000 N 
ATOM     26  C   UNL     1      -0.751  11.372  21.055  0.00  0.00    +0.000 A 
ATOM     27  C   UNL     1      -1.346  11.659  22.261  0.00  0.00    +0.000 A 
ATOM     28  C   UNL     1      -0.950  10.613  23.104  0.00  0.00    +0.000 A 
ATOM     29  N   UNL     1      -0.173   9.723  22.486  0.00  0.00    +0.000 NA
ENDBRANCH  22  25
ENDBRANCH  18  19
ENDBRANCH  17  18
ENDBRANCH   1  17
TORSDOF 4
ENDMDL
MODEL 9
REMARK VINA RESULT:      -6.7      1.327      1.559
REMARK  Name = 
REMARK  5 active torsions:
REMARK  status: ('A' for Active; 'I' for Inactive)
REMARK    1  A    between atoms: C_1  and  N_2
REMARK    2  A    between atoms: N_2  and  C_3
REMARK    3  A    between atoms: N_2  and  C_15
REMARK    4  A    between atoms: C_3  and  C_4
REMARK    5  A    between atoms: C_7  and  N_8
REMARK                            x       y       z     vdW  Elec       q    Type
REMARK                         _______ _______ _______ _____ _____    ______ ____
ROOT
ATOM      1  C   UNL     1       3.036   4.295  18.264  0.00  0.00    +0.000 A 
ATOM      2  N   UNL     1       2.993   2.990  18.608  0.00  0.00    +0.000 NA
ATOM      3  C   UNL     1       3.867   2.155  18.049  0.00  0.00    +0.000 A 
ATOM      4  N   UNL     1       3.869   0.838  18.458  0.00  0.00    +0.000 N 
ATOM      5  N   UNL     1       4.752   2.492  17.117  0.00  0.00    +0.000 NA
ATOM      6  C   UNL     1       4.781   3.789  16.751  0.00  0.00    +0.000 A 
ATOM      7  C   UNL     1       3.943   4.749  17.305  0.00  0.00    +0.000 A 
ATOM      8  C   UNL     1       4.101   6.185  16.885  0.00  0.00    +0.000 C 
ATOM      9  C   UNL     1       5.437   6.758  17.387  0.00  0.00    +0.000 C 
ATOM     10  N   UNL     1       6.584   6.467  16.516  0.00  0.00    +0.000 NA
ATOM     11  C   UNL     1       6.926   5.039  16.435  0.00  0.00    +0.000 C 
ATOM     12  C   UNL     1       5.858   4.166  15.767  0.00  0.00    +0.000 C 
ATOM     13  H   UNL     1       2.955   0.585  18.806  0.00  0.00    +0.000 HD
ATOM     14  H   UNL     1       4.269   0.264  17.730  0.00  0.00    +0.000 HD
ATOM     15  H   UNL     1       7.397   6.965  16.880  0.00  0.00    +0.000 HD
ENDROOT
BRANCH   1  17
ATOM     16  C   UNL     1       1.221   4.502  19.815  0.00  0.00    +0.000 C 
ATOM     17  N   UNL     1       2.164   5.192  18.932  0.00  0.00    +0.000 N 
BRANCH  17  18
ATOM     18  C   UNL     1       2.874   6.380  19.439  0.00  0.00    +0.000 C 
BRANCH  18  19
ATOM     19  C   UNL     1       2.116   7.686  19.413  0.00  0.00    +0.000 A 
ATOM     20  C   UNL     1       1.500   8.160  20.576  0.00  0.00    +0.000 A 
ATOM     21  C   UNL     1       0.854   9.396  20.582  0.00  0.00    +0.000 A 
ATOM     22  C   UNL     1       0.804  10.171  19.417  0.00  0.00    +0.000 A 
ATOM     23  C   UNL     1       1.391   9.685  18.240  0.00  0.00    +0.000 A 
ATOM     24  C   UNL     1       2.044   8.451  18.242  0.00  0.00    +0.000 A 
BRANCH  22  25
ATOM     25  N   UNL     1       0.177  11.449  19.411  0.00  0.00    +0.000 N 
ATOM     26  C   UNL     1       0.677  12.635  18.914  0.00  0.00    +0.000 A 
ATOM     27  C   UNL     1      -0.282  13.599  19.119  0.00  0.00    +0.000 A 
ATOM     28  C   UNL     1      -1.332  12.918  19.750  0.00  0.00    +0.000 A 
ATOM     29  N   UNL     1      -1.070  11.623  19.926  0.00  0.00    +0.000 NA
ENDBRANCH  22  25
ENDBRANCH  18  19
ENDBRANCH  17  18
ENDBRANCH   1  17
TORSDOF 4
ENDMDL
