MODEL 1
REMARK VINA RESULT:      -6.6      0.000      0.000
REMARK  Name = 
REMARK  18 active torsions:
REMARK  status: ('A' for Active; 'I' for Inactive)
REMARK    1  A    between atoms: C_1  and  C_2
REMARK    2  A    between atoms: C_2  and  C_3
REMARK    3  A    between atoms: C_3  and  C_4
REMARK    4  A    between atoms: C_4  and  C_5
REMARK    5  A    between atoms: C_5  and  C_6
REMARK    6  A    between atoms: C_6  and  C_7
REMARK    7  A    between atoms: C_7  and  C_8
REMARK    8  A    between atoms: C_8  and  C_9
REMARK    9  A    between atoms: C_9  and  C_10
REMARK   10  A    between atoms: C_10  and  O_11
REMARK   11  A    between atoms: O_11  and  C_12
REMARK   12  A    between atoms: C_12  and  C_14
REMARK   13  A    between atoms: C_14  and  N_15
REMARK   14  A    between atoms: N_15  and  C_16
REMARK   15  A    between atoms: N_15  and  C_17
REMARK   16  A    between atoms: N_15  and  C_18
REMARK   17  A    between atoms: C_18  and  C_19
REMARK   18  A    between atoms: C_24  and  O_25
REMARK                            x       y       z     vdW  Elec       q    Type
REMARK                         _______ _______ _______ _____ _____    ______ ____
ROOT
ATOM      1  C   UNL     1       7.219   5.853  18.756  0.00  0.00    +0.000 C 
ATOM      2  O   UNL     1       8.171   5.255  19.241  0.00  0.00    +0.000 OA
ENDROOT
BRANCH   1   3
ATOM      3  O   UNL     1       7.294   7.041  18.099  0.00  0.00    +0.000 OA
BRANCH   3   4
ATOM      4  C   UNL     1       8.402   7.872  18.482  0.00  0.00    +0.000 C 
BRANCH   4   5
ATOM      5  C   UNL     1       8.225   9.311  18.004  0.00  0.00    +0.000 C 
BRANCH   5   6
ATOM      6  C   UNL     1       9.095  10.219  18.871  0.00  0.00    +0.000 C 
BRANCH   6   7
ATOM      7  C   UNL     1       9.954  11.183  18.064  0.00  0.00    +0.000 C 
BRANCH   7   8
ATOM      8  C   UNL     1      11.156  11.630  18.898  0.00  0.00    +0.000 C 
BRANCH   8   9
ATOM      9  C   UNL     1      12.050  12.582  18.112  0.00  0.00    +0.000 C 
BRANCH   9  10
ATOM     10  C   UNL     1      11.315  13.169  16.906  0.00  0.00    +0.000 C 
BRANCH  10  11
ATOM     11  C   UNL     1      11.221  14.689  17.027  0.00  0.00    +0.000 C 
BRANCH  11  13
ATOM     12  C   UNL     1      11.288  16.546  18.714  0.00  0.00    +0.000 C 
ATOM     13  C   UNL     1      11.849  15.190  18.323  0.00  0.00    +0.000 C 
ENDBRANCH  11  13
ENDBRANCH  10  11
ENDBRANCH   9  10
ENDBRANCH   8   9
ENDBRANCH   7   8
ENDBRANCH   6   7
ENDBRANCH   5   6
ENDBRANCH   4   5
ENDBRANCH   3   4
ENDBRANCH   1   3
BRANCH   1  14
ATOM     14  C   UNL     1       5.784   5.320  18.788  0.00  0.00    +0.000 C 
BRANCH  14  15
ATOM     15  N   UNL     1       5.187   4.839  17.393  0.00  0.00    +0.000 N 
ATOM     16  C   UNL     1       4.604   6.070  16.721  0.00  0.00    +0.000 C 
ATOM     17  C   UNL     1       6.335   4.279  16.559  0.00  0.00    +0.000 C 
BRANCH  15  18
ATOM     18  C   UNL     1       4.129   3.748  17.723  0.00  0.00    +0.000 C 
BRANCH  18  19
ATOM     19  C   UNL     1       3.372   3.763  19.083  0.00  0.00    +0.000 C 
ATOM     20  C   UNL     1       1.942   4.317  19.031  0.00  0.00    +0.000 C 
ATOM     21  C   UNL     1       1.248   4.342  20.392  0.00  0.00    +0.000 C 
ATOM     22  C   UNL     1       1.317   2.976  21.065  0.00  0.00    +0.000 C 
ATOM     23  C   UNL     1       2.766   2.546  21.250  0.00  0.00    +0.000 C 
ATOM     24  C   UNL     1       3.473   2.464  19.901  0.00  0.00    +0.000 C 
BRANCH  24  25
ATOM     25  O   UNL     1       4.848   2.130  20.041  0.00  0.00    +0.000 OA
ATOM     26  H   UNL     1       5.383   2.760  19.523  0.00  0.00    +0.000 HD
ENDBRANCH  24  25
ENDBRANCH  18  19
ENDBRANCH  15  18
ENDBRANCH  14  15
ENDBRANCH   1  14
TORSDOF 15
ENDMDL
MODEL 2
REMARK VINA RESULT:      -6.5      1.486      1.703
REMARK  Name = 
REMARK  18 active torsions:
REMARK  status: ('A' for Active; 'I' for Inactive)
REMARK    1  A    between atoms: C_1  and  C_2
REMARK    2  A    between atoms: C_2  and  C_3
REMARK    3  A    between atoms: C_3  and  C_4
REMARK    4  A    between atoms: C_4  and  C_5
REMARK    5  A    between atoms: C_5  and  C_6
REMARK    6  A    between atoms: C_6  and  C_7
REMARK    7  A    between atoms: C_7  and  C_8
REMARK    8  A    between atoms: C_8  and  C_9
REMARK    9  A    between atoms: C_9  and  C_10
REMARK   10  A    between atoms: C_10  and  O_11
REMARK   11  A    between atoms: O_11  and  C_12
REMARK   12  A    between atoms: C_12  and  C_14
REMARK   13  A    between atoms: C_14  and  N_15
REMARK   14  A    between atoms: N_15  and  C_16
REMARK   15  A    between atoms: N_15  and  C_17
REMARK   16  A    between atoms: N_15  and  C_18
REMARK   17  A    between atoms: C_18  and  C_19
REMARK   18  A    between atoms: C_24  and  O_25
REMARK                            x       y       z     vdW  Elec       q    Type
REMARK                         _______ _______ _______ _____ _____    ______ ____
ROOT
ATOM      1  C   UNL     1       7.454   6.006  18.485  0.00  0.00    +0.000 C 
ATOM      2  O   UNL     1       7.144   5.323  19.452  0.00  0.00    +0.000 OA
ENDROOT
BRANCH   1   3
ATOM      3  O   UNL     1       8.142   7.177  18.543  0.00  0.00    +0.000 OA
BRANCH   3   4
ATOM      4  C   UNL     1       7.613   8.228  17.718  0.00  0.00    +0.000 C 
BRANCH   4   5
ATOM      5  C   UNL     1       8.551   9.431  17.658  0.00  0.00    +0.000 C 
BRANCH   5   6
ATOM      6  C   UNL     1       9.124   9.668  19.054  0.00  0.00    +0.000 C 
BRANCH   6   7
ATOM      7  C   UNL     1       9.723  11.057  19.233  0.00  0.00    +0.000 C 
BRANCH   7   8
ATOM      8  C   UNL     1      10.473  11.467  17.964  0.00  0.00    +0.000 C 
BRANCH   8   9
ATOM      9  C   UNL     1      10.926  12.920  18.037  0.00  0.00    +0.000 C 
BRANCH   9  10
ATOM     10  C   UNL     1       9.765  13.850  18.391  0.00  0.00    +0.000 C 
BRANCH  10  11
ATOM     11  C   UNL     1      10.257  15.019  19.241  0.00  0.00    +0.000 C 
BRANCH  11  13
ATOM     12  C   UNL     1       9.960  14.053  21.539  0.00  0.00    +0.000 C 
ATOM     13  C   UNL     1      10.963  14.538  20.505  0.00  0.00    +0.000 C 
ENDBRANCH  11  13
ENDBRANCH  10  11
ENDBRANCH   9  10
ENDBRANCH   8   9
ENDBRANCH   7   8
ENDBRANCH   6   7
ENDBRANCH   5   6
ENDBRANCH   4   5
ENDBRANCH   3   4
ENDBRANCH   1   3
BRANCH   1  14
ATOM     14  C   UNL     1       7.136   5.614  17.040  0.00  0.00    +0.000 C 
BRANCH  14  15
ATOM     15  N   UNL     1       5.594   5.430  16.690  0.00  0.00    +0.000 N 
ATOM     16  C   UNL     1       4.846   6.532  17.420  0.00  0.00    +0.000 C 
ATOM     17  C   UNL     1       5.432   5.597  15.182  0.00  0.00    +0.000 C 
BRANCH  15  18
ATOM     18  C   UNL     1       5.207   3.998  17.156  0.00  0.00    +0.000 C 
BRANCH  18  19
ATOM     19  C   UNL     1       3.952   3.767  18.047  0.00  0.00    +0.000 C 
ATOM     20  C   UNL     1       2.619   3.689  17.292  0.00  0.00    +0.000 C 
ATOM     21  C   UNL     1       1.411   3.493  18.208  0.00  0.00    +0.000 C 
ATOM     22  C   UNL     1       1.620   2.306  19.140  0.00  0.00    +0.000 C 
ATOM     23  C   UNL     1       2.865   2.511  19.993  0.00  0.00    +0.000 C 
ATOM     24  C   UNL     1       4.098   2.661  19.107  0.00  0.00    +0.000 C 
BRANCH  24  25
ATOM     25  O   UNL     1       5.270   2.923  19.867  0.00  0.00    +0.000 OA
ATOM     26  H   UNL     1       6.039   2.532  19.411  0.00  0.00    +0.000 HD
ENDBRANCH  24  25
ENDBRANCH  18  19
ENDBRANCH  15  18
ENDBRANCH  14  15
ENDBRANCH   1  14
TORSDOF 15
ENDMDL
MODEL 3
REMARK VINA RESULT:      -6.4      1.991      2.826
REMARK  Name = 
REMARK  18 active torsions:
REMARK  status: ('A' for Active; 'I' for Inactive)
REMARK    1  A    between atoms: C_1  and  C_2
REMARK    2  A    between atoms: C_2  and  C_3
REMARK    3  A    between atoms: C_3  and  C_4
REMARK    4  A    between atoms: C_4  and  C_5
REMARK    5  A    between atoms: C_5  and  C_6
REMARK    6  A    between atoms: C_6  and  C_7
REMARK    7  A    between atoms: C_7  and  C_8
REMARK    8  A    between atoms: C_8  and  C_9
REMARK    9  A    between atoms: C_9  and  C_10
REMARK   10  A    between atoms: C_10  and  O_11
REMARK   11  A    between atoms: O_11  and  C_12
REMARK   12  A    between atoms: C_12  and  C_14
REMARK   13  A    between atoms: C_14  and  N_15
REMARK   14  A    between atoms: N_15  and  C_16
REMARK   15  A    between atoms: N_15  and  C_17
REMARK   16  A    between atoms: N_15  and  C_18
REMARK   17  A    between atoms: C_18  and  C_19
REMARK   18  A    between atoms: C_24  and  O_25
REMARK                            x       y       z     vdW  Elec       q    Type
REMARK                         _______ _______ _______ _____ _____    ______ ____
ROOT
ATOM      1  C   UNL     1       7.468   6.095  18.042  0.00  0.00    +0.000 C 
ATOM      2  O   UNL     1       7.374   6.048  19.262  0.00  0.00    +0.000 OA
ENDROOT
BRANCH   1   3
ATOM      3  O   UNL     1       8.038   7.110  17.340  0.00  0.00    +0.000 OA
BRANCH   3   4
ATOM      4  C   UNL     1       7.632   8.427  17.749  0.00  0.00    +0.000 C 
BRANCH   4   5
ATOM      5  C   UNL     1       8.747   9.160  18.491  0.00  0.00    +0.000 C 
BRANCH   5   6
ATOM      6  C   UNL     1       8.754  10.618  18.034  0.00  0.00    +0.000 C 
BRANCH   6   7
ATOM      7  C   UNL     1      10.140  11.249  18.050  0.00  0.00    +0.000 C 
BRANCH   7   8
ATOM      8  C   UNL     1      10.043  12.704  18.514  0.00  0.00    +0.000 C 
BRANCH   8   9
ATOM      9  C   UNL     1      10.920  12.953  19.735  0.00  0.00    +0.000 C 
BRANCH   9  10
ATOM     10  C   UNL     1      10.442  12.140  20.940  0.00  0.00    +0.000 C 
BRANCH  10  11
ATOM     11  C   UNL     1       9.109  12.680  21.453  0.00  0.00    +0.000 C 
BRANCH  11  13
ATOM     12  C   UNL     1       8.378  12.046  23.769  0.00  0.00    +0.000 C 
ATOM     13  C   UNL     1       8.375  11.648  22.303  0.00  0.00    +0.000 C 
ENDBRANCH  11  13
ENDBRANCH  10  11
ENDBRANCH   9  10
ENDBRANCH   8   9
ENDBRANCH   7   8
ENDBRANCH   6   7
ENDBRANCH   5   6
ENDBRANCH   4   5
ENDBRANCH   3   4
ENDBRANCH   1   3
BRANCH   1  14
ATOM     14  C   UNL     1       6.980   4.978  17.116  0.00  0.00    +0.000 C 
BRANCH  14  15
ATOM     15  N   UNL     1       5.402   4.837  16.963  0.00  0.00    +0.000 N 
ATOM     16  C   UNL     1       4.848   6.247  16.851  0.00  0.00    +0.000 C 
ATOM     17  C   UNL     1       5.123   4.060  15.679  0.00  0.00    +0.000 C 
BRANCH  15  18
ATOM     18  C   UNL     1       4.906   4.070  18.221  0.00  0.00    +0.000 C 
BRANCH  18  19
ATOM     19  C   UNL     1       3.390   4.010  18.566  0.00  0.00    +0.000 C 
ATOM     20  C   UNL     1       2.696   2.681  18.239  0.00  0.00    +0.000 C 
ATOM     21  C   UNL     1       1.203   2.676  18.565  0.00  0.00    +0.000 C 
ATOM     22  C   UNL     1       0.957   3.122  20.002  0.00  0.00    +0.000 C 
ATOM     23  C   UNL     1       1.514   4.521  20.229  0.00  0.00    +0.000 C 
ATOM     24  C   UNL     1       3.015   4.546  19.959  0.00  0.00    +0.000 C 
BRANCH  24  25
ATOM     25  O   UNL     1       3.558   5.853  20.095  0.00  0.00    +0.000 OA
ATOM     26  H   UNL     1       3.836   6.175  19.217  0.00  0.00    +0.000 HD
ENDBRANCH  24  25
ENDBRANCH  18  19
ENDBRANCH  15  18
ENDBRANCH  14  15
ENDBRANCH   1  14
TORSDOF 15
ENDMDL
MODEL 4
REMARK VINA RESULT:      -6.2      1.813      2.349
REMARK  Name = 
REMARK  18 active torsions:
REMARK  status: ('A' for Active; 'I' for Inactive)
REMARK    1  A    between atoms: C_1  and  C_2
REMARK    2  A    between atoms: C_2  and  C_3
REMARK    3  A    between atoms: C_3  and  C_4
REMARK    4  A    between atoms: C_4  and  C_5
REMARK    5  A    between atoms: C_5  and  C_6
REMARK    6  A    between atoms: C_6  and  C_7
REMARK    7  A    between atoms: C_7  and  C_8
REMARK    8  A    between atoms: C_8  and  C_9
REMARK    9  A    between atoms: C_9  and  C_10
REMARK   10  A    between atoms: C_10  and  O_11
REMARK   11  A    between atoms: O_11  and  C_12
REMARK   12  A    between atoms: C_12  and  C_14
REMARK   13  A    between atoms: C_14  and  N_15
REMARK   14  A    between atoms: N_15  and  C_16
REMARK   15  A    between atoms: N_15  and  C_17
REMARK   16  A    between atoms: N_15  and  C_18
REMARK   17  A    between atoms: C_18  and  C_19
REMARK   18  A    between atoms: C_24  and  O_25
REMARK                            x       y       z     vdW  Elec       q    Type
REMARK                         _______ _______ _______ _____ _____    ______ ____
ROOT
ATOM      1  C   UNL     1       5.893   6.782  16.398  0.00  0.00    +0.000 C 
ATOM      2  O   UNL     1       5.251   6.880  15.360  0.00  0.00    +0.000 OA
ENDROOT
BRANCH   1   3
ATOM      3  O   UNL     1       7.153   7.258  16.585  0.00  0.00    +0.000 OA
BRANCH   3   4
ATOM      4  C   UNL     1       7.260   8.311  17.558  0.00  0.00    +0.000 C 
BRANCH   4   5
ATOM      5  C   UNL     1       8.435   8.090  18.507  0.00  0.00    +0.000 C 
BRANCH   5   6
ATOM      6  C   UNL     1       8.883   9.448  19.045  0.00  0.00    +0.000 C 
BRANCH   6   7
ATOM      7  C   UNL     1       8.971  10.524  17.971  0.00  0.00    +0.000 C 
BRANCH   7   8
ATOM      8  C   UNL     1      10.281  11.302  18.123  0.00  0.00    +0.000 C 
BRANCH   8   9
ATOM      9  C   UNL     1      10.550  11.648  19.583  0.00  0.00    +0.000 C 
BRANCH   9  10
ATOM     10  C   UNL     1      11.977  12.162  19.780  0.00  0.00    +0.000 C 
BRANCH  10  11
ATOM     11  C   UNL     1      12.024  13.681  19.624  0.00  0.00    +0.000 C 
BRANCH  11  13
ATOM     12  C   UNL     1      10.644  14.971  21.277  0.00  0.00    +0.000 C 
ATOM     13  C   UNL     1      10.666  14.317  19.906  0.00  0.00    +0.000 C 
ENDBRANCH  11  13
ENDBRANCH  10  11
ENDBRANCH   9  10
ENDBRANCH   8   9
ENDBRANCH   7   8
ENDBRANCH   6   7
ENDBRANCH   5   6
ENDBRANCH   4   5
ENDBRANCH   3   4
ENDBRANCH   1   3
BRANCH   1  14
ATOM     14  C   UNL     1       5.347   6.129  17.669  0.00  0.00    +0.000 C 
BRANCH  14  15
ATOM     15  N   UNL     1       5.694   4.589  17.867  0.00  0.00    +0.000 N 
ATOM     16  C   UNL     1       5.115   3.853  16.671  0.00  0.00    +0.000 C 
ATOM     17  C   UNL     1       7.213   4.448  17.884  0.00  0.00    +0.000 C 
BRANCH  15  18
ATOM     18  C   UNL     1       5.062   4.168  19.224  0.00  0.00    +0.000 C 
BRANCH  18  19
ATOM     19  C   UNL     1       3.534   3.895  19.337  0.00  0.00    +0.000 C 
ATOM     20  C   UNL     1       3.132   2.415  19.354  0.00  0.00    +0.000 C 
ATOM     21  C   UNL     1       1.622   2.194  19.433  0.00  0.00    +0.000 C 
ATOM     22  C   UNL     1       1.017   2.973  20.595  0.00  0.00    +0.000 C 
ATOM     23  C   UNL     1       1.297   4.462  20.442  0.00  0.00    +0.000 C 
ATOM     24  C   UNL     1       2.800   4.720  20.409  0.00  0.00    +0.000 C 
BRANCH  24  25
ATOM     25  O   UNL     1       3.099   6.094  20.198  0.00  0.00    +0.000 OA
ATOM     26  H   UNL     1       2.386   6.637  20.584  0.00  0.00    +0.000 HD
ENDBRANCH  24  25
ENDBRANCH  18  19
ENDBRANCH  15  18
ENDBRANCH  14  15
ENDBRANCH   1  14
TORSDOF 15
ENDMDL
MODEL 5
REMARK VINA RESULT:      -6.2      1.306      1.655
REMARK  Name = 
REMARK  18 active torsions:
REMARK  status: ('A' for Active; 'I' for Inactive)
REMARK    1  A    between atoms: C_1  and  C_2
REMARK    2  A    between atoms: C_2  and  C_3
REMARK    3  A    between atoms: C_3  and  C_4
REMARK    4  A    between atoms: C_4  and  C_5
REMARK    5  A    between atoms: C_5  and  C_6
REMARK    6  A    between atoms: C_6  and  C_7
REMARK    7  A    between atoms: C_7  and  C_8
REMARK    8  A    between atoms: C_8  and  C_9
REMARK    9  A    between atoms: C_9  and  C_10
REMARK   10  A    between atoms: C_10  and  O_11
REMARK   11  A    between atoms: O_11  and  C_12
REMARK   12  A    between atoms: C_12  and  C_14
REMARK   13  A    between atoms: C_14  and  N_15
REMARK   14  A    between atoms: N_15  and  C_16
REMARK   15  A    between atoms: N_15  and  C_17
REMARK   16  A    between atoms: N_15  and  C_18
REMARK   17  A    between atoms: C_18  and  C_19
REMARK   18  A    between atoms: C_24  and  O_25
REMARK                            x       y       z     vdW  Elec       q    Type
REMARK                         _______ _______ _______ _____ _____    ______ ____
ROOT
ATOM      1  C   UNL     1       7.542   5.453  18.034  0.00  0.00    +0.000 C 
ATOM      2  O   UNL     1       8.075   4.399  18.359  0.00  0.00    +0.000 OA
ENDROOT
BRANCH   1   3
ATOM      3  O   UNL     1       7.940   6.688  18.438  0.00  0.00    +0.000 OA
BRANCH   3   4
ATOM      4  C   UNL     1       7.950   7.686  17.403  0.00  0.00    +0.000 C 
BRANCH   4   5
ATOM      5  C   UNL     1       7.571   9.064  17.940  0.00  0.00    +0.000 C 
BRANCH   5   6
ATOM      6  C   UNL     1       8.825   9.935  17.965  0.00  0.00    +0.000 C 
BRANCH   6   7
ATOM      7  C   UNL     1       9.314  10.250  19.372  0.00  0.00    +0.000 C 
BRANCH   7   8
ATOM      8  C   UNL     1      10.429  11.297  19.312  0.00  0.00    +0.000 C 
BRANCH   8   9
ATOM      9  C   UNL     1      10.105  12.388  18.298  0.00  0.00    +0.000 C 
BRANCH   9  10
ATOM     10  C   UNL     1      11.260  12.599  17.318  0.00  0.00    +0.000 C 
BRANCH  10  11
ATOM     11  C   UNL     1      11.369  14.072  16.929  0.00  0.00    +0.000 C 
BRANCH  11  13
ATOM     12  C   UNL     1       9.937  16.066  17.450  0.00  0.00    +0.000 C 
ATOM     13  C   UNL     1      10.833  14.984  18.027  0.00  0.00    +0.000 C 
ENDBRANCH  11  13
ENDBRANCH  10  11
ENDBRANCH   9  10
ENDBRANCH   8   9
ENDBRANCH   7   8
ENDBRANCH   6   7
ENDBRANCH   5   6
ENDBRANCH   4   5
ENDBRANCH   3   4
ENDBRANCH   1   3
BRANCH   1  14
ATOM     14  C   UNL     1       6.350   5.534  17.077  0.00  0.00    +0.000 C 
BRANCH  14  15
ATOM     15  N   UNL     1       4.918   5.676  17.757  0.00  0.00    +0.000 N 
ATOM     16  C   UNL     1       5.146   5.670  19.259  0.00  0.00    +0.000 C 
ATOM     17  C   UNL     1       4.323   7.013  17.323  0.00  0.00    +0.000 C 
BRANCH  15  18
ATOM     18  C   UNL     1       4.070   4.476  17.250  0.00  0.00    +0.000 C 
BRANCH  18  19
ATOM     19  C   UNL     1       3.092   3.734  18.207  0.00  0.00    +0.000 C 
ATOM     20  C   UNL     1       1.789   4.481  18.519  0.00  0.00    +0.000 C 
ATOM     21  C   UNL     1       0.874   3.732  19.487  0.00  0.00    +0.000 C 
ATOM     22  C   UNL     1       0.626   2.305  19.009  0.00  0.00    +0.000 C 
ATOM     23  C   UNL     1       1.942   1.551  18.880  0.00  0.00    +0.000 C 
ATOM     24  C   UNL     1       2.860   2.249  17.881  0.00  0.00    +0.000 C 
BRANCH  24  25
ATOM     25  O   UNL     1       4.126   1.609  17.785  0.00  0.00    +0.000 OA
ATOM     26  H   UNL     1       4.765   2.082  18.351  0.00  0.00    +0.000 HD
ENDBRANCH  24  25
ENDBRANCH  18  19
ENDBRANCH  15  18
ENDBRANCH  14  15
ENDBRANCH   1  14
TORSDOF 15
ENDMDL
MODEL 6
REMARK VINA RESULT:      -6.2      1.155      1.359
REMARK  Name = 
REMARK  18 active torsions:
REMARK  status: ('A' for Active; 'I' for Inactive)
REMARK    1  A    between atoms: C_1  and  C_2
REMARK    2  A    between atoms: C_2  and  C_3
REMARK    3  A    between atoms: C_3  and  C_4
REMARK    4  A    between atoms: C_4  and  C_5
REMARK    5  A    between atoms: C_5  and  C_6
REMARK    6  A    between atoms: C_6  and  C_7
REMARK    7  A    between atoms: C_7  and  C_8
REMARK    8  A    between atoms: C_8  and  C_9
REMARK    9  A    between atoms: C_9  and  C_10
REMARK   10  A    between atoms: C_10  and  O_11
REMARK   11  A    between atoms: O_11  and  C_12
REMARK   12  A    between atoms: C_12  and  C_14
REMARK   13  A    between atoms: C_14  and  N_15
REMARK   14  A    between atoms: N_15  and  C_16
REMARK   15  A    between atoms: N_15  and  C_17
REMARK   16  A    between atoms: N_15  and  C_18
REMARK   17  A    between atoms: C_18  and  C_19
REMARK   18  A    between atoms: C_24  and  O_25
REMARK                            x       y       z     vdW  Elec       q    Type
REMARK                         _______ _______ _______ _____ _____    ______ ____
ROOT
ATOM      1  C   UNL     1       6.487   5.651  18.597  0.00  0.00    +0.000 C 
ATOM      2  O   UNL     1       6.739   5.445  19.777  0.00  0.00    +0.000 OA
ENDROOT
BRANCH   1   3
ATOM      3  O   UNL     1       6.399   6.878  18.019  0.00  0.00    +0.000 OA
BRANCH   3   4
ATOM      4  C   UNL     1       7.643   7.403  17.526  0.00  0.00    +0.000 C 
BRANCH   4   5
ATOM      5  C   UNL     1       8.460   8.063  18.634  0.00  0.00    +0.000 C 
BRANCH   5   6
ATOM      6  C   UNL     1       8.588   9.552  18.319  0.00  0.00    +0.000 C 
BRANCH   6   7
ATOM      7  C   UNL     1       9.190  10.361  19.461  0.00  0.00    +0.000 C 
BRANCH   7   8
ATOM      8  C   UNL     1      10.457  11.073  18.981  0.00  0.00    +0.000 C 
BRANCH   8   9
ATOM      9  C   UNL     1      10.210  11.817  17.674  0.00  0.00    +0.000 C 
BRANCH   9  10
ATOM     10  C   UNL     1      10.469  13.316  17.828  0.00  0.00    +0.000 C 
BRANCH  10  11
ATOM     11  C   UNL     1      10.986  13.628  19.231  0.00  0.00    +0.000 C 
BRANCH  11  13
ATOM     12  C   UNL     1      10.710  15.216  21.154  0.00  0.00    +0.000 C 
ATOM     13  C   UNL     1      10.011  14.507  20.007  0.00  0.00    +0.000 C 
ENDBRANCH  11  13
ENDBRANCH  10  11
ENDBRANCH   9  10
ENDBRANCH   8   9
ENDBRANCH   7   8
ENDBRANCH   6   7
ENDBRANCH   5   6
ENDBRANCH   4   5
ENDBRANCH   3   4
ENDBRANCH   1   3
BRANCH   1  14
ATOM     14  C   UNL     1       6.267   4.534  17.574  0.00  0.00    +0.000 C 
BRANCH  14  15
ATOM     15  N   UNL     1       4.857   4.529  16.837  0.00  0.00    +0.000 N 
ATOM     16  C   UNL     1       4.232   5.892  17.083  0.00  0.00    +0.000 C 
ATOM     17  C   UNL     1       5.108   4.328  15.346  0.00  0.00    +0.000 C 
BRANCH  15  18
ATOM     18  C   UNL     1       4.046   3.352  17.449  0.00  0.00    +0.000 C 
BRANCH  18  19
ATOM     19  C   UNL     1       3.308   3.520  18.809  0.00  0.00    +0.000 C 
ATOM     20  C   UNL     1       1.824   3.893  18.707  0.00  0.00    +0.000 C 
ATOM     21  C   UNL     1       1.147   4.078  20.065  0.00  0.00    +0.000 C 
ATOM     22  C   UNL     1       1.382   2.868  20.961  0.00  0.00    +0.000 C 
ATOM     23  C   UNL     1       2.873   2.642  21.172  0.00  0.00    +0.000 C 
ATOM     24  C   UNL     1       3.569   2.405  19.837  0.00  0.00    +0.000 C 
BRANCH  24  25
ATOM     25  O   UNL     1       4.975   2.257  19.989  0.00  0.00    +0.000 OA
ATOM     26  H   UNL     1       5.353   3.106  20.287  0.00  0.00    +0.000 HD
ENDBRANCH  24  25
ENDBRANCH  18  19
ENDBRANCH  15  18
ENDBRANCH  14  15
ENDBRANCH   1  14
TORSDOF 15
ENDMDL
MODEL 7
REMARK VINA RESULT:      -6.1      5.539      8.597
REMARK  Name = 
REMARK  18 active torsions:
REMARK  status: ('A' for Active; 'I' for Inactive)
REMARK    1  A    between atoms: C_1  and  C_2
REMARK    2  A    between atoms: C_2  and  C_3
REMARK    3  A    between atoms: C_3  and  C_4
REMARK    4  A    between atoms: C_4  and  C_5
REMARK    5  A    between atoms: C_5  and  C_6
REMARK    6  A    between atoms: C_6  and  C_7
REMARK    7  A    between atoms: C_7  and  C_8
REMARK    8  A    between atoms: C_8  and  C_9
REMARK    9  A    between atoms: C_9  and  C_10
REMARK   10  A    between atoms: C_10  and  O_11
REMARK   11  A    between atoms: O_11  and  C_12
REMARK   12  A    between atoms: C_12  and  C_14
REMARK   13  A    between atoms: C_14  and  N_15
REMARK   14  A    between atoms: N_15  and  C_16
REMARK   15  A    between atoms: N_15  and  C_17
REMARK   16  A    between atoms: N_15  and  C_18
REMARK   17  A    between atoms: C_18  and  C_19
REMARK   18  A    between atoms: C_24  and  O_25
REMARK                            x       y       z     vdW  Elec       q    Type
REMARK                         _______ _______ _______ _____ _____    ______ ____
ROOT
ATOM      1  C   UNL     1       4.261   3.964  18.718  0.00  0.00    +0.000 C 
ATOM      2  O   UNL     1       3.829   2.893  19.124  0.00  0.00    +0.000 OA
ENDROOT
BRANCH   1   3
ATOM      3  O   UNL     1       4.970   4.138  17.572  0.00  0.00    +0.000 OA
BRANCH   3   4
ATOM      4  C   UNL     1       5.237   5.508  17.230  0.00  0.00    +0.000 C 
BRANCH   4   5
ATOM      5  C   UNL     1       6.617   5.678  16.599  0.00  0.00    +0.000 C 
BRANCH   5   6
ATOM      6  C   UNL     1       6.893   4.471  15.706  0.00  0.00    +0.000 C 
BRANCH   6   7
ATOM      7  C   UNL     1       6.903   4.807  14.221  0.00  0.00    +0.000 C 
BRANCH   7   8
ATOM      8  C   UNL     1       5.752   4.086  13.517  0.00  0.00    +0.000 C 
BRANCH   8   9
ATOM      9  C   UNL     1       6.268   2.964  12.623  0.00  0.00    +0.000 C 
BRANCH   9  10
ATOM     10  C   UNL     1       5.467   2.872  11.324  0.00  0.00    +0.000 C 
BRANCH  10  11
ATOM     11  C   UNL     1       4.048   3.396  11.533  0.00  0.00    +0.000 C 
BRANCH  11  13
ATOM     12  C   UNL     1       2.868   4.383   9.550  0.00  0.00    +0.000 C 
ATOM     13  C   UNL     1       3.160   3.110  10.327  0.00  0.00    +0.000 C 
ENDBRANCH  11  13
ENDBRANCH  10  11
ENDBRANCH   9  10
ENDBRANCH   8   9
ENDBRANCH   7   8
ENDBRANCH   6   7
ENDBRANCH   5   6
ENDBRANCH   4   5
ENDBRANCH   3   4
ENDBRANCH   1   3
BRANCH   1  14
ATOM     14  C   UNL     1       4.030   5.294  19.440  0.00  0.00    +0.000 C 
BRANCH  14  15
ATOM     15  N   UNL     1       2.528   5.818  19.474  0.00  0.00    +0.000 N 
ATOM     16  C   UNL     1       1.894   5.412  18.155  0.00  0.00    +0.000 C 
ATOM     17  C   UNL     1       1.815   5.127  20.633  0.00  0.00    +0.000 C 
BRANCH  15  18
ATOM     18  C   UNL     1       2.605   7.358  19.681  0.00  0.00    +0.000 C 
BRANCH  18  19
ATOM     19  C   UNL     1       1.320   8.182  19.984  0.00  0.00    +0.000 C 
ATOM     20  C   UNL     1       1.044   8.441  21.471  0.00  0.00    +0.000 C 
ATOM     21  C   UNL     1      -0.242   9.226  21.724  0.00  0.00    +0.000 C 
ATOM     22  C   UNL     1      -0.272  10.506  20.896  0.00  0.00    +0.000 C 
ATOM     23  C   UNL     1      -0.168  10.183  19.412  0.00  0.00    +0.000 C 
ATOM     24  C   UNL     1       1.132   9.441  19.119  0.00  0.00    +0.000 C 
BRANCH  24  25
ATOM     25  O   UNL     1       1.232   9.063  17.752  0.00  0.00    +0.000 OA
ATOM     26  H   UNL     1       1.914   9.611  17.320  0.00  0.00    +0.000 HD
ENDBRANCH  24  25
ENDBRANCH  18  19
ENDBRANCH  15  18
ENDBRANCH  14  15
ENDBRANCH   1  14
TORSDOF 15
ENDMDL
MODEL 8
REMARK VINA RESULT:      -6.1      1.539      1.894
REMARK  Name = 
REMARK  18 active torsions:
REMARK  status: ('A' for Active; 'I' for Inactive)
REMARK    1  A    between atoms: C_1  and  C_2
REMARK    2  A    between atoms: C_2  and  C_3
REMARK    3  A    between atoms: C_3  and  C_4
REMARK    4  A    between atoms: C_4  and  C_5
REMARK    5  A    between atoms: C_5  and  C_6
REMARK    6  A    between atoms: C_6  and  C_7
REMARK    7  A    between atoms: C_7  and  C_8
REMARK    8  A    between atoms: C_8  and  C_9
REMARK    9  A    between atoms: C_9  and  C_10
REMARK   10  A    between atoms: C_10  and  O_11
REMARK   11  A    between atoms: O_11  and  C_12
REMARK   12  A    between atoms: C_12  and  C_14
REMARK   13  A    between atoms: C_14  and  N_15
REMARK   14  A    between atoms: N_15  and  C_16
REMARK   15  A    between atoms: N_15  and  C_17
REMARK   16  A    between atoms: N_15  and  C_18
REMARK   17  A    between atoms: C_18  and  C_19
REMARK   18  A    between atoms: C_24  and  O_25
REMARK                            x       y       z     vdW  Elec       q    Type
REMARK                         _______ _______ _______ _____ _____    ______ ____
ROOT
ATOM      1  C   UNL     1       7.131   5.607  17.560  0.00  0.00    +0.000 C 
ATOM      2  O   UNL     1       7.649   4.627  18.081  0.00  0.00    +0.000 OA
ENDROOT
BRANCH   1   3
ATOM      3  O   UNL     1       7.775   6.502  16.766  0.00  0.00    +0.000 OA
BRANCH   3   4
ATOM      4  C   UNL     1       7.521   7.881  17.084  0.00  0.00    +0.000 C 
BRANCH   4   5
ATOM      5  C   UNL     1       8.265   8.320  18.342  0.00  0.00    +0.000 C 
BRANCH   5   6
ATOM      6  C   UNL     1       8.742   9.758  18.145  0.00  0.00    +0.000 C 
BRANCH   6   7
ATOM      7  C   UNL     1       9.386  10.356  19.389  0.00  0.00    +0.000 C 
BRANCH   7   8
ATOM      8  C   UNL     1      10.261  11.549  18.997  0.00  0.00    +0.000 C 
BRANCH   8   9
ATOM      9  C   UNL     1       9.577  12.411  17.942  0.00  0.00    +0.000 C 
BRANCH   9  10
ATOM     10  C   UNL     1      10.244  13.783  17.824  0.00  0.00    +0.000 C 
BRANCH  10  11
ATOM     11  C   UNL     1      11.697  13.633  17.380  0.00  0.00    +0.000 C 
BRANCH  11  13
ATOM     12  C   UNL     1      11.302  16.100  17.133  0.00  0.00    +0.000 C 
ATOM     13  C   UNL     1      12.333  14.985  17.074  0.00  0.00    +0.000 C 
ENDBRANCH  11  13
ENDBRANCH  10  11
ENDBRANCH   9  10
ENDBRANCH   8   9
ENDBRANCH   7   8
ENDBRANCH   6   7
ENDBRANCH   5   6
ENDBRANCH   4   5
ENDBRANCH   3   4
ENDBRANCH   1   3
BRANCH   1  14
ATOM     14  C   UNL     1       5.647   5.950  17.703  0.00  0.00    +0.000 C 
BRANCH  14  15
ATOM     15  N   UNL     1       4.634   4.727  17.597  0.00  0.00    +0.000 N 
ATOM     16  C   UNL     1       4.887   4.066  16.253  0.00  0.00    +0.000 C 
ATOM     17  C   UNL     1       4.953   3.754  18.729  0.00  0.00    +0.000 C 
BRANCH  15  18
ATOM     18  C   UNL     1       3.206   5.327  17.738  0.00  0.00    +0.000 C 
BRANCH  18  19
ATOM     19  C   UNL     1       2.116   4.591  18.571  0.00  0.00    +0.000 C 
ATOM     20  C   UNL     1       1.801   3.160  18.118  0.00  0.00    +0.000 C 
ATOM     21  C   UNL     1       0.705   2.486  18.942  0.00  0.00    +0.000 C 
ATOM     22  C   UNL     1       1.014   2.570  20.433  0.00  0.00    +0.000 C 
ATOM     23  C   UNL     1       1.147   4.022  20.869  0.00  0.00    +0.000 C 
ATOM     24  C   UNL     1       2.269   4.709  20.097  0.00  0.00    +0.000 C 
BRANCH  24  25
ATOM     25  O   UNL     1       2.378   6.086  20.431  0.00  0.00    +0.000 OA
ATOM     26  H   UNL     1       2.035   6.223  21.334  0.00  0.00    +0.000 HD
ENDBRANCH  24  25
ENDBRANCH  18  19
ENDBRANCH  15  18
ENDBRANCH  14  15
ENDBRANCH   1  14
TORSDOF 15
ENDMDL
MODEL 9
REMARK VINA RESULT:      -6.1      5.527      8.830
REMARK  Name = 
REMARK  18 active torsions:
REMARK  status: ('A' for Active; 'I' for Inactive)
REMARK    1  A    between atoms: C_1  and  C_2
REMARK    2  A    between atoms: C_2  and  C_3
REMARK    3  A    between atoms: C_3  and  C_4
REMARK    4  A    between atoms: C_4  and  C_5
REMARK    5  A    between atoms: C_5  and  C_6
REMARK    6  A    between atoms: C_6  and  C_7
REMARK    7  A    between atoms: C_7  and  C_8
REMARK    8  A    between atoms: C_8  and  C_9
REMARK    9  A    between atoms: C_9  and  C_10
REMARK   10  A    between atoms: C_10  and  O_11
REMARK   11  A    between atoms: O_11  and  C_12
REMARK   12  A    between atoms: C_12  and  C_14
REMARK   13  A    between atoms: C_14  and  N_15
REMARK   14  A    between atoms: N_15  and  C_16
REMARK   15  A    between atoms: N_15  and  C_17
REMARK   16  A    between atoms: N_15  and  C_18
REMARK   17  A    between atoms: C_18  and  C_19
REMARK   18  A    between atoms: C_24  and  O_25
REMARK                            x       y       z     vdW  Elec       q    Type
REMARK                         _______ _______ _______ _____ _____    ______ ____
ROOT
ATOM      1  C   UNL     1       1.517   4.385  20.715  0.00  0.00    +0.000 C 
ATOM      2  O   UNL     1       0.462   4.200  20.122  0.00  0.00    +0.000 OA
ENDROOT
BRANCH   1   3
ATOM      3  O   UNL     1       1.937   5.580  21.209  0.00  0.00    +0.000 OA
BRANCH   3   4
ATOM      4  C   UNL     1       1.563   6.722  20.421  0.00  0.00    +0.000 C 
BRANCH   4   5
ATOM      5  C   UNL     1       1.506   7.997  21.259  0.00  0.00    +0.000 C 
BRANCH   5   6
ATOM      6  C   UNL     1       0.058   8.481  21.306  0.00  0.00    +0.000 C 
BRANCH   6   7
ATOM      7  C   UNL     1      -0.100   9.951  20.939  0.00  0.00    +0.000 C 
BRANCH   7   8
ATOM      8  C   UNL     1      -0.220  10.096  19.420  0.00  0.00    +0.000 C 
BRANCH   8   9
ATOM      9  C   UNL     1      -0.817  11.446  19.041  0.00  0.00    +0.000 C 
BRANCH   9  10
ATOM     10  C   UNL     1      -2.288  11.314  18.642  0.00  0.00    +0.000 C 
BRANCH  10  11
ATOM     11  C   UNL     1      -2.496  10.075  17.773  0.00  0.00    +0.000 C 
BRANCH  11  13
ATOM     12  C   UNL     1      -2.798  10.142  15.282  0.00  0.00    +0.000 C 
ATOM     13  C   UNL     1      -3.468  10.347  16.630  0.00  0.00    +0.000 C 
ENDBRANCH  11  13
ENDBRANCH  10  11
ENDBRANCH   9  10
ENDBRANCH   8   9
ENDBRANCH   7   8
ENDBRANCH   6   7
ENDBRANCH   5   6
ENDBRANCH   4   5
ENDBRANCH   3   4
ENDBRANCH   1   3
BRANCH   1  14
ATOM     14  C   UNL     1       2.518   3.269  21.024  0.00  0.00    +0.000 C 
BRANCH  14  15
ATOM     15  N   UNL     1       3.428   2.792  19.809  0.00  0.00    +0.000 N 
ATOM     16  C   UNL     1       4.578   2.002  20.409  0.00  0.00    +0.000 C 
ATOM     17  C   UNL     1       2.582   1.890  18.915  0.00  0.00    +0.000 C 
BRANCH  15  18
ATOM     18  C   UNL     1       3.878   4.082  19.065  0.00  0.00    +0.000 C 
BRANCH  18  19
ATOM     19  C   UNL     1       5.089   4.052  18.089  0.00  0.00    +0.000 C 
ATOM     20  C   UNL     1       4.730   3.912  16.604  0.00  0.00    +0.000 C 
ATOM     21  C   UNL     1       5.949   3.856  15.684  0.00  0.00    +0.000 C 
ATOM     22  C   UNL     1       6.885   5.030  15.947  0.00  0.00    +0.000 C 
ATOM     23  C   UNL     1       7.351   5.025  17.396  0.00  0.00    +0.000 C 
ATOM     24  C   UNL     1       6.158   5.130  18.340  0.00  0.00    +0.000 C 
BRANCH  24  25
ATOM     25  O   UNL     1       6.551   5.060  19.704  0.00  0.00    +0.000 OA
ATOM     26  H   UNL     1       7.299   5.670  19.851  0.00  0.00    +0.000 HD
ENDBRANCH  24  25
ENDBRANCH  18  19
ENDBRANCH  15  18
ENDBRANCH  14  15
ENDBRANCH   1  14
TORSDOF 15
ENDMDL
