MODEL 1
REMARK VINA RESULT:      -7.4      0.000      0.000
REMARK  Name = 
REMARK  10 active torsions:
REMARK  status: ('A' for Active; 'I' for Inactive)
REMARK    1  A    between atoms: C_2  and  C_3
REMARK    2  A    between atoms: C_3  and  C_4
REMARK    3  A    between atoms: N_6  and  C_7
REMARK    4  A    between atoms: C_7  and  C_8
REMARK    5  A    between atoms: C_12  and  O_13
REMARK    6  A    between atoms: C_12  and  C_18
REMARK    7  A    between atoms: O_13  and  C_14
REMARK    8  A    between atoms: C_14  and  C_16
REMARK    9  A    between atoms: C_16  and  C_17
REMARK   10  A    between atoms: C_22  and  O_23
REMARK                            x       y       z     vdW  Elec       q    Type
REMARK                         _______ _______ _______ _____ _____    ______ ____
ROOT
ATOM      1  C   UNL     1       4.234   3.992  16.531  0.00  0.00    +0.000 C 
ATOM      2  C   UNL     1       5.131   3.324  15.460  0.00  0.00    +0.000 C 
ATOM      3  N   UNL     1       5.541   4.244  14.380  0.00  0.00    +0.000 NA
ATOM      4  C   UNL     1       6.243   5.410  14.930  0.00  0.00    +0.000 C 
ATOM      5  C   UNL     1       5.323   6.162  15.886  0.00  0.00    +0.000 C 
ATOM      6  C   UNL     1       4.928   5.288  17.098  0.00  0.00    +0.000 C 
ENDROOT
BRANCH   6   7
ATOM      7  C   UNL     1       3.949   6.046  18.023  0.00  0.00    +0.000 A 
ATOM      8  C   UNL     1       3.422   7.295  17.636  0.00  0.00    +0.000 A 
ATOM      9  C   UNL     1       2.496   7.976  18.435  0.00  0.00    +0.000 A 
ATOM     10  C   UNL     1       2.086   7.433  19.648  0.00  0.00    +0.000 A 
ATOM     11  C   UNL     1       2.603   6.208  20.047  0.00  0.00    +0.000 A 
ATOM     12  C   UNL     1       3.511   5.516  19.249  0.00  0.00    +0.000 A 
BRANCH  11  13
ATOM     13  O   UNL     1       2.234   5.631  21.227  0.00  0.00    +0.000 OA
ATOM     14  H   UNL     1       2.914   5.828  21.891  0.00  0.00    +0.000 HD
ENDBRANCH  11  13
ENDBRANCH   6   7
BRANCH   1  15
ATOM     15  C   UNL     1       3.888   2.988  17.665  0.00  0.00    +0.000 C 
BRANCH  15  17
ATOM     16  C   UNL     1       1.718   2.267  18.707  0.00  0.00    +0.000 C 
ATOM     17  C   UNL     1       2.484   2.445  17.622  0.00  0.00    +0.000 C 
ENDBRANCH  15  17
ENDBRANCH   1  15
BRANCH   3  18
ATOM     18  C   UNL     1       6.371   3.512  13.405  0.00  0.00    +0.000 C 
BRANCH  18  19
ATOM     19  C   UNL     1       5.799   3.502  12.016  0.00  0.00    +0.000 C 
ATOM     20  C   UNL     1       4.508   3.270  11.737  0.00  0.00    +0.000 C 
ENDBRANCH  18  19
ENDBRANCH   3  18
BRANCH   6  21
ATOM     21  O   UNL     1       6.107   4.799  17.825  0.00  0.00    +0.000 OA
BRANCH  21  22
ATOM     22  C   UNL     1       6.874   5.603  18.605  0.00  0.00    +0.000 C 
ATOM     23  O   UNL     1       6.952   5.555  19.826  0.00  0.00    +0.000 OA
BRANCH  22  24
ATOM     24  C   UNL     1       7.731   6.529  17.776  0.00  0.00    +0.000 C 
ATOM     25  C   UNL     1       8.156   7.795  18.498  0.00  0.00    +0.000 C 
ENDBRANCH  22  24
ENDBRANCH  21  22
ENDBRANCH   6  21
TORSDOF 9
ENDMDL
MODEL 2
REMARK VINA RESULT:      -7.1      0.912      1.152
REMARK  Name = 
REMARK  10 active torsions:
REMARK  status: ('A' for Active; 'I' for Inactive)
REMARK    1  A    between atoms: C_2  and  C_3
REMARK    2  A    between atoms: C_3  and  C_4
REMARK    3  A    between atoms: N_6  and  C_7
REMARK    4  A    between atoms: C_7  and  C_8
REMARK    5  A    between atoms: C_12  and  O_13
REMARK    6  A    between atoms: C_12  and  C_18
REMARK    7  A    between atoms: O_13  and  C_14
REMARK    8  A    between atoms: C_14  and  C_16
REMARK    9  A    between atoms: C_16  and  C_17
REMARK   10  A    between atoms: C_22  and  O_23
REMARK                            x       y       z     vdW  Elec       q    Type
REMARK                         _______ _______ _______ _____ _____    ______ ____
ROOT
ATOM      1  C   UNL     1       4.609   4.206  16.714  0.00  0.00    +0.000 C 
ATOM      2  C   UNL     1       5.513   3.521  15.659  0.00  0.00    +0.000 C 
ATOM      3  N   UNL     1       5.536   4.223  14.360  0.00  0.00    +0.000 NA
ATOM      4  C   UNL     1       5.971   5.615  14.530  0.00  0.00    +0.000 C 
ATOM      5  C   UNL     1       5.010   6.346  15.460  0.00  0.00    +0.000 C 
ATOM      6  C   UNL     1       5.005   5.722  16.875  0.00  0.00    +0.000 C 
ENDROOT
BRANCH   6   7
ATOM      7  C   UNL     1       3.981   6.437  17.785  0.00  0.00    +0.000 A 
ATOM      8  C   UNL     1       3.385   7.648  17.378  0.00  0.00    +0.000 A 
ATOM      9  C   UNL     1       2.420   8.288  18.163  0.00  0.00    +0.000 A 
ATOM     10  C   UNL     1       2.037   7.742  19.384  0.00  0.00    +0.000 A 
ATOM     11  C   UNL     1       2.621   6.555  19.803  0.00  0.00    +0.000 A 
ATOM     12  C   UNL     1       3.570   5.903  19.018  0.00  0.00    +0.000 A 
BRANCH  11  13
ATOM     13  O   UNL     1       2.281   5.976  20.991  0.00  0.00    +0.000 OA
ATOM     14  H   UNL     1       2.982   5.354  21.241  0.00  0.00    +0.000 HD
ENDBRANCH  11  13
ENDBRANCH   6   7
BRANCH   1  15
ATOM     15  C   UNL     1       4.676   3.451  18.070  0.00  0.00    +0.000 C 
BRANCH  15  17
ATOM     16  C   UNL     1       2.420   2.466  17.570  0.00  0.00    +0.000 C 
ATOM     17  C   UNL     1       3.512   2.536  18.343  0.00  0.00    +0.000 C 
ENDBRANCH  15  17
ENDBRANCH   1  15
BRANCH   3  18
ATOM     18  C   UNL     1       6.405   3.487  13.423  0.00  0.00    +0.000 C 
BRANCH  18  19
ATOM     19  C   UNL     1       5.801   3.309  12.058  0.00  0.00    +0.000 C 
ATOM     20  C   UNL     1       4.485   3.351  11.808  0.00  0.00    +0.000 C 
ENDBRANCH  18  19
ENDBRANCH   3  18
BRANCH   6  21
ATOM     21  O   UNL     1       6.349   5.702  17.466  0.00  0.00    +0.000 OA
BRANCH  21  22
ATOM     22  C   UNL     1       7.092   6.826  17.641  0.00  0.00    +0.000 C 
ATOM     23  O   UNL     1       6.968   7.871  17.016  0.00  0.00    +0.000 OA
BRANCH  22  24
ATOM     24  C   UNL     1       8.052   6.682  18.797  0.00  0.00    +0.000 C 
ATOM     25  C   UNL     1       7.759   5.501  19.705  0.00  0.00    +0.000 C 
ENDBRANCH  22  24
ENDBRANCH  21  22
ENDBRANCH   6  21
TORSDOF 9
ENDMDL
MODEL 3
REMARK VINA RESULT:      -7.1      0.936      1.352
REMARK  Name = 
REMARK  10 active torsions:
REMARK  status: ('A' for Active; 'I' for Inactive)
REMARK    1  A    between atoms: C_2  and  C_3
REMARK    2  A    between atoms: C_3  and  C_4
REMARK    3  A    between atoms: N_6  and  C_7
REMARK    4  A    between atoms: C_7  and  C_8
REMARK    5  A    between atoms: C_12  and  O_13
REMARK    6  A    between atoms: C_12  and  C_18
REMARK    7  A    between atoms: O_13  and  C_14
REMARK    8  A    between atoms: C_14  and  C_16
REMARK    9  A    between atoms: C_16  and  C_17
REMARK   10  A    between atoms: C_22  and  O_23
REMARK                            x       y       z     vdW  Elec       q    Type
REMARK                         _______ _______ _______ _____ _____    ______ ____
ROOT
ATOM      1  C   UNL     1       4.177   3.958  16.533  0.00  0.00    +0.000 C 
ATOM      2  C   UNL     1       5.087   3.403  15.410  0.00  0.00    +0.000 C 
ATOM      3  N   UNL     1       5.459   4.414  14.400  0.00  0.00    +0.000 NA
ATOM      4  C   UNL     1       6.127   5.557  15.033  0.00  0.00    +0.000 C 
ATOM      5  C   UNL     1       5.191   6.205  16.047  0.00  0.00    +0.000 C 
ATOM      6  C   UNL     1       4.833   5.230  17.192  0.00  0.00    +0.000 C 
ENDROOT
BRANCH   6   7
ATOM      7  C   UNL     1       3.836   5.883  18.176  0.00  0.00    +0.000 A 
ATOM      8  C   UNL     1       3.521   5.253  19.398  0.00  0.00    +0.000 A 
ATOM      9  C   UNL     1       2.659   5.848  20.325  0.00  0.00    +0.000 A 
ATOM     10  C   UNL     1       2.077   7.081  20.049  0.00  0.00    +0.000 A 
ATOM     11  C   UNL     1       2.371   7.709  18.847  0.00  0.00    +0.000 A 
ATOM     12  C   UNL     1       3.242   7.131  17.926  0.00  0.00    +0.000 A 
BRANCH  11  13
ATOM     13  O   UNL     1       1.827   8.919  18.526  0.00  0.00    +0.000 OA
ATOM     14  H   UNL     1       1.498   8.876  17.616  0.00  0.00    +0.000 HD
ENDBRANCH  11  13
ENDBRANCH   6   7
BRANCH   1  15
ATOM     15  C   UNL     1       3.871   2.860  17.589  0.00  0.00    +0.000 C 
BRANCH  15  17
ATOM     16  C   UNL     1       1.683   2.216  18.641  0.00  0.00    +0.000 C 
ATOM     17  C   UNL     1       2.464   2.327  17.558  0.00  0.00    +0.000 C 
ENDBRANCH  15  17
ENDBRANCH   1  15
BRANCH   3  18
ATOM     18  C   UNL     1       6.306   3.785  13.369  0.00  0.00    +0.000 C 
BRANCH  18  19
ATOM     19  C   UNL     1       5.531   2.970  12.371  0.00  0.00    +0.000 C 
ATOM     20  C   UNL     1       4.505   3.442  11.651  0.00  0.00    +0.000 C 
ENDBRANCH  18  19
ENDBRANCH   3  18
BRANCH   6  21
ATOM     21  O   UNL     1       6.032   4.727  17.874  0.00  0.00    +0.000 OA
BRANCH  21  22
ATOM     22  C   UNL     1       6.786   5.498  18.699  0.00  0.00    +0.000 C 
ATOM     23  O   UNL     1       6.710   5.527  19.921  0.00  0.00    +0.000 OA
BRANCH  22  24
ATOM     24  C   UNL     1       7.835   6.268  17.935  0.00  0.00    +0.000 C 
ATOM     25  C   UNL     1       7.603   7.768  17.902  0.00  0.00    +0.000 C 
ENDBRANCH  22  24
ENDBRANCH  21  22
ENDBRANCH   6  21
TORSDOF 9
ENDMDL
MODEL 4
REMARK VINA RESULT:      -7.0      1.870      4.882
REMARK  Name = 
REMARK  10 active torsions:
REMARK  status: ('A' for Active; 'I' for Inactive)
REMARK    1  A    between atoms: C_2  and  C_3
REMARK    2  A    between atoms: C_3  and  C_4
REMARK    3  A    between atoms: N_6  and  C_7
REMARK    4  A    between atoms: C_7  and  C_8
REMARK    5  A    between atoms: C_12  and  O_13
REMARK    6  A    between atoms: C_12  and  C_18
REMARK    7  A    between atoms: O_13  and  C_14
REMARK    8  A    between atoms: C_14  and  C_16
REMARK    9  A    between atoms: C_16  and  C_17
REMARK   10  A    between atoms: C_22  and  O_23
REMARK                            x       y       z     vdW  Elec       q    Type
REMARK                         _______ _______ _______ _____ _____    ______ ____
ROOT
ATOM      1  C   UNL     1       4.346   6.560  18.105  0.00  0.00    +0.000 C 
ATOM      2  C   UNL     1       5.596   7.294  17.561  0.00  0.00    +0.000 C 
ATOM      3  N   UNL     1       6.867   6.780  18.112  0.00  0.00    +0.000 NA
ATOM      4  C   UNL     1       7.003   5.343  17.845  0.00  0.00    +0.000 C 
ATOM      5  C   UNL     1       5.850   4.586  18.494  0.00  0.00    +0.000 C 
ATOM      6  C   UNL     1       4.488   5.005  17.896  0.00  0.00    +0.000 C 
ENDROOT
BRANCH   6   7
ATOM      7  C   UNL     1       3.328   4.273  18.608  0.00  0.00    +0.000 A 
ATOM      8  C   UNL     1       2.305   3.657  17.858  0.00  0.00    +0.000 A 
ATOM      9  C   UNL     1       1.271   2.947  18.479  0.00  0.00    +0.000 A 
ATOM     10  C   UNL     1       1.225   2.849  19.866  0.00  0.00    +0.000 A 
ATOM     11  C   UNL     1       2.220   3.457  20.618  0.00  0.00    +0.000 A 
ATOM     12  C   UNL     1       3.262   4.151  20.006  0.00  0.00    +0.000 A 
BRANCH  11  13
ATOM     13  O   UNL     1       2.222   3.391  21.981  0.00  0.00    +0.000 OA
ATOM     14  H   UNL     1       3.048   3.781  22.306  0.00  0.00    +0.000 HD
ENDBRANCH  11  13
ENDBRANCH   6   7
BRANCH   1  15
ATOM     15  C   UNL     1       3.052   7.110  17.443  0.00  0.00    +0.000 C 
BRANCH  15  17
ATOM     16  C   UNL     1       1.954   9.328  17.875  0.00  0.00    +0.000 C 
ATOM     17  C   UNL     1       2.283   8.095  18.282  0.00  0.00    +0.000 C 
ENDBRANCH  15  17
ENDBRANCH   1  15
BRANCH   3  18
ATOM     18  C   UNL     1       7.990   7.553  17.550  0.00  0.00    +0.000 C 
BRANCH  18  19
ATOM     19  C   UNL     1       7.921   9.022  17.856  0.00  0.00    +0.000 C 
ATOM     20  C   UNL     1       8.833   9.681  18.585  0.00  0.00    +0.000 C 
ENDBRANCH  18  19
ENDBRANCH   3  18
BRANCH   6  21
ATOM     21  O   UNL     1       4.451   4.814  16.440  0.00  0.00    +0.000 OA
BRANCH  21  22
ATOM     22  C   UNL     1       5.304   3.984  15.786  0.00  0.00    +0.000 C 
ATOM     23  O   UNL     1       5.486   2.800  16.037  0.00  0.00    +0.000 OA
BRANCH  22  24
ATOM     24  C   UNL     1       5.954   4.671  14.609  0.00  0.00    +0.000 C 
ATOM     25  C   UNL     1       6.061   3.804  13.367  0.00  0.00    +0.000 C 
ENDBRANCH  22  24
ENDBRANCH  21  22
ENDBRANCH   6  21
TORSDOF 9
ENDMDL
MODEL 5
REMARK VINA RESULT:      -7.0      1.368      1.812
REMARK  Name = 
REMARK  10 active torsions:
REMARK  status: ('A' for Active; 'I' for Inactive)
REMARK    1  A    between atoms: C_2  and  C_3
REMARK    2  A    between atoms: C_3  and  C_4
REMARK    3  A    between atoms: N_6  and  C_7
REMARK    4  A    between atoms: C_7  and  C_8
REMARK    5  A    between atoms: C_12  and  O_13
REMARK    6  A    between atoms: C_12  and  C_18
REMARK    7  A    between atoms: O_13  and  C_14
REMARK    8  A    between atoms: C_14  and  C_16
REMARK    9  A    between atoms: C_16  and  C_17
REMARK   10  A    between atoms: C_22  and  O_23
REMARK                            x       y       z     vdW  Elec       q    Type
REMARK                         _______ _______ _______ _____ _____    ______ ____
ROOT
ATOM      1  C   UNL     1       4.542   4.219  16.546  0.00  0.00    +0.000 C 
ATOM      2  C   UNL     1       5.464   3.568  15.487  0.00  0.00    +0.000 C 
ATOM      3  N   UNL     1       5.553   4.338  14.230  0.00  0.00    +0.000 NA
ATOM      4  C   UNL     1       6.019   5.706  14.492  0.00  0.00    +0.000 C 
ATOM      5  C   UNL     1       5.044   6.412  15.428  0.00  0.00    +0.000 C 
ATOM      6  C   UNL     1       4.972   5.713  16.805  0.00  0.00    +0.000 C 
ENDROOT
BRANCH   6   7
ATOM      7  C   UNL     1       3.936   6.405  17.718  0.00  0.00    +0.000 A 
ATOM      8  C   UNL     1       3.585   5.838  18.961  0.00  0.00    +0.000 A 
ATOM      9  C   UNL     1       2.686   6.472  19.825  0.00  0.00    +0.000 A 
ATOM     10  C   UNL     1       2.102   7.681  19.463  0.00  0.00    +0.000 A 
ATOM     11  C   UNL     1       2.430   8.248  18.239  0.00  0.00    +0.000 A 
ATOM     12  C   UNL     1       3.338   7.631  17.381  0.00  0.00    +0.000 A 
BRANCH  11  13
ATOM     13  O   UNL     1       1.886   9.432  17.835  0.00  0.00    +0.000 OA
ATOM     14  H   UNL     1       1.125   9.630  18.403  0.00  0.00    +0.000 HD
ENDBRANCH  11  13
ENDBRANCH   6   7
BRANCH   1  15
ATOM     15  C   UNL     1       4.540   3.389  17.860  0.00  0.00    +0.000 C 
BRANCH  15  17
ATOM     16  C   UNL     1       2.251   2.375  18.070  0.00  0.00    +0.000 C 
ATOM     17  C   UNL     1       3.570   2.238  17.879  0.00  0.00    +0.000 C 
ENDBRANCH  15  17
ENDBRANCH   1  15
BRANCH   3  18
ATOM     18  C   UNL     1       6.435   3.630  13.284  0.00  0.00    +0.000 C 
BRANCH  18  19
ATOM     19  C   UNL     1       5.699   3.000  12.134  0.00  0.00    +0.000 C 
ATOM     20  C   UNL     1       4.505   3.415  11.689  0.00  0.00    +0.000 C 
ENDBRANCH  18  19
ENDBRANCH   3  18
BRANCH   6  21
ATOM     21  O   UNL     1       6.294   5.621  17.440  0.00  0.00    +0.000 OA
BRANCH  21  22
ATOM     22  C   UNL     1       7.075   6.708  17.668  0.00  0.00    +0.000 C 
ATOM     23  O   UNL     1       7.015   7.774  17.068  0.00  0.00    +0.000 OA
BRANCH  22  24
ATOM     24  C   UNL     1       7.990   6.495  18.850  0.00  0.00    +0.000 C 
ATOM     25  C   UNL     1       7.527   5.411  19.806  0.00  0.00    +0.000 C 
ENDBRANCH  22  24
ENDBRANCH  21  22
ENDBRANCH   6  21
TORSDOF 9
ENDMDL
MODEL 6
REMARK VINA RESULT:      -6.9      2.057      5.675
REMARK  Name = 
REMARK  10 active torsions:
REMARK  status: ('A' for Active; 'I' for Inactive)
REMARK    1  A    between atoms: C_2  and  C_3
REMARK    2  A    between atoms: C_3  and  C_4
REMARK    3  A    between atoms: N_6  and  C_7
REMARK    4  A    between atoms: C_7  and  C_8
REMARK    5  A    between atoms: C_12  and  O_13
REMARK    6  A    between atoms: C_12  and  C_18
REMARK    7  A    between atoms: O_13  and  C_14
REMARK    8  A    between atoms: C_14  and  C_16
REMARK    9  A    between atoms: C_16  and  C_17
REMARK   10  A    between atoms: C_22  and  O_23
REMARK                            x       y       z     vdW  Elec       q    Type
REMARK                         _______ _______ _______ _____ _____    ______ ____
ROOT
ATOM      1  C   UNL     1       3.749   5.395  17.601  0.00  0.00    +0.000 C 
ATOM      2  C   UNL     1       3.189   5.359  19.044  0.00  0.00    +0.000 C 
ATOM      3  N   UNL     1       3.242   4.020  19.664  0.00  0.00    +0.000 NA
ATOM      4  C   UNL     1       4.618   3.508  19.673  0.00  0.00    +0.000 C 
ATOM      5  C   UNL     1       5.140   3.405  18.245  0.00  0.00    +0.000 C 
ATOM      6  C   UNL     1       5.204   4.790  17.562  0.00  0.00    +0.000 C 
ENDROOT
BRANCH   6   7
ATOM      7  C   UNL     1       5.677   4.658  16.097  0.00  0.00    +0.000 A 
ATOM      8  C   UNL     1       4.906   3.941  15.159  0.00  0.00    +0.000 A 
ATOM      9  C   UNL     1       5.290   3.848  13.816  0.00  0.00    +0.000 A 
ATOM     10  C   UNL     1       6.462   4.457  13.380  0.00  0.00    +0.000 A 
ATOM     11  C   UNL     1       7.235   5.160  14.293  0.00  0.00    +0.000 A 
ATOM     12  C   UNL     1       6.851   5.270  15.628  0.00  0.00    +0.000 A 
BRANCH  11  13
ATOM     13  O   UNL     1       8.394   5.776  13.918  0.00  0.00    +0.000 OA
ATOM     14  H   UNL     1       8.266   6.735  13.982  0.00  0.00    +0.000 HD
ENDBRANCH  11  13
ENDBRANCH   6   7
BRANCH   1  15
ATOM     15  C   UNL     1       3.716   6.840  17.032  0.00  0.00    +0.000 C 
BRANCH  15  17
ATOM     16  C   UNL     1       2.290   8.835  17.581  0.00  0.00    +0.000 C 
ATOM     17  C   UNL     1       3.141   7.873  17.964  0.00  0.00    +0.000 C 
ENDBRANCH  15  17
ENDBRANCH   1  15
BRANCH   3  18
ATOM     18  C   UNL     1       2.672   4.087  21.022  0.00  0.00    +0.000 C 
BRANCH  18  19
ATOM     19  C   UNL     1       1.416   3.276  21.186  0.00  0.00    +0.000 C 
ATOM     20  C   UNL     1       0.536   3.048  20.202  0.00  0.00    +0.000 C 
ENDBRANCH  18  19
ENDBRANCH   3  18
BRANCH   6  21
ATOM     21  O   UNL     1       6.028   5.736  18.325  0.00  0.00    +0.000 OA
BRANCH  21  22
ATOM     22  C   UNL     1       7.354   5.545  18.543  0.00  0.00    +0.000 C 
ATOM     23  O   UNL     1       7.932   4.466  18.545  0.00  0.00    +0.000 OA
BRANCH  22  24
ATOM     24  C   UNL     1       8.088   6.856  18.688  0.00  0.00    +0.000 C 
ATOM     25  C   UNL     1       7.781   7.863  17.594  0.00  0.00    +0.000 C 
ENDBRANCH  22  24
ENDBRANCH  21  22
ENDBRANCH   6  21
TORSDOF 9
ENDMDL
MODEL 7
REMARK VINA RESULT:      -6.8      2.054      4.976
REMARK  Name = 
REMARK  10 active torsions:
REMARK  status: ('A' for Active; 'I' for Inactive)
REMARK    1  A    between atoms: C_2  and  C_3
REMARK    2  A    between atoms: C_3  and  C_4
REMARK    3  A    between atoms: N_6  and  C_7
REMARK    4  A    between atoms: C_7  and  C_8
REMARK    5  A    between atoms: C_12  and  O_13
REMARK    6  A    between atoms: C_12  and  C_18
REMARK    7  A    between atoms: O_13  and  C_14
REMARK    8  A    between atoms: C_14  and  C_16
REMARK    9  A    between atoms: C_16  and  C_17
REMARK   10  A    between atoms: C_22  and  O_23
REMARK                            x       y       z     vdW  Elec       q    Type
REMARK                         _______ _______ _______ _____ _____    ______ ____
ROOT
ATOM      1  C   UNL     1       4.180   6.743  18.137  0.00  0.00    +0.000 C 
ATOM      2  C   UNL     1       5.419   7.447  17.531  0.00  0.00    +0.000 C 
ATOM      3  N   UNL     1       6.700   6.974  18.096  0.00  0.00    +0.000 NA
ATOM      4  C   UNL     1       6.840   5.524  17.919  0.00  0.00    +0.000 C 
ATOM      5  C   UNL     1       5.700   4.804  18.630  0.00  0.00    +0.000 C 
ATOM      6  C   UNL     1       4.328   5.178  18.024  0.00  0.00    +0.000 C 
ENDROOT
BRANCH   6   7
ATOM      7  C   UNL     1       3.181   4.487  18.796  0.00  0.00    +0.000 A 
ATOM      8  C   UNL     1       2.866   4.883  20.113  0.00  0.00    +0.000 A 
ATOM      9  C   UNL     1       1.802   4.305  20.814  0.00  0.00    +0.000 A 
ATOM     10  C   UNL     1       1.035   3.306  20.223  0.00  0.00    +0.000 A 
ATOM     11  C   UNL     1       1.338   2.900  18.931  0.00  0.00    +0.000 A 
ATOM     12  C   UNL     1       2.386   3.483  18.220  0.00  0.00    +0.000 A 
BRANCH  11  13
ATOM     13  O   UNL     1       0.618   1.925  18.304  0.00  0.00    +0.000 OA
ATOM     14  H   UNL     1      -0.307   1.996  18.588  0.00  0.00    +0.000 HD
ENDBRANCH  11  13
ENDBRANCH   6   7
BRANCH   1  15
ATOM     15  C   UNL     1       2.875   7.244  17.459  0.00  0.00    +0.000 C 
BRANCH  15  17
ATOM     16  C   UNL     1       1.821   9.486  17.876  0.00  0.00    +0.000 C 
ATOM     17  C   UNL     1       2.080   8.232  18.270  0.00  0.00    +0.000 C 
ENDBRANCH  15  17
ENDBRANCH   1  15
BRANCH   3  18
ATOM     18  C   UNL     1       7.811   7.715  17.471  0.00  0.00    +0.000 C 
BRANCH  18  19
ATOM     19  C   UNL     1       8.512   8.654  18.412  0.00  0.00    +0.000 C 
ATOM     20  C   UNL     1       8.669   9.965  18.186  0.00  0.00    +0.000 C 
ENDBRANCH  18  19
ENDBRANCH   3  18
BRANCH   6  21
ATOM     21  O   UNL     1       4.272   4.896  16.584  0.00  0.00    +0.000 OA
BRANCH  21  22
ATOM     22  C   UNL     1       5.153   4.069  15.964  0.00  0.00    +0.000 C 
ATOM     23  O   UNL     1       5.356   2.895  16.247  0.00  0.00    +0.000 OA
BRANCH  22  24
ATOM     24  C   UNL     1       5.806   4.740  14.780  0.00  0.00    +0.000 C 
ATOM     25  C   UNL     1       5.992   3.833  13.577  0.00  0.00    +0.000 C 
ENDBRANCH  22  24
ENDBRANCH  21  22
ENDBRANCH   6  21
TORSDOF 9
ENDMDL
MODEL 8
REMARK VINA RESULT:      -6.6      2.028      5.025
REMARK  Name = 
REMARK  10 active torsions:
REMARK  status: ('A' for Active; 'I' for Inactive)
REMARK    1  A    between atoms: C_2  and  C_3
REMARK    2  A    between atoms: C_3  and  C_4
REMARK    3  A    between atoms: N_6  and  C_7
REMARK    4  A    between atoms: C_7  and  C_8
REMARK    5  A    between atoms: C_12  and  O_13
REMARK    6  A    between atoms: C_12  and  C_18
REMARK    7  A    between atoms: O_13  and  C_14
REMARK    8  A    between atoms: C_14  and  C_16
REMARK    9  A    between atoms: C_16  and  C_17
REMARK   10  A    between atoms: C_22  and  O_23
REMARK                            x       y       z     vdW  Elec       q    Type
REMARK                         _______ _______ _______ _____ _____    ______ ____
ROOT
ATOM      1  C   UNL     1       4.625   6.366  18.188  0.00  0.00    +0.000 C 
ATOM      2  C   UNL     1       5.670   7.361  17.624  0.00  0.00    +0.000 C 
ATOM      3  N   UNL     1       7.061   7.018  17.980  0.00  0.00    +0.000 NA
ATOM      4  C   UNL     1       7.395   5.664  17.522  0.00  0.00    +0.000 C 
ATOM      5  C   UNL     1       6.462   4.652  18.177  0.00  0.00    +0.000 C 
ATOM      6  C   UNL     1       4.990   4.891  17.770  0.00  0.00    +0.000 C 
ENDROOT
BRANCH   6   7
ATOM      7  C   UNL     1       4.053   3.896  18.490  0.00  0.00    +0.000 A 
ATOM      8  C   UNL     1       4.263   3.571  19.846  0.00  0.00    +0.000 A 
ATOM      9  C   UNL     1       3.399   2.710  20.533  0.00  0.00    +0.000 A 
ATOM     10  C   UNL     1       2.313   2.139  19.877  0.00  0.00    +0.000 A 
ATOM     11  C   UNL     1       2.099   2.443  18.540  0.00  0.00    +0.000 A 
ATOM     12  C   UNL     1       2.944   3.313  17.855  0.00  0.00    +0.000 A 
BRANCH  11  13
ATOM     13  O   UNL     1       1.049   1.910  17.850  0.00  0.00    +0.000 OA
ATOM     14  H   UNL     1       0.665   1.194  18.380  0.00  0.00    +0.000 HD
ENDBRANCH  11  13
ENDBRANCH   6   7
BRANCH   1  15
ATOM     15  C   UNL     1       3.192   6.753  17.728  0.00  0.00    +0.000 C 
BRANCH  15  17
ATOM     16  C   UNL     1       2.110   6.690  19.994  0.00  0.00    +0.000 C 
ATOM     17  C   UNL     1       2.304   7.296  18.815  0.00  0.00    +0.000 C 
ENDBRANCH  15  17
ENDBRANCH   1  15
BRANCH   3  18
ATOM     18  C   UNL     1       7.973   8.030  17.416  0.00  0.00    +0.000 C 
BRANCH  18  19
ATOM     19  C   UNL     1       8.539   8.968  18.444  0.00  0.00    +0.000 C 
ATOM     20  C   UNL     1       8.860  10.246  18.198  0.00  0.00    +0.000 C 
ENDBRANCH  18  19
ENDBRANCH   3  18
BRANCH   6  21
ATOM     21  O   UNL     1       4.815   4.857  16.312  0.00  0.00    +0.000 OA
BRANCH  21  22
ATOM     22  C   UNL     1       5.514   4.014  15.508  0.00  0.00    +0.000 C 
ATOM     23  O   UNL     1       5.677   2.816  15.695  0.00  0.00    +0.000 OA
BRANCH  22  24
ATOM     24  C   UNL     1       6.003   4.713  14.262  0.00  0.00    +0.000 C 
ATOM     25  C   UNL     1       6.250   3.785  13.086  0.00  0.00    +0.000 C 
ENDBRANCH  22  24
ENDBRANCH  21  22
ENDBRANCH   6  21
TORSDOF 9
ENDMDL
MODEL 9
REMARK VINA RESULT:      -6.4      1.247      1.564
REMARK  Name = 
REMARK  10 active torsions:
REMARK  status: ('A' for Active; 'I' for Inactive)
REMARK    1  A    between atoms: C_2  and  C_3
REMARK    2  A    between atoms: C_3  and  C_4
REMARK    3  A    between atoms: N_6  and  C_7
REMARK    4  A    between atoms: C_7  and  C_8
REMARK    5  A    between atoms: C_12  and  O_13
REMARK    6  A    between atoms: C_12  and  C_18
REMARK    7  A    between atoms: O_13  and  C_14
REMARK    8  A    between atoms: C_14  and  C_16
REMARK    9  A    between atoms: C_16  and  C_17
REMARK   10  A    between atoms: C_22  and  O_23
REMARK                            x       y       z     vdW  Elec       q    Type
REMARK                         _______ _______ _______ _____ _____    ______ ____
ROOT
ATOM      1  C   UNL     1       3.731   4.762  17.140  0.00  0.00    +0.000 C 
ATOM      2  C   UNL     1       4.700   3.886  16.308  0.00  0.00    +0.000 C 
ATOM      3  N   UNL     1       5.157   4.534  15.062  0.00  0.00    +0.000 NA
ATOM      4  C   UNL     1       5.806   5.817  15.354  0.00  0.00    +0.000 C 
ATOM      5  C   UNL     1       4.821   6.747  16.053  0.00  0.00    +0.000 C 
ATOM      6  C   UNL     1       4.371   6.176  17.416  0.00  0.00    +0.000 C 
ENDROOT
BRANCH   6   7
ATOM      7  C   UNL     1       3.327   7.102  18.081  0.00  0.00    +0.000 A 
ATOM      8  C   UNL     1       2.704   8.125  17.338  0.00  0.00    +0.000 A 
ATOM      9  C   UNL     1       1.721   8.944  17.905  0.00  0.00    +0.000 A 
ATOM     10  C   UNL     1       1.347   8.771  19.234  0.00  0.00    +0.000 A 
ATOM     11  C   UNL     1       1.958   7.774  19.980  0.00  0.00    +0.000 A 
ATOM     12  C   UNL     1       2.925   6.943  19.418  0.00  0.00    +0.000 A 
BRANCH  11  13
ATOM     13  O   UNL     1       1.629   7.562  21.288  0.00  0.00    +0.000 OA
ATOM     14  H   UNL     1       2.384   7.144  21.731  0.00  0.00    +0.000 HD
ENDBRANCH  11  13
ENDBRANCH   6   7
BRANCH   1  15
ATOM     15  C   UNL     1       3.337   4.046  18.461  0.00  0.00    +0.000 C 
BRANCH  15  17
ATOM     16  C   UNL     1       1.518   2.353  18.833  0.00  0.00    +0.000 C 
ATOM     17  C   UNL     1       1.900   3.602  18.535  0.00  0.00    +0.000 C 
ENDBRANCH  15  17
ENDBRANCH   1  15
BRANCH   3  18
ATOM     18  C   UNL     1       6.054   3.616  14.336  0.00  0.00    +0.000 C 
BRANCH  18  19
ATOM     19  C   UNL     1       5.828   3.606  12.850  0.00  0.00    +0.000 C 
ATOM     20  C   UNL     1       6.812   3.613  11.940  0.00  0.00    +0.000 C 
ENDBRANCH  18  19
ENDBRANCH   3  18
BRANCH   6  21
ATOM     21  O   UNL     1       5.513   5.909  18.299  0.00  0.00    +0.000 OA
BRANCH  21  22
ATOM     22  C   UNL     1       6.688   6.583  18.205  0.00  0.00    +0.000 C 
ATOM     23  O   UNL     1       6.815   7.764  17.906  0.00  0.00    +0.000 OA
BRANCH  22  24
ATOM     24  C   UNL     1       7.858   5.723  18.620  0.00  0.00    +0.000 C 
ATOM     25  C   UNL     1       7.945   4.398  17.886  0.00  0.00    +0.000 C 
ENDBRANCH  22  24
ENDBRANCH  21  22
ENDBRANCH   6  21
TORSDOF 9
ENDMDL
