MODEL 1
REMARK VINA RESULT:      -9.1      0.000      0.000
REMARK  Name = 
REMARK  7 active torsions:
REMARK  status: ('A' for Active; 'I' for Inactive)
REMARK    1  A    between atoms: C_1  and  C_2
REMARK    2  A    between atoms: C_6  and  C_8
REMARK    3  A    between atoms: C_8  and  C_9
REMARK    4  A    between atoms: C_13  and  N_14
REMARK    5  A    between atoms: N_14  and  S_15
REMARK    6  A    between atoms: S_15  and  C_16
REMARK    7  A    between atoms: C_21  and  C_22
REMARK                            x       y       z     vdW  Elec       q    Type
REMARK                         _______ _______ _______ _____ _____    ______ ____
ROOT
ATOM      1  C   UNL     1       3.601   2.011  19.027  0.00  0.00    +0.000 C 
ATOM      2  C   UNL     1       3.254   3.394  19.452  0.00  0.00    +0.000 A 
ATOM      3  S   UNL     1       1.765   3.752  20.253  0.00  0.00    +0.000 S 
ATOM      4  C   UNL     1       2.205   5.402  20.303  0.00  0.00    +0.000 A 
ATOM      5  N   UNL     1       1.272   6.264  20.824  0.00  0.00    +0.000 N 
ATOM      6  C   UNL     1       1.432   7.628  20.667  0.00  0.00    +0.000 C 
ATOM      7  O   UNL     1       2.334   8.187  20.044  0.00  0.00    +0.000 OA
ATOM      8  N   UNL     1       3.384   5.691  19.829  0.00  0.00    +0.000 NA
ATOM      9  C   UNL     1       3.991   4.560  19.332  0.00  0.00    +0.000 A 
ATOM     10  H   UNL     1       0.437   5.865  21.224  0.00  0.00    +0.000 HD
ENDROOT
BRANCH   9  11
ATOM     11  C   UNL     1       5.311   4.721  18.711  0.00  0.00    +0.000 A 
ATOM     12  C   UNL     1       6.502   5.011  19.345  0.00  0.00    +0.000 A 
ATOM     13  N   UNL     1       7.487   5.038  18.392  0.00  0.00    +0.000 N 
ATOM     14  C   UNL     1       6.954   4.778  17.162  0.00  0.00    +0.000 A 
ATOM     15  N   UNL     1       7.674   4.738  16.025  0.00  0.00    +0.000 NA
ATOM     16  C   UNL     1       6.914   4.473  14.937  0.00  0.00    +0.000 A 
ATOM     17  C   UNL     1       5.541   4.268  14.935  0.00  0.00    +0.000 A 
ATOM     18  C   UNL     1       4.848   4.315  16.147  0.00  0.00    +0.000 A 
ATOM     19  C   UNL     1       5.584   4.579  17.316  0.00  0.00    +0.000 A 
ATOM     20  H   UNL     1       8.468   5.218  18.545  0.00  0.00    +0.000 HD
ENDBRANCH   9  11
BRANCH   6  21
ATOM     21  C   UNL     1       0.341   8.477  21.298  0.00  0.00    +0.000 C 
BRANCH  21  22
ATOM     22  C   UNL     1       0.099   9.798  20.601  0.00  0.00    +0.000 A 
ATOM     23  C   UNL     1       0.382  11.008  21.251  0.00  0.00    +0.000 A 
ATOM     24  C   UNL     1       0.079  12.229  20.643  0.00  0.00    +0.000 A 
ATOM     25  C   UNL     1      -0.518  12.257  19.382  0.00  0.00    +0.000 A 
ATOM     26  C   UNL     1      -0.807  11.063  18.728  0.00  0.00    +0.000 A 
ATOM     27  C   UNL     1      -0.493   9.840  19.326  0.00  0.00    +0.000 A 
BRANCH  26  28
ATOM     28  N   UNL     1      -1.413  11.107  17.435  0.00  0.00    +0.000 N 
ATOM     29  H   UNL     1      -1.250  11.979  16.925  0.00  0.00    +0.000 HD
BRANCH  28  30
ATOM     30  S   UNL     1      -3.063  10.733  17.334  0.00  0.00    +0.000 S 
ATOM     31  C   UNL     1      -3.384  10.974  15.600  0.00  0.00    +0.000 C 
ATOM     32  O   UNL     1      -3.288   9.347  17.664  0.00  0.00    +0.000 OA
ATOM     33  O   UNL     1      -3.741  11.796  18.050  0.00  0.00    +0.000 OA
ENDBRANCH  28  30
ENDBRANCH  26  28
ENDBRANCH  21  22
ENDBRANCH   6  21
TORSDOF 5
ENDMDL
MODEL 2
REMARK VINA RESULT:      -8.8      0.867      1.016
REMARK  Name = 
REMARK  7 active torsions:
REMARK  status: ('A' for Active; 'I' for Inactive)
REMARK    1  A    between atoms: C_1  and  C_2
REMARK    2  A    between atoms: C_6  and  C_8
REMARK    3  A    between atoms: C_8  and  C_9
REMARK    4  A    between atoms: C_13  and  N_14
REMARK    5  A    between atoms: N_14  and  S_15
REMARK    6  A    between atoms: S_15  and  C_16
REMARK    7  A    between atoms: C_21  and  C_22
REMARK                            x       y       z     vdW  Elec       q    Type
REMARK                         _______ _______ _______ _____ _____    ______ ____
ROOT
ATOM      1  C   UNL     1       4.073   2.337  19.588  0.00  0.00    +0.000 C 
ATOM      2  C   UNL     1       3.623   3.744  19.766  0.00  0.00    +0.000 A 
ATOM      3  S   UNL     1       2.166   4.132  20.610  0.00  0.00    +0.000 S 
ATOM      4  C   UNL     1       2.443   5.789  20.300  0.00  0.00    +0.000 A 
ATOM      5  N   UNL     1       1.469   6.657  20.725  0.00  0.00    +0.000 N 
ATOM      6  C   UNL     1       1.483   7.971  20.292  0.00  0.00    +0.000 C 
ATOM      7  O   UNL     1       2.278   8.465  19.496  0.00  0.00    +0.000 OA
ATOM      8  N   UNL     1       3.552   6.073  19.676  0.00  0.00    +0.000 NA
ATOM      9  C   UNL     1       4.231   4.919  19.356  0.00  0.00    +0.000 A 
ATOM     10  H   UNL     1       0.708   6.279  21.267  0.00  0.00    +0.000 HD
ENDROOT
BRANCH   9  11
ATOM     11  C   UNL     1       5.481   5.060  18.601  0.00  0.00    +0.000 A 
ATOM     12  C   UNL     1       6.708   5.462  19.087  0.00  0.00    +0.000 A 
ATOM     13  N   UNL     1       7.603   5.422  18.048  0.00  0.00    +0.000 N 
ATOM     14  C   UNL     1       6.975   5.008  16.908  0.00  0.00    +0.000 A 
ATOM     15  N   UNL     1       7.592   4.871  15.719  0.00  0.00    +0.000 NA
ATOM     16  C   UNL     1       6.752   4.460  14.741  0.00  0.00    +0.000 A 
ATOM     17  C   UNL     1       5.396   4.204  14.889  0.00  0.00    +0.000 A 
ATOM     18  C   UNL     1       4.812   4.358  16.149  0.00  0.00    +0.000 A 
ATOM     19  C   UNL     1       5.635   4.776  17.210  0.00  0.00    +0.000 A 
ATOM     20  H   UNL     1       8.584   5.654  18.088  0.00  0.00    +0.000 HD
ENDBRANCH   9  11
BRANCH   6  21
ATOM     21  C   UNL     1       0.361   8.836  20.841  0.00  0.00    +0.000 C 
BRANCH  21  22
ATOM     22  C   UNL     1       0.186  10.157  20.124  0.00  0.00    +0.000 A 
ATOM     23  C   UNL     1       0.770  11.326  20.635  0.00  0.00    +0.000 A 
ATOM     24  C   UNL     1       0.538  12.560  20.022  0.00  0.00    +0.000 A 
ATOM     25  C   UNL     1      -0.285  12.645  18.899  0.00  0.00    +0.000 A 
ATOM     26  C   UNL     1      -0.873  11.492  18.385  0.00  0.00    +0.000 A 
ATOM     27  C   UNL     1      -0.634  10.254  18.986  0.00  0.00    +0.000 A 
BRANCH  26  28
ATOM     28  N   UNL     1      -1.709  11.593  17.231  0.00  0.00    +0.000 N 
ATOM     29  H   UNL     1      -1.757  12.532  16.829  0.00  0.00    +0.000 HD
BRANCH  28  30
ATOM     30  S   UNL     1      -3.287  10.987  17.356  0.00  0.00    +0.000 S 
ATOM     31  C   UNL     1      -3.893  11.850  18.791  0.00  0.00    +0.000 C 
ATOM     32  O   UNL     1      -4.070  11.377  16.209  0.00  0.00    +0.000 OA
ATOM     33  O   UNL     1      -3.135   9.593  17.723  0.00  0.00    +0.000 OA
ENDBRANCH  28  30
ENDBRANCH  26  28
ENDBRANCH  21  22
ENDBRANCH   6  21
TORSDOF 5
ENDMDL
MODEL 3
REMARK VINA RESULT:      -8.5      2.833      9.137
REMARK  Name = 
REMARK  7 active torsions:
REMARK  status: ('A' for Active; 'I' for Inactive)
REMARK    1  A    between atoms: C_1  and  C_2
REMARK    2  A    between atoms: C_6  and  C_8
REMARK    3  A    between atoms: C_8  and  C_9
REMARK    4  A    between atoms: C_13  and  N_14
REMARK    5  A    between atoms: N_14  and  S_15
REMARK    6  A    between atoms: S_15  and  C_16
REMARK    7  A    between atoms: C_21  and  C_22
REMARK                            x       y       z     vdW  Elec       q    Type
REMARK                         _______ _______ _______ _____ _____    ______ ____
ROOT
ATOM      1  C   UNL     1      -0.888  11.714  22.171  0.00  0.00    +0.000 C 
ATOM      2  C   UNL     1      -0.201  10.604  21.456  0.00  0.00    +0.000 A 
ATOM      3  S   UNL     1       0.675   9.381  22.306  0.00  0.00    +0.000 S 
ATOM      4  C   UNL     1       1.087   8.659  20.814  0.00  0.00    +0.000 A 
ATOM      5  N   UNL     1       1.921   7.570  20.877  0.00  0.00    +0.000 N 
ATOM      6  C   UNL     1       2.509   7.087  19.722  0.00  0.00    +0.000 C 
ATOM      7  O   UNL     1       2.405   7.571  18.597  0.00  0.00    +0.000 OA
ATOM      8  N   UNL     1       0.580   9.218  19.752  0.00  0.00    +0.000 NA
ATOM      9  C   UNL     1      -0.149  10.333  20.100  0.00  0.00    +0.000 A 
ATOM     10  H   UNL     1       2.159   7.213  21.789  0.00  0.00    +0.000 HD
ENDROOT
BRANCH   9  11
ATOM     11  C   UNL     1      -0.747  11.114  19.010  0.00  0.00    +0.000 A 
ATOM     12  C   UNL     1      -0.339  12.348  18.547  0.00  0.00    +0.000 A 
ATOM     13  N   UNL     1      -1.156  12.693  17.501  0.00  0.00    +0.000 N 
ATOM     14  C   UNL     1      -2.081  11.710  17.288  0.00  0.00    +0.000 A 
ATOM     15  N   UNL     1      -3.025  11.762  16.330  0.00  0.00    +0.000 NA
ATOM     16  C   UNL     1      -3.828  10.674  16.330  0.00  0.00    +0.000 A 
ATOM     17  C   UNL     1      -3.741   9.600  17.205  0.00  0.00    +0.000 A 
ATOM     18  C   UNL     1      -2.737   9.598  18.176  0.00  0.00    +0.000 A 
ATOM     19  C   UNL     1      -1.863  10.700  18.222  0.00  0.00    +0.000 A 
ATOM     20  H   UNL     1      -1.107  13.536  16.950  0.00  0.00    +0.000 HD
ENDBRANCH   9  11
BRANCH   6  21
ATOM     21  C   UNL     1       3.400   5.872  19.919  0.00  0.00    +0.000 C 
BRANCH  21  22
ATOM     22  C   UNL     1       3.358   4.879  18.778  0.00  0.00    +0.000 A 
ATOM     23  C   UNL     1       2.233   4.062  18.587  0.00  0.00    +0.000 A 
ATOM     24  C   UNL     1       2.228   3.085  17.588  0.00  0.00    +0.000 A 
ATOM     25  C   UNL     1       3.347   2.905  16.774  0.00  0.00    +0.000 A 
ATOM     26  C   UNL     1       4.469   3.707  16.956  0.00  0.00    +0.000 A 
ATOM     27  C   UNL     1       4.475   4.694  17.944  0.00  0.00    +0.000 A 
BRANCH  26  28
ATOM     28  N   UNL     1       5.605   3.515  16.111  0.00  0.00    +0.000 N 
ATOM     29  H   UNL     1       6.295   2.856  16.478  0.00  0.00    +0.000 HD
BRANCH  28  30
ATOM     30  S   UNL     1       6.426   4.901  15.582  0.00  0.00    +0.000 S 
ATOM     31  C   UNL     1       6.928   4.422  13.943  0.00  0.00    +0.000 C 
ATOM     32  O   UNL     1       5.519   6.019  15.487  0.00  0.00    +0.000 OA
ATOM     33  O   UNL     1       7.623   4.972  16.397  0.00  0.00    +0.000 OA
ENDBRANCH  28  30
ENDBRANCH  26  28
ENDBRANCH  21  22
ENDBRANCH   6  21
TORSDOF 5
ENDMDL
MODEL 4
REMARK VINA RESULT:      -8.4      3.231      9.144
REMARK  Name = 
REMARK  7 active torsions:
REMARK  status: ('A' for Active; 'I' for Inactive)
REMARK    1  A    between atoms: C_1  and  C_2
REMARK    2  A    between atoms: C_6  and  C_8
REMARK    3  A    between atoms: C_8  and  C_9
REMARK    4  A    between atoms: C_13  and  N_14
REMARK    5  A    between atoms: N_14  and  S_15
REMARK    6  A    between atoms: S_15  and  C_16
REMARK    7  A    between atoms: C_21  and  C_22
REMARK                            x       y       z     vdW  Elec       q    Type
REMARK                         _______ _______ _______ _____ _____    ______ ____
ROOT
ATOM      1  C   UNL     1      -0.952  12.314  22.681  0.00  0.00    +0.000 C 
ATOM      2  C   UNL     1      -0.383  11.115  22.007  0.00  0.00    +0.000 A 
ATOM      3  S   UNL     1      -0.381   9.563  22.766  0.00  0.00    +0.000 S 
ATOM      4  C   UNL     1       0.413   8.912  21.400  0.00  0.00    +0.000 A 
ATOM      5  N   UNL     1       0.768   7.588  21.478  0.00  0.00    +0.000 N 
ATOM      6  C   UNL     1       1.633   7.053  20.542  0.00  0.00    +0.000 C 
ATOM      7  O   UNL     1       2.187   7.665  19.630  0.00  0.00    +0.000 OA
ATOM      8  N   UNL     1       0.620   9.740  20.415  0.00  0.00    +0.000 NA
ATOM      9  C   UNL     1       0.181  11.001  20.748  0.00  0.00    +0.000 A 
ATOM     10  H   UNL     1       0.460   7.067  22.283  0.00  0.00    +0.000 HD
ENDROOT
BRANCH   9  11
ATOM     11  C   UNL     1       0.388  12.069  19.763  0.00  0.00    +0.000 A 
ATOM     12  C   UNL     1      -0.353  12.308  18.624  0.00  0.00    +0.000 A 
ATOM     13  N   UNL     1       0.166  13.422  18.014  0.00  0.00    +0.000 N 
ATOM     14  C   UNL     1       1.225  13.897  18.734  0.00  0.00    +0.000 A 
ATOM     15  N   UNL     1       1.944  14.980  18.385  0.00  0.00    +0.000 NA
ATOM     16  C   UNL     1       2.948  15.241  19.253  0.00  0.00    +0.000 A 
ATOM     17  C   UNL     1       3.255  14.500  20.386  0.00  0.00    +0.000 A 
ATOM     18  C   UNL     1       2.470  13.388  20.701  0.00  0.00    +0.000 A 
ATOM     19  C   UNL     1       1.404  13.070  19.840  0.00  0.00    +0.000 A 
ATOM     20  H   UNL     1      -0.163  13.851  17.162  0.00  0.00    +0.000 HD
ENDBRANCH   9  11
BRANCH   6  21
ATOM     21  C   UNL     1       1.940   5.576  20.726  0.00  0.00    +0.000 C 
BRANCH  21  22
ATOM     22  C   UNL     1       2.545   4.909  19.510  0.00  0.00    +0.000 A 
ATOM     23  C   UNL     1       1.723   4.406  18.492  0.00  0.00    +0.000 A 
ATOM     24  C   UNL     1       2.276   3.714  17.410  0.00  0.00    +0.000 A 
ATOM     25  C   UNL     1       3.654   3.509  17.337  0.00  0.00    +0.000 A 
ATOM     26  C   UNL     1       4.480   4.002  18.343  0.00  0.00    +0.000 A 
ATOM     27  C   UNL     1       3.934   4.706  19.419  0.00  0.00    +0.000 A 
BRANCH  26  28
ATOM     28  N   UNL     1       5.890   3.790  18.252  0.00  0.00    +0.000 N 
ATOM     29  H   UNL     1       6.403   4.008  19.110  0.00  0.00    +0.000 HD
BRANCH  28  30
ATOM     30  S   UNL     1       6.703   4.509  16.950  0.00  0.00    +0.000 S 
ATOM     31  C   UNL     1       6.199   6.209  17.102  0.00  0.00    +0.000 C 
ATOM     32  O   UNL     1       8.131   4.425  17.138  0.00  0.00    +0.000 OA
ATOM     33  O   UNL     1       6.070   3.976  15.760  0.00  0.00    +0.000 OA
ENDBRANCH  28  30
ENDBRANCH  26  28
ENDBRANCH  21  22
ENDBRANCH   6  21
TORSDOF 5
ENDMDL
MODEL 5
REMARK VINA RESULT:      -8.3      2.211      2.878
REMARK  Name = 
REMARK  7 active torsions:
REMARK  status: ('A' for Active; 'I' for Inactive)
REMARK    1  A    between atoms: C_1  and  C_2
REMARK    2  A    between atoms: C_6  and  C_8
REMARK    3  A    between atoms: C_8  and  C_9
REMARK    4  A    between atoms: C_13  and  N_14
REMARK    5  A    between atoms: N_14  and  S_15
REMARK    6  A    between atoms: S_15  and  C_16
REMARK    7  A    between atoms: C_21  and  C_22
REMARK                            x       y       z     vdW  Elec       q    Type
REMARK                         _______ _______ _______ _____ _____    ______ ____
ROOT
ATOM      1  C   UNL     1       3.963   2.250  19.441  0.00  0.00    +0.000 C 
ATOM      2  C   UNL     1       3.543   3.654  19.701  0.00  0.00    +0.000 A 
ATOM      3  S   UNL     1       2.089   4.023  20.557  0.00  0.00    +0.000 S 
ATOM      4  C   UNL     1       2.406   5.689  20.351  0.00  0.00    +0.000 A 
ATOM      5  N   UNL     1       1.448   6.553  20.821  0.00  0.00    +0.000 N 
ATOM      6  C   UNL     1       1.496   7.889  20.469  0.00  0.00    +0.000 C 
ATOM      7  O   UNL     1       2.309   8.412  19.710  0.00  0.00    +0.000 OA
ATOM      8  N   UNL     1       3.526   5.984  19.753  0.00  0.00    +0.000 NA
ATOM      9  C   UNL     1       4.181   4.836  19.368  0.00  0.00    +0.000 A 
ATOM     10  H   UNL     1       0.675   6.160  21.334  0.00  0.00    +0.000 HD
ENDROOT
BRANCH   9  11
ATOM     11  C   UNL     1       5.441   4.994  18.631  0.00  0.00    +0.000 A 
ATOM     12  C   UNL     1       6.655   5.412  19.135  0.00  0.00    +0.000 A 
ATOM     13  N   UNL     1       7.566   5.383  18.110  0.00  0.00    +0.000 N 
ATOM     14  C   UNL     1       6.960   4.962  16.960  0.00  0.00    +0.000 A 
ATOM     15  N   UNL     1       7.596   4.834  15.781  0.00  0.00    +0.000 NA
ATOM     16  C   UNL     1       6.776   4.413  14.791  0.00  0.00    +0.000 A 
ATOM     17  C   UNL     1       5.421   4.140  14.918  0.00  0.00    +0.000 A 
ATOM     18  C   UNL     1       4.816   4.285  16.169  0.00  0.00    +0.000 A 
ATOM     19  C   UNL     1       5.619   4.713  17.242  0.00  0.00    +0.000 A 
ATOM     20  H   UNL     1       8.543   5.628  18.165  0.00  0.00    +0.000 HD
ENDBRANCH   9  11
BRANCH   6  21
ATOM     21  C   UNL     1       0.389   8.745  21.062  0.00  0.00    +0.000 C 
BRANCH  21  22
ATOM     22  C   UNL     1       0.020   9.951  20.227  0.00  0.00    +0.000 A 
ATOM     23  C   UNL     1      -0.898   9.833  19.173  0.00  0.00    +0.000 A 
ATOM     24  C   UNL     1      -1.175  10.925  18.346  0.00  0.00    +0.000 A 
ATOM     25  C   UNL     1      -0.533  12.146  18.556  0.00  0.00    +0.000 A 
ATOM     26  C   UNL     1       0.383  12.275  19.596  0.00  0.00    +0.000 A 
ATOM     27  C   UNL     1       0.653  11.190  20.434  0.00  0.00    +0.000 A 
BRANCH  26  28
ATOM     28  N   UNL     1       1.028  13.533  19.803  0.00  0.00    +0.000 N 
ATOM     29  H   UNL     1       2.050  13.484  19.809  0.00  0.00    +0.000 HD
BRANCH  28  30
ATOM     30  S   UNL     1       0.534  14.452  21.139  0.00  0.00    +0.000 S 
ATOM     31  C   UNL     1       0.770  16.113  20.543  0.00  0.00    +0.000 C 
ATOM     32  O   UNL     1      -0.869  14.244  21.404  0.00  0.00    +0.000 OA
ATOM     33  O   UNL     1       1.535  14.214  22.160  0.00  0.00    +0.000 OA
ENDBRANCH  28  30
ENDBRANCH  26  28
ENDBRANCH  21  22
ENDBRANCH   6  21
TORSDOF 5
ENDMDL
MODEL 6
REMARK VINA RESULT:      -8.3      3.051      9.291
REMARK  Name = 
REMARK  7 active torsions:
REMARK  status: ('A' for Active; 'I' for Inactive)
REMARK    1  A    between atoms: C_1  and  C_2
REMARK    2  A    between atoms: C_6  and  C_8
REMARK    3  A    between atoms: C_8  and  C_9
REMARK    4  A    between atoms: C_13  and  N_14
REMARK    5  A    between atoms: N_14  and  S_15
REMARK    6  A    between atoms: S_15  and  C_16
REMARK    7  A    between atoms: C_21  and  C_22
REMARK                            x       y       z     vdW  Elec       q    Type
REMARK                         _______ _______ _______ _____ _____    ______ ____
ROOT
ATOM      1  C   UNL     1      -1.154  12.277  22.904  0.00  0.00    +0.000 C 
ATOM      2  C   UNL     1      -0.562  11.133  22.159  0.00  0.00    +0.000 A 
ATOM      3  S   UNL     1      -0.265   9.610  22.921  0.00  0.00    +0.000 S 
ATOM      4  C   UNL     1       0.379   9.018  21.454  0.00  0.00    +0.000 A 
ATOM      5  N   UNL     1       0.891   7.744  21.486  0.00  0.00    +0.000 N 
ATOM      6  C   UNL     1       1.658   7.285  20.430  0.00  0.00    +0.000 C 
ATOM      7  O   UNL     1       1.990   7.931  19.438  0.00  0.00    +0.000 OA
ATOM      8  N   UNL     1       0.335   9.838  20.441  0.00  0.00    +0.000 NA
ATOM      9  C   UNL     1      -0.190  11.050  20.829  0.00  0.00    +0.000 A 
ATOM     10  H   UNL     1       0.773   7.213  22.333  0.00  0.00    +0.000 HD
ENDROOT
BRANCH   9  11
ATOM     11  C   UNL     1      -0.261  12.108  19.815  0.00  0.00    +0.000 A 
ATOM     12  C   UNL     1      -0.962  12.079  18.627  0.00  0.00    +0.000 A 
ATOM     13  N   UNL     1      -0.777  13.286  18.002  0.00  0.00    +0.000 N 
ATOM     14  C   UNL     1       0.032  14.084  18.761  0.00  0.00    +0.000 A 
ATOM     15  N   UNL     1       0.398  15.331  18.410  0.00  0.00    +0.000 NA
ATOM     16  C   UNL     1       1.212  15.911  19.322  0.00  0.00    +0.000 A 
ATOM     17  C   UNL     1       1.659  15.327  20.500  0.00  0.00    +0.000 A 
ATOM     18  C   UNL     1       1.240  14.032  20.815  0.00  0.00    +0.000 A 
ATOM     19  C   UNL     1       0.385  13.378  19.908  0.00  0.00    +0.000 A 
ATOM     20  H   UNL     1      -1.167  13.573  17.117  0.00  0.00    +0.000 HD
ENDBRANCH   9  11
BRANCH   6  21
ATOM     21  C   UNL     1       2.156   5.857  20.577  0.00  0.00    +0.000 C 
BRANCH  21  22
ATOM     22  C   UNL     1       2.793   5.289  19.327  0.00  0.00    +0.000 A 
ATOM     23  C   UNL     1       2.034   4.529  18.425  0.00  0.00    +0.000 A 
ATOM     24  C   UNL     1       2.639   3.932  17.316  0.00  0.00    +0.000 A 
ATOM     25  C   UNL     1       4.010   4.078  17.099  0.00  0.00    +0.000 A 
ATOM     26  C   UNL     1       4.774   4.828  17.989  0.00  0.00    +0.000 A 
ATOM     27  C   UNL     1       4.171   5.438  19.091  0.00  0.00    +0.000 A 
BRANCH  26  28
ATOM     28  N   UNL     1       6.175   4.975  17.750  0.00  0.00    +0.000 N 
ATOM     29  H   UNL     1       6.734   5.099  18.598  0.00  0.00    +0.000 HD
BRANCH  28  30
ATOM     30  S   UNL     1       6.655   6.145  16.622  0.00  0.00    +0.000 S 
ATOM     31  C   UNL     1       7.612   7.253  17.634  0.00  0.00    +0.000 C 
ATOM     32  O   UNL     1       7.516   5.560  15.623  0.00  0.00    +0.000 OA
ATOM     33  O   UNL     1       5.439   6.841  16.250  0.00  0.00    +0.000 OA
ENDBRANCH  28  30
ENDBRANCH  26  28
ENDBRANCH  21  22
ENDBRANCH   6  21
TORSDOF 5
ENDMDL
MODEL 7
REMARK VINA RESULT:      -8.3      2.347      3.080
REMARK  Name = 
REMARK  7 active torsions:
REMARK  status: ('A' for Active; 'I' for Inactive)
REMARK    1  A    between atoms: C_1  and  C_2
REMARK    2  A    between atoms: C_6  and  C_8
REMARK    3  A    between atoms: C_8  and  C_9
REMARK    4  A    between atoms: C_13  and  N_14
REMARK    5  A    between atoms: N_14  and  S_15
REMARK    6  A    between atoms: S_15  and  C_16
REMARK    7  A    between atoms: C_21  and  C_22
REMARK                            x       y       z     vdW  Elec       q    Type
REMARK                         _______ _______ _______ _____ _____    ______ ____
ROOT
ATOM      1  C   UNL     1       3.498   2.105  18.943  0.00  0.00    +0.000 C 
ATOM      2  C   UNL     1       3.155   3.475  19.412  0.00  0.00    +0.000 A 
ATOM      3  S   UNL     1       1.662   3.813  20.215  0.00  0.00    +0.000 S 
ATOM      4  C   UNL     1       2.108   5.458  20.323  0.00  0.00    +0.000 A 
ATOM      5  N   UNL     1       1.175   6.306  20.866  0.00  0.00    +0.000 N 
ATOM      6  C   UNL     1       1.342   7.674  20.756  0.00  0.00    +0.000 C 
ATOM      7  O   UNL     1       2.249   8.249  20.157  0.00  0.00    +0.000 OA
ATOM      8  N   UNL     1       3.291   5.758  19.865  0.00  0.00    +0.000 NA
ATOM      9  C   UNL     1       3.897   4.641  19.335  0.00  0.00    +0.000 A 
ATOM     10  H   UNL     1       0.337   5.897  21.248  0.00  0.00    +0.000 HD
ENDROOT
BRANCH   9  11
ATOM     11  C   UNL     1       5.221   4.817  18.727  0.00  0.00    +0.000 A 
ATOM     12  C   UNL     1       6.398   5.142  19.371  0.00  0.00    +0.000 A 
ATOM     13  N   UNL     1       7.395   5.171  18.429  0.00  0.00    +0.000 N 
ATOM     14  C   UNL     1       6.882   4.879  17.197  0.00  0.00    +0.000 A 
ATOM     15  N   UNL     1       7.616   4.834  16.070  0.00  0.00    +0.000 NA
ATOM     16  C   UNL     1       6.876   4.536  14.978  0.00  0.00    +0.000 A 
ATOM     17  C   UNL     1       5.507   4.304  14.962  0.00  0.00    +0.000 A 
ATOM     18  C   UNL     1       4.798   4.358  16.165  0.00  0.00    +0.000 A 
ATOM     19  C   UNL     1       5.514   4.656  17.339  0.00  0.00    +0.000 A 
ATOM     20  H   UNL     1       8.370   5.373  18.590  0.00  0.00    +0.000 HD
ENDBRANCH   9  11
BRANCH   6  21
ATOM     21  C   UNL     1       0.251   8.506  21.408  0.00  0.00    +0.000 C 
BRANCH  21  22
ATOM     22  C   UNL     1      -0.040   9.813  20.704  0.00  0.00    +0.000 A 
ATOM     23  C   UNL     1      -0.605   9.819  19.420  0.00  0.00    +0.000 A 
ATOM     24  C   UNL     1      -0.794  11.022  18.734  0.00  0.00    +0.000 A 
ATOM     25  C   UNL     1      -0.415  12.232  19.318  0.00  0.00    +0.000 A 
ATOM     26  C   UNL     1       0.149  12.238  20.590  0.00  0.00    +0.000 A 
ATOM     27  C   UNL     1       0.328  11.040  21.285  0.00  0.00    +0.000 A 
BRANCH  26  28
ATOM     28  N   UNL     1       0.527  13.484  21.177  0.00  0.00    +0.000 N 
ATOM     29  H   UNL     1      -0.244  14.149  21.283  0.00  0.00    +0.000 HD
BRANCH  28  30
ATOM     30  S   UNL     1       1.843  14.303  20.491  0.00  0.00    +0.000 S 
ATOM     31  C   UNL     1       2.548  15.111  21.912  0.00  0.00    +0.000 C 
ATOM     32  O   UNL     1       2.801  13.363  19.962  0.00  0.00    +0.000 OA
ATOM     33  O   UNL     1       1.260  15.332  19.653  0.00  0.00    +0.000 OA
ENDBRANCH  28  30
ENDBRANCH  26  28
ENDBRANCH  21  22
ENDBRANCH   6  21
TORSDOF 5
ENDMDL
MODEL 8
REMARK VINA RESULT:      -8.3      2.381      3.008
REMARK  Name = 
REMARK  7 active torsions:
REMARK  status: ('A' for Active; 'I' for Inactive)
REMARK    1  A    between atoms: C_1  and  C_2
REMARK    2  A    between atoms: C_6  and  C_8
REMARK    3  A    between atoms: C_8  and  C_9
REMARK    4  A    between atoms: C_13  and  N_14
REMARK    5  A    between atoms: N_14  and  S_15
REMARK    6  A    between atoms: S_15  and  C_16
REMARK    7  A    between atoms: C_21  and  C_22
REMARK                            x       y       z     vdW  Elec       q    Type
REMARK                         _______ _______ _______ _____ _____    ______ ____
ROOT
ATOM      1  C   UNL     1       4.099   2.168  19.348  0.00  0.00    +0.000 C 
ATOM      2  C   UNL     1       3.645   3.554  19.641  0.00  0.00    +0.000 A 
ATOM      3  S   UNL     1       2.189   3.866  20.519  0.00  0.00    +0.000 S 
ATOM      4  C   UNL     1       2.459   5.544  20.343  0.00  0.00    +0.000 A 
ATOM      5  N   UNL     1       1.483   6.372  20.839  0.00  0.00    +0.000 N 
ATOM      6  C   UNL     1       1.491   7.716  20.515  0.00  0.00    +0.000 C 
ATOM      7  O   UNL     1       2.281   8.276  19.758  0.00  0.00    +0.000 OA
ATOM      8  N   UNL     1       3.565   5.882  19.740  0.00  0.00    +0.000 NA
ATOM      9  C   UNL     1       4.247   4.760  19.326  0.00  0.00    +0.000 A 
ATOM     10  H   UNL     1       0.726   5.948  21.352  0.00  0.00    +0.000 HD
ENDROOT
BRANCH   9  11
ATOM     11  C   UNL     1       5.494   4.967  18.581  0.00  0.00    +0.000 A 
ATOM     12  C   UNL     1       6.703   5.403  19.083  0.00  0.00    +0.000 A 
ATOM     13  N   UNL     1       7.603   5.422  18.048  0.00  0.00    +0.000 N 
ATOM     14  C   UNL     1       6.996   5.014  16.894  0.00  0.00    +0.000 A 
ATOM     15  N   UNL     1       7.622   4.930  15.706  0.00  0.00    +0.000 NA
ATOM     16  C   UNL     1       6.802   4.513  14.714  0.00  0.00    +0.000 A 
ATOM     17  C   UNL     1       5.456   4.204  14.848  0.00  0.00    +0.000 A 
ATOM     18  C   UNL     1       4.861   4.303  16.108  0.00  0.00    +0.000 A 
ATOM     19  C   UNL     1       5.665   4.725  17.184  0.00  0.00    +0.000 A 
ATOM     20  H   UNL     1       8.575   5.689  18.099  0.00  0.00    +0.000 HD
ENDBRANCH   9  11
BRANCH   6  21
ATOM     21  C   UNL     1       0.367   8.529  21.135  0.00  0.00    +0.000 C 
BRANCH  21  22
ATOM     22  C   UNL     1       0.165   9.891  20.509  0.00  0.00    +0.000 A 
ATOM     23  C   UNL     1      -0.601  10.031  19.342  0.00  0.00    +0.000 A 
ATOM     24  C   UNL     1      -0.717  11.275  18.714  0.00  0.00    +0.000 A 
ATOM     25  C   UNL     1      -0.063  12.391  19.238  0.00  0.00    +0.000 A 
ATOM     26  C   UNL     1       0.703  12.263  20.393  0.00  0.00    +0.000 A 
ATOM     27  C   UNL     1       0.811  11.026  21.032  0.00  0.00    +0.000 A 
BRANCH  26  28
ATOM     28  N   UNL     1       1.362  13.416  20.921  0.00  0.00    +0.000 N 
ATOM     29  H   UNL     1       2.189  13.205  21.485  0.00  0.00    +0.000 HD
BRANCH  28  30
ATOM     30  S   UNL     1       0.413  14.535  21.770  0.00  0.00    +0.000 S 
ATOM     31  C   UNL     1      -0.743  13.471  22.606  0.00  0.00    +0.000 C 
ATOM     32  O   UNL     1       1.209  15.228  22.753  0.00  0.00    +0.000 OA
ATOM     33  O   UNL     1      -0.324  15.261  20.754  0.00  0.00    +0.000 OA
ENDBRANCH  28  30
ENDBRANCH  26  28
ENDBRANCH  21  22
ENDBRANCH   6  21
TORSDOF 5
ENDMDL
MODEL 9
REMARK VINA RESULT:      -8.2      0.959      1.718
REMARK  Name = 
REMARK  7 active torsions:
REMARK  status: ('A' for Active; 'I' for Inactive)
REMARK    1  A    between atoms: C_1  and  C_2
REMARK    2  A    between atoms: C_6  and  C_8
REMARK    3  A    between atoms: C_8  and  C_9
REMARK    4  A    between atoms: C_13  and  N_14
REMARK    5  A    between atoms: N_14  and  S_15
REMARK    6  A    between atoms: S_15  and  C_16
REMARK    7  A    between atoms: C_21  and  C_22
REMARK                            x       y       z     vdW  Elec       q    Type
REMARK                         _______ _______ _______ _____ _____    ______ ____
ROOT
ATOM      1  C   UNL     1       2.185   1.851  19.035  0.00  0.00    +0.000 C 
ATOM      2  C   UNL     1       2.180   3.288  19.424  0.00  0.00    +0.000 A 
ATOM      3  S   UNL     1       1.011   3.926  20.525  0.00  0.00    +0.000 S 
ATOM      4  C   UNL     1       1.708   5.475  20.344  0.00  0.00    +0.000 A 
ATOM      5  N   UNL     1       1.082   6.504  21.004  0.00  0.00    +0.000 N 
ATOM      6  C   UNL     1       1.415   7.813  20.710  0.00  0.00    +0.000 C 
ATOM      7  O   UNL     1       2.212   8.185  19.851  0.00  0.00    +0.000 OA
ATOM      8  N   UNL     1       2.764   5.539  19.582  0.00  0.00    +0.000 NA
ATOM      9  C   UNL     1       3.041   4.303  19.043  0.00  0.00    +0.000 A 
ATOM     10  H   UNL     1       0.320   6.269  21.620  0.00  0.00    +0.000 HD
ENDROOT
BRANCH   9  11
ATOM     11  C   UNL     1       4.174   4.210  18.116  0.00  0.00    +0.000 A 
ATOM     12  C   UNL     1       4.174   3.659  16.851  0.00  0.00    +0.000 A 
ATOM     13  N   UNL     1       5.432   3.814  16.327  0.00  0.00    +0.000 N 
ATOM     14  C   UNL     1       6.239   4.446  17.231  0.00  0.00    +0.000 A 
ATOM     15  N   UNL     1       7.533   4.738  17.006  0.00  0.00    +0.000 NA
ATOM     16  C   UNL     1       8.119   5.353  18.059  0.00  0.00    +0.000 A 
ATOM     17  C   UNL     1       7.504   5.664  19.264  0.00  0.00    +0.000 A 
ATOM     18  C   UNL     1       6.156   5.343  19.438  0.00  0.00    +0.000 A 
ATOM     19  C   UNL     1       5.488   4.707  18.374  0.00  0.00    +0.000 A 
ATOM     20  H   UNL     1       5.746   3.519  15.415  0.00  0.00    +0.000 HD
ENDBRANCH   9  11
BRANCH   6  21
ATOM     21  C   UNL     1       0.663   8.859  21.516  0.00  0.00    +0.000 C 
BRANCH  21  22
ATOM     22  C   UNL     1       0.120  10.006  20.692  0.00  0.00    +0.000 A 
ATOM     23  C   UNL     1      -0.074  11.269  21.272  0.00  0.00    +0.000 A 
ATOM     24  C   UNL     1      -0.657  12.305  20.537  0.00  0.00    +0.000 A 
ATOM     25  C   UNL     1      -1.059  12.092  19.218  0.00  0.00    +0.000 A 
ATOM     26  C   UNL     1      -0.874  10.843  18.633  0.00  0.00    +0.000 A 
ATOM     27  C   UNL     1      -0.281   9.808  19.359  0.00  0.00    +0.000 A 
BRANCH  26  28
ATOM     28  N   UNL     1      -1.285  10.641  17.280  0.00  0.00    +0.000 N 
ATOM     29  H   UNL     1      -0.961  11.363  16.631  0.00  0.00    +0.000 HD
BRANCH  28  30
ATOM     30  S   UNL     1      -2.936  10.378  16.998  0.00  0.00    +0.000 S 
ATOM     31  C   UNL     1      -2.943   9.937  15.273  0.00  0.00    +0.000 C 
ATOM     32  O   UNL     1      -3.407   9.254  17.771  0.00  0.00    +0.000 OA
ATOM     33  O   UNL     1      -3.558  11.682  17.113  0.00  0.00    +0.000 OA
ENDBRANCH  28  30
ENDBRANCH  26  28
ENDBRANCH  21  22
ENDBRANCH   6  21
TORSDOF 5
ENDMDL
