MODEL 1
REMARK VINA RESULT:      -7.6      0.000      0.000
REMARK  Name = 
REMARK  4 active torsions:
REMARK  status: ('A' for Active; 'I' for Inactive)
REMARK    1  A    between atoms: C_1  and  C_2
REMARK    2  A    between atoms: C_7  and  S_8
REMARK    3  A    between atoms: S_8  and  N_11
REMARK    4  A    between atoms: N_11  and  C_12
REMARK                            x       y       z     vdW  Elec       q    Type
REMARK                         _______ _______ _______ _____ _____    ______ ____
ROOT
ATOM      1  S   UNL     1       5.878   4.913  19.039  0.00  0.00    +0.000 S 
ATOM      2  O   UNL     1       5.481   3.521  19.030  0.00  0.00    +0.000 OA
ATOM      3  O   UNL     1       6.857   5.433  19.967  0.00  0.00    +0.000 OA
ENDROOT
BRANCH   1  10
ATOM      4  C   UNL     1       7.702   7.556  17.777  0.00  0.00    +0.000 C 
ATOM      5  C   UNL     1       7.264   6.313  17.119  0.00  0.00    +0.000 A 
ATOM      6  O   UNL     1       7.618   6.168  15.814  0.00  0.00    +0.000 OA
ATOM      7  N   UNL     1       7.122   4.974  15.331  0.00  0.00    +0.000 NA
ATOM      8  C   UNL     1       6.471   4.401  16.347  0.00  0.00    +0.000 A 
ATOM      9  N   UNL     1       5.825   3.228  16.235  0.00  0.00    +0.000 N 
ATOM     10  C   UNL     1       6.547   5.205  17.501  0.00  0.00    +0.000 A 
ATOM     11  H   UNL     1       6.008   2.645  15.424  0.00  0.00    +0.000 HD
ATOM     12  H   UNL     1       5.502   2.720  17.059  0.00  0.00    +0.000 HD
ENDBRANCH   1  10
BRANCH   1  13
ATOM     13  N   UNL     1       4.458   5.854  19.151  0.00  0.00    +0.000 N 
ATOM     14  H   UNL     1       4.454   6.527  18.383  0.00  0.00    +0.000 HD
BRANCH  13  15
ATOM     15  C   UNL     1       3.238   5.095  19.200  0.00  0.00    +0.000 A 
ATOM     16  C   UNL     1       2.638   4.659  18.026  0.00  0.00    +0.000 A 
ATOM     17  C   UNL     1       1.475   3.916  18.136  0.00  0.00    +0.000 A 
ATOM     18  N   UNL     1       0.885   3.614  19.314  0.00  0.00    +0.000 NA
ATOM     19  C   UNL     1       1.472   4.090  20.432  0.00  0.00    +0.000 A 
ATOM     20  C   UNL     1       2.637   4.835  20.427  0.00  0.00    +0.000 A 
ENDBRANCH  13  15
ENDBRANCH   1  13
TORSDOF 3
ENDMDL
MODEL 2
REMARK VINA RESULT:      -7.6      0.024      1.143
REMARK  Name = 
REMARK  4 active torsions:
REMARK  status: ('A' for Active; 'I' for Inactive)
REMARK    1  A    between atoms: C_1  and  C_2
REMARK    2  A    between atoms: C_7  and  S_8
REMARK    3  A    between atoms: S_8  and  N_11
REMARK    4  A    between atoms: N_11  and  C_12
REMARK                            x       y       z     vdW  Elec       q    Type
REMARK                         _______ _______ _______ _____ _____    ______ ____
ROOT
ATOM      1  S   UNL     1       5.883   4.914  19.045  0.00  0.00    +0.000 S 
ATOM      2  O   UNL     1       5.492   3.521  19.040  0.00  0.00    +0.000 OA
ATOM      3  O   UNL     1       6.863   5.441  19.969  0.00  0.00    +0.000 OA
ENDROOT
BRANCH   1  10
ATOM      4  C   UNL     1       7.705   7.556  17.777  0.00  0.00    +0.000 C 
ATOM      5  C   UNL     1       7.264   6.313  17.120  0.00  0.00    +0.000 A 
ATOM      6  O   UNL     1       7.613   6.168  15.814  0.00  0.00    +0.000 OA
ATOM      7  N   UNL     1       7.114   4.974  15.333  0.00  0.00    +0.000 NA
ATOM      8  C   UNL     1       6.466   4.402  16.352  0.00  0.00    +0.000 A 
ATOM      9  N   UNL     1       5.819   3.229  16.242  0.00  0.00    +0.000 N 
ATOM     10  C   UNL     1       6.547   5.206  17.505  0.00  0.00    +0.000 A 
ATOM     11  H   UNL     1       5.998   2.647  15.431  0.00  0.00    +0.000 HD
ATOM     12  H   UNL     1       5.498   2.722  17.067  0.00  0.00    +0.000 HD
ENDBRANCH   1  10
BRANCH   1  13
ATOM     13  N   UNL     1       4.460   5.850  19.160  0.00  0.00    +0.000 N 
ATOM     14  H   UNL     1       4.449   6.519  18.388  0.00  0.00    +0.000 HD
BRANCH  13  15
ATOM     15  C   UNL     1       3.243   5.086  19.218  0.00  0.00    +0.000 A 
ATOM     16  C   UNL     1       2.664   4.786  20.445  0.00  0.00    +0.000 A 
ATOM     17  C   UNL     1       1.483   4.064  20.438  0.00  0.00    +0.000 A 
ATOM     18  N   UNL     1       0.879   3.622  19.313  0.00  0.00    +0.000 NA
ATOM     19  C   UNL     1       1.492   3.895  18.142  0.00  0.00    +0.000 A 
ATOM     20  C   UNL     1       2.670   4.613  18.043  0.00  0.00    +0.000 A 
ENDBRANCH  13  15
ENDBRANCH   1  13
TORSDOF 3
ENDMDL
MODEL 3
REMARK VINA RESULT:      -7.5      1.389      1.897
REMARK  Name = 
REMARK  4 active torsions:
REMARK  status: ('A' for Active; 'I' for Inactive)
REMARK    1  A    between atoms: C_1  and  C_2
REMARK    2  A    between atoms: C_7  and  S_8
REMARK    3  A    between atoms: S_8  and  N_11
REMARK    4  A    between atoms: N_11  and  C_12
REMARK                            x       y       z     vdW  Elec       q    Type
REMARK                         _______ _______ _______ _____ _____    ______ ____
ROOT
ATOM      1  S   UNL     1       5.712   4.940  18.853  0.00  0.00    +0.000 S 
ATOM      2  O   UNL     1       6.687   5.156  19.901  0.00  0.00    +0.000 OA
ATOM      3  O   UNL     1       4.489   5.706  18.763  0.00  0.00    +0.000 OA
ENDROOT
BRANCH   1  10
ATOM      4  C   UNL     1       7.682   7.589  17.849  0.00  0.00    +0.000 C 
ATOM      5  C   UNL     1       7.294   6.371  17.116  0.00  0.00    +0.000 A 
ATOM      6  O   UNL     1       7.771   6.257  15.847  0.00  0.00    +0.000 OA
ATOM      7  N   UNL     1       7.308   5.083  15.285  0.00  0.00    +0.000 NA
ATOM      8  C   UNL     1       6.555   4.493  16.217  0.00  0.00    +0.000 A 
ATOM      9  N   UNL     1       5.909   3.333  16.010  0.00  0.00    +0.000 N 
ATOM     10  C   UNL     1       6.529   5.264  17.396  0.00  0.00    +0.000 A 
ATOM     11  H   UNL     1       6.162   2.771  15.205  0.00  0.00    +0.000 HD
ATOM     12  H   UNL     1       5.501   2.808  16.784  0.00  0.00    +0.000 HD
ENDBRANCH   1  10
BRANCH   1  13
ATOM     13  N   UNL     1       5.322   3.278  18.846  0.00  0.00    +0.000 N 
ATOM     14  H   UNL     1       5.933   2.799  19.510  0.00  0.00    +0.000 HD
BRANCH  13  15
ATOM     15  C   UNL     1       3.936   2.985  19.093  0.00  0.00    +0.000 A 
ATOM     16  C   UNL     1       3.457   2.914  20.395  0.00  0.00    +0.000 A 
ATOM     17  C   UNL     1       2.110   2.648  20.570  0.00  0.00    +0.000 A 
ATOM     18  N   UNL     1       1.248   2.435  19.552  0.00  0.00    +0.000 NA
ATOM     19  C   UNL     1       1.756   2.469  18.303  0.00  0.00    +0.000 A 
ATOM     20  C   UNL     1       3.085   2.732  18.023  0.00  0.00    +0.000 A 
ENDBRANCH  13  15
ENDBRANCH   1  13
TORSDOF 3
ENDMDL
MODEL 4
REMARK VINA RESULT:      -7.5      1.368      1.497
REMARK  Name = 
REMARK  4 active torsions:
REMARK  status: ('A' for Active; 'I' for Inactive)
REMARK    1  A    between atoms: C_1  and  C_2
REMARK    2  A    between atoms: C_7  and  S_8
REMARK    3  A    between atoms: S_8  and  N_11
REMARK    4  A    between atoms: N_11  and  C_12
REMARK                            x       y       z     vdW  Elec       q    Type
REMARK                         _______ _______ _______ _____ _____    ______ ____
ROOT
ATOM      1  S   UNL     1       5.681   4.947  18.847  0.00  0.00    +0.000 S 
ATOM      2  O   UNL     1       6.653   5.156  19.898  0.00  0.00    +0.000 OA
ATOM      3  O   UNL     1       4.465   5.723  18.749  0.00  0.00    +0.000 OA
ENDROOT
BRANCH   1  10
ATOM      4  C   UNL     1       7.678   7.577  17.849  0.00  0.00    +0.000 C 
ATOM      5  C   UNL     1       7.283   6.362  17.115  0.00  0.00    +0.000 A 
ATOM      6  O   UNL     1       7.765   6.242  15.849  0.00  0.00    +0.000 OA
ATOM      7  N   UNL     1       7.295   5.073  15.286  0.00  0.00    +0.000 NA
ATOM      8  C   UNL     1       6.533   4.489  16.215  0.00  0.00    +0.000 A 
ATOM      9  N   UNL     1       5.877   3.335  16.006  0.00  0.00    +0.000 N 
ATOM     10  C   UNL     1       6.508   5.262  17.393  0.00  0.00    +0.000 A 
ATOM     11  H   UNL     1       6.129   2.769  15.202  0.00  0.00    +0.000 HD
ATOM     12  H   UNL     1       5.462   2.815  16.779  0.00  0.00    +0.000 HD
ENDBRANCH   1  10
BRANCH   1  13
ATOM     13  N   UNL     1       5.278   3.288  18.840  0.00  0.00    +0.000 N 
ATOM     14  H   UNL     1       5.885   2.804  19.504  0.00  0.00    +0.000 HD
BRANCH  13  15
ATOM     15  C   UNL     1       3.890   3.007  19.086  0.00  0.00    +0.000 A 
ATOM     16  C   UNL     1       3.012   2.833  18.023  0.00  0.00    +0.000 A 
ATOM     17  C   UNL     1       1.691   2.545  18.321  0.00  0.00    +0.000 A 
ATOM     18  N   UNL     1       1.209   2.446  19.580  0.00  0.00    +0.000 NA
ATOM     19  C   UNL     1       2.080   2.663  20.587  0.00  0.00    +0.000 A 
ATOM     20  C   UNL     1       3.419   2.951  20.393  0.00  0.00    +0.000 A 
ENDBRANCH  13  15
ENDBRANCH   1  13
TORSDOF 3
ENDMDL
MODEL 5
REMARK VINA RESULT:      -7.4      1.845      2.388
REMARK  Name = 
REMARK  4 active torsions:
REMARK  status: ('A' for Active; 'I' for Inactive)
REMARK    1  A    between atoms: C_1  and  C_2
REMARK    2  A    between atoms: C_7  and  S_8
REMARK    3  A    between atoms: S_8  and  N_11
REMARK    4  A    between atoms: N_11  and  C_12
REMARK                            x       y       z     vdW  Elec       q    Type
REMARK                         _______ _______ _______ _____ _____    ______ ____
ROOT
ATOM      1  S   UNL     1       5.678   5.068  19.270  0.00  0.00    +0.000 S 
ATOM      2  O   UNL     1       6.950   5.308  19.918  0.00  0.00    +0.000 OA
ATOM      3  O   UNL     1       4.458   5.720  19.691  0.00  0.00    +0.000 OA
ENDROOT
BRANCH   1  10
ATOM      4  C   UNL     1       3.825   7.135  17.220  0.00  0.00    +0.000 C 
ATOM      5  C   UNL     1       5.071   6.401  16.941  0.00  0.00    +0.000 A 
ATOM      6  O   UNL     1       5.582   6.542  15.689  0.00  0.00    +0.000 OA
ATOM      7  N   UNL     1       6.730   5.784  15.571  0.00  0.00    +0.000 NA
ATOM      8  C   UNL     1       6.908   5.189  16.754  0.00  0.00    +0.000 A 
ATOM      9  N   UNL     1       7.919   4.339  17.001  0.00  0.00    +0.000 N 
ATOM     10  C   UNL     1       5.891   5.561  17.654  0.00  0.00    +0.000 A 
ATOM     11  H   UNL     1       8.698   4.305  16.351  0.00  0.00    +0.000 HD
ATOM     12  H   UNL     1       8.146   4.048  17.952  0.00  0.00    +0.000 HD
ENDBRANCH   1  10
BRANCH   1  13
ATOM     13  N   UNL     1       5.421   3.381  19.246  0.00  0.00    +0.000 N 
ATOM     14  H   UNL     1       5.868   2.973  20.069  0.00  0.00    +0.000 HD
BRANCH  13  15
ATOM     15  C   UNL     1       4.043   2.985  19.138  0.00  0.00    +0.000 A 
ATOM     16  C   UNL     1       3.299   2.724  20.282  0.00  0.00    +0.000 A 
ATOM     17  C   UNL     1       1.972   2.366  20.117  0.00  0.00    +0.000 A 
ATOM     18  N   UNL     1       1.373   2.237  18.912  0.00  0.00    +0.000 NA
ATOM     19  C   UNL     1       2.137   2.456  17.822  0.00  0.00    +0.000 A 
ATOM     20  C   UNL     1       3.469   2.824  17.882  0.00  0.00    +0.000 A 
ENDBRANCH  13  15
ENDBRANCH   1  13
TORSDOF 3
ENDMDL
MODEL 6
REMARK VINA RESULT:      -7.4      1.837      2.090
REMARK  Name = 
REMARK  4 active torsions:
REMARK  status: ('A' for Active; 'I' for Inactive)
REMARK    1  A    between atoms: C_1  and  C_2
REMARK    2  A    between atoms: C_7  and  S_8
REMARK    3  A    between atoms: S_8  and  N_11
REMARK    4  A    between atoms: N_11  and  C_12
REMARK                            x       y       z     vdW  Elec       q    Type
REMARK                         _______ _______ _______ _____ _____    ______ ____
ROOT
ATOM      1  S   UNL     1       5.646   5.093  19.245  0.00  0.00    +0.000 S 
ATOM      2  O   UNL     1       6.916   5.337  19.896  0.00  0.00    +0.000 OA
ATOM      3  O   UNL     1       4.424   5.741  19.663  0.00  0.00    +0.000 OA
ENDROOT
BRANCH   1  10
ATOM      4  C   UNL     1       3.807   7.174  17.198  0.00  0.00    +0.000 C 
ATOM      5  C   UNL     1       5.047   6.431  16.917  0.00  0.00    +0.000 A 
ATOM      6  O   UNL     1       5.559   6.569  15.664  0.00  0.00    +0.000 OA
ATOM      7  N   UNL     1       6.701   5.802  15.545  0.00  0.00    +0.000 NA
ATOM      8  C   UNL     1       6.876   5.205  16.728  0.00  0.00    +0.000 A 
ATOM      9  N   UNL     1       7.881   4.348  16.974  0.00  0.00    +0.000 N 
ATOM     10  C   UNL     1       5.862   5.584  17.630  0.00  0.00    +0.000 A 
ATOM     11  H   UNL     1       8.659   4.308  16.324  0.00  0.00    +0.000 HD
ATOM     12  H   UNL     1       8.106   4.055  17.925  0.00  0.00    +0.000 HD
ENDBRANCH   1  10
BRANCH   1  13
ATOM     13  N   UNL     1       5.395   3.404  19.222  0.00  0.00    +0.000 N 
ATOM     14  H   UNL     1       5.858   2.997  20.037  0.00  0.00    +0.000 HD
BRANCH  13  15
ATOM     15  C   UNL     1       4.017   3.004  19.137  0.00  0.00    +0.000 A 
ATOM     16  C   UNL     1       3.400   2.880  17.899  0.00  0.00    +0.000 A 
ATOM     17  C   UNL     1       2.077   2.473  17.879  0.00  0.00    +0.000 A 
ATOM     18  N   UNL     1       1.354   2.212  18.990  0.00  0.00    +0.000 NA
ATOM     19  C   UNL     1       1.973   2.383  20.177  0.00  0.00    +0.000 A 
ATOM     20  C   UNL     1       3.291   2.782  20.302  0.00  0.00    +0.000 A 
ENDBRANCH  13  15
ENDBRANCH   1  13
TORSDOF 3
ENDMDL
MODEL 7
REMARK VINA RESULT:      -7.3      2.762      5.751
REMARK  Name = 
REMARK  4 active torsions:
REMARK  status: ('A' for Active; 'I' for Inactive)
REMARK    1  A    between atoms: C_1  and  C_2
REMARK    2  A    between atoms: C_7  and  S_8
REMARK    3  A    between atoms: S_8  and  N_11
REMARK    4  A    between atoms: N_11  and  C_12
REMARK                            x       y       z     vdW  Elec       q    Type
REMARK                         _______ _______ _______ _____ _____    ______ ____
ROOT
ATOM      1  S   UNL     1       3.008   3.350  17.916  0.00  0.00    +0.000 S 
ATOM      2  O   UNL     1       3.864   2.334  17.341  0.00  0.00    +0.000 OA
ATOM      3  O   UNL     1       1.615   3.485  17.555  0.00  0.00    +0.000 OA
ENDROOT
BRANCH   1  10
ATOM      4  C   UNL     1       0.855   4.332  20.428  0.00  0.00    +0.000 C 
ATOM      5  C   UNL     1       2.061   3.489  20.496  0.00  0.00    +0.000 A 
ATOM      6  O   UNL     1       2.397   3.021  21.728  0.00  0.00    +0.000 OA
ATOM      7  N   UNL     1       3.552   2.270  21.636  0.00  0.00    +0.000 NA
ATOM      8  C   UNL     1       3.909   2.287  20.349  0.00  0.00    +0.000 A 
ATOM      9  N   UNL     1       5.016   1.681  19.888  0.00  0.00    +0.000 N 
ATOM     10  C   UNL     1       2.988   3.034  19.589  0.00  0.00    +0.000 A 
ATOM     11  H   UNL     1       5.489   1.009  20.483  0.00  0.00    +0.000 HD
ATOM     12  H   UNL     1       5.167   1.544  18.889  0.00  0.00    +0.000 HD
ENDBRANCH   1  10
BRANCH   1  13
ATOM     13  N   UNL     1       3.781   4.857  17.704  0.00  0.00    +0.000 N 
ATOM     14  H   UNL     1       3.705   5.385  18.575  0.00  0.00    +0.000 HD
BRANCH  13  15
ATOM     15  C   UNL     1       5.142   4.774  17.249  0.00  0.00    +0.000 A 
ATOM     16  C   UNL     1       6.185   4.724  18.166  0.00  0.00    +0.000 A 
ATOM     17  C   UNL     1       7.473   4.625  17.669  0.00  0.00    +0.000 A 
ATOM     18  N   UNL     1       7.770   4.597  16.351  0.00  0.00    +0.000 NA
ATOM     19  C   UNL     1       6.736   4.690  15.489  0.00  0.00    +0.000 A 
ATOM     20  C   UNL     1       5.414   4.787  15.885  0.00  0.00    +0.000 A 
ENDBRANCH  13  15
ENDBRANCH   1  13
TORSDOF 3
ENDMDL
MODEL 8
REMARK VINA RESULT:      -7.3      2.776      5.645
REMARK  Name = 
REMARK  4 active torsions:
REMARK  status: ('A' for Active; 'I' for Inactive)
REMARK    1  A    between atoms: C_1  and  C_2
REMARK    2  A    between atoms: C_7  and  S_8
REMARK    3  A    between atoms: S_8  and  N_11
REMARK    4  A    between atoms: N_11  and  C_12
REMARK                            x       y       z     vdW  Elec       q    Type
REMARK                         _______ _______ _______ _____ _____    ______ ____
ROOT
ATOM      1  S   UNL     1       3.001   3.309  17.907  0.00  0.00    +0.000 S 
ATOM      2  O   UNL     1       3.862   2.291  17.343  0.00  0.00    +0.000 OA
ATOM      3  O   UNL     1       1.606   3.431  17.547  0.00  0.00    +0.000 OA
ENDROOT
BRANCH   1  10
ATOM      4  C   UNL     1       0.857   4.325  20.413  0.00  0.00    +0.000 C 
ATOM      5  C   UNL     1       2.063   3.482  20.487  0.00  0.00    +0.000 A 
ATOM      6  O   UNL     1       2.403   3.030  21.724  0.00  0.00    +0.000 OA
ATOM      7  N   UNL     1       3.558   2.278  21.639  0.00  0.00    +0.000 NA
ATOM      8  C   UNL     1       3.910   2.277  20.350  0.00  0.00    +0.000 A 
ATOM      9  N   UNL     1       5.015   1.665  19.893  0.00  0.00    +0.000 N 
ATOM     10  C   UNL     1       2.986   3.015  19.583  0.00  0.00    +0.000 A 
ATOM     11  H   UNL     1       5.490   1.000  20.495  0.00  0.00    +0.000 HD
ATOM     12  H   UNL     1       5.163   1.514  18.895  0.00  0.00    +0.000 HD
ENDBRANCH   1  10
BRANCH   1  13
ATOM     13  N   UNL     1       3.765   4.817  17.673  0.00  0.00    +0.000 N 
ATOM     14  H   UNL     1       3.684   5.359  18.535  0.00  0.00    +0.000 HD
BRANCH  13  15
ATOM     15  C   UNL     1       5.127   4.737  17.221  0.00  0.00    +0.000 A 
ATOM     16  C   UNL     1       5.411   4.672  15.862  0.00  0.00    +0.000 A 
ATOM     17  C   UNL     1       6.741   4.615  15.487  0.00  0.00    +0.000 A 
ATOM     18  N   UNL     1       7.770   4.598  16.363  0.00  0.00    +0.000 NA
ATOM     19  C   UNL     1       7.456   4.619  17.675  0.00  0.00    +0.000 A 
ATOM     20  C   UNL     1       6.159   4.681  18.151  0.00  0.00    +0.000 A 
ENDBRANCH  13  15
ENDBRANCH   1  13
TORSDOF 3
ENDMDL
MODEL 9
REMARK VINA RESULT:      -7.2      1.285      1.477
REMARK  Name = 
REMARK  4 active torsions:
REMARK  status: ('A' for Active; 'I' for Inactive)
REMARK    1  A    between atoms: C_1  and  C_2
REMARK    2  A    between atoms: C_7  and  S_8
REMARK    3  A    between atoms: S_8  and  N_11
REMARK    4  A    between atoms: N_11  and  C_12
REMARK                            x       y       z     vdW  Elec       q    Type
REMARK                         _______ _______ _______ _____ _____    ______ ____
ROOT
ATOM      1  S   UNL     1       5.523   4.909  19.134  0.00  0.00    +0.000 S 
ATOM      2  O   UNL     1       5.308   3.491  18.940  0.00  0.00    +0.000 OA
ATOM      3  O   UNL     1       6.625   5.426  19.914  0.00  0.00    +0.000 OA
ENDROOT
BRANCH   1  10
ATOM      4  C   UNL     1       3.831   7.328  17.347  0.00  0.00    +0.000 C 
ATOM      5  C   UNL     1       5.009   6.527  16.970  0.00  0.00    +0.000 A 
ATOM      6  O   UNL     1       5.519   6.758  15.730  0.00  0.00    +0.000 OA
ATOM      7  N   UNL     1       6.597   5.924  15.513  0.00  0.00    +0.000 NA
ATOM      8  C   UNL     1       6.736   5.194  16.623  0.00  0.00    +0.000 A 
ATOM      9  N   UNL     1       7.674   4.242  16.761  0.00  0.00    +0.000 N 
ATOM     10  C   UNL     1       5.762   5.551  17.576  0.00  0.00    +0.000 A 
ATOM     11  H   UNL     1       8.441   4.212  16.098  0.00  0.00    +0.000 HD
ATOM     12  H   UNL     1       7.884   3.834  17.673  0.00  0.00    +0.000 HD
ENDBRANCH   1  10
BRANCH   1  13
ATOM     13  N   UNL     1       4.067   5.575  19.729  0.00  0.00    +0.000 N 
ATOM     14  H   UNL     1       3.863   6.428  19.205  0.00  0.00    +0.000 HD
BRANCH  13  15
ATOM     15  C   UNL     1       2.950   4.670  19.729  0.00  0.00    +0.000 A 
ATOM     16  C   UNL     1       2.346   4.305  18.532  0.00  0.00    +0.000 A 
ATOM     17  C   UNL     1       1.286   3.416  18.593  0.00  0.00    +0.000 A 
ATOM     18  N   UNL     1       0.799   2.906  19.745  0.00  0.00    +0.000 NA
ATOM     19  C   UNL     1       1.382   3.315  20.891  0.00  0.00    +0.000 A 
ATOM     20  C   UNL     1       2.448   4.195  20.935  0.00  0.00    +0.000 A 
ENDBRANCH  13  15
ENDBRANCH   1  13
TORSDOF 3
ENDMDL
