MODEL 1
REMARK VINA RESULT:      -7.2      0.000      0.000
REMARK  Name = 
REMARK  15 active torsions:
REMARK  status: ('A' for Active; 'I' for Inactive)
REMARK    1  A    between atoms: C_1  and  O_2
REMARK    2  A    between atoms: O_2  and  C_3
REMARK    3  A    between atoms: N_7  and  C_8
REMARK    4  A    between atoms: C_9  and  C_10
REMARK    5  A    between atoms: C_10  and  C_11
REMARK    6  A    between atoms: C_11  and  O_12
REMARK    7  A    between atoms: C_11  and  C_13
REMARK    8  A    between atoms: C_11  and  C_18
REMARK    9  A    between atoms: C_13  and  O_14
REMARK   10  A    between atoms: O_14  and  C_15
REMARK   11  A    between atoms: C_15  and  C_16
REMARK   12  A    between atoms: C_18  and  O_19
REMARK   13  A    between atoms: O_19  and  C_20
REMARK   14  A    between atoms: C_20  and  C_21
REMARK   15  A    between atoms: C_23  and  C_24
REMARK                            x       y       z     vdW  Elec       q    Type
REMARK                         _______ _______ _______ _____ _____    ______ ____
ROOT
ATOM      1  C   UNL     1       5.248   4.692  16.921  0.00  0.00    +0.000 C 
ENDROOT
BRANCH   1   2
ATOM      2  O   UNL     1       5.644   6.015  16.520  0.00  0.00    +0.000 OA
ATOM      3  H   UNL     1       6.613   6.066  16.533  0.00  0.00    +0.000 HD
ENDBRANCH   1   2
BRANCH   1   4
ATOM      4  C   UNL     1       3.684   4.598  17.017  0.00  0.00    +0.000 C 
BRANCH   4  11
ATOM      5  C   UNL     1       2.106   6.569  19.940  0.00  0.00    +0.000 A 
ATOM      6  N   UNL     1       1.722   5.680  20.775  0.00  0.00    +0.000 NA
ATOM      7  C   UNL     1       1.937   4.381  20.457  0.00  0.00    +0.000 A 
ATOM      8  O   UNL     1       1.607   3.498  21.251  0.00  0.00    +0.000 OA
ATOM      9  N   UNL     1       2.556   4.063  19.229  0.00  0.00    +0.000 N 
ATOM     10  C   UNL     1       2.821   2.645  19.005  0.00  0.00    +0.000 C 
ATOM     11  C   UNL     1       2.956   5.054  18.303  0.00  0.00    +0.000 A 
ATOM     12  C   UNL     1       2.758   6.354  18.630  0.00  0.00    +0.000 A 
ATOM     13  C   UNL     1       3.138   7.594  17.879  0.00  0.00    +0.000 C 
BRANCH   5  15
ATOM     14  C   UNL     1       1.099   8.287  21.273  0.00  0.00    +0.000 C 
ATOM     15  O   UNL     1       1.957   7.895  20.195  0.00  0.00    +0.000 OA
ENDBRANCH   5  15
ENDBRANCH   4  11
ENDBRANCH   1   4
BRANCH   1  16
ATOM     16  C   UNL     1       5.894   4.406  18.288  0.00  0.00    +0.000 C 
BRANCH  16  17
ATOM     17  O   UNL     1       7.309   4.661  18.315  0.00  0.00    +0.000 OA
BRANCH  17  18
ATOM     18  C   UNL     1       7.708   5.589  19.225  0.00  0.00    +0.000 C 
ATOM     19  C   UNL     1       8.023   6.892  18.559  0.00  0.00    +0.000 C 
ATOM     20  O   UNL     1       7.846   5.408  20.428  0.00  0.00    +0.000 OA
ENDBRANCH  17  18
ENDBRANCH  16  17
ENDBRANCH   1  16
BRANCH   1  21
ATOM     21  C   UNL     1       5.801   3.674  15.891  0.00  0.00    +0.000 C 
BRANCH  21  22
ATOM     22  O   UNL     1       5.439   4.063  14.546  0.00  0.00    +0.000 OA
BRANCH  22  23
ATOM     23  C   UNL     1       6.467   4.387  13.713  0.00  0.00    +0.000 C 
ATOM     24  C   UNL     1       6.433   3.536  12.478  0.00  0.00    +0.000 C 
ATOM     25  O   UNL     1       7.327   5.228  13.927  0.00  0.00    +0.000 OA
ENDBRANCH  22  23
ENDBRANCH  21  22
ENDBRANCH   1  21
TORSDOF 10
ENDMDL
MODEL 2
REMARK VINA RESULT:      -7.0      1.499      4.680
REMARK  Name = 
REMARK  15 active torsions:
REMARK  status: ('A' for Active; 'I' for Inactive)
REMARK    1  A    between atoms: C_1  and  O_2
REMARK    2  A    between atoms: O_2  and  C_3
REMARK    3  A    between atoms: N_7  and  C_8
REMARK    4  A    between atoms: C_9  and  C_10
REMARK    5  A    between atoms: C_10  and  C_11
REMARK    6  A    between atoms: C_11  and  O_12
REMARK    7  A    between atoms: C_11  and  C_13
REMARK    8  A    between atoms: C_11  and  C_18
REMARK    9  A    between atoms: C_13  and  O_14
REMARK   10  A    between atoms: O_14  and  C_15
REMARK   11  A    between atoms: C_15  and  C_16
REMARK   12  A    between atoms: C_18  and  O_19
REMARK   13  A    between atoms: O_19  and  C_20
REMARK   14  A    between atoms: C_20  and  C_21
REMARK   15  A    between atoms: C_23  and  C_24
REMARK                            x       y       z     vdW  Elec       q    Type
REMARK                         _______ _______ _______ _____ _____    ______ ____
ROOT
ATOM      1  C   UNL     1       5.851   4.616  16.083  0.00  0.00    +0.000 C 
ENDROOT
BRANCH   1   2
ATOM      2  O   UNL     1       6.570   3.972  17.148  0.00  0.00    +0.000 OA
ATOM      3  H   UNL     1       6.948   4.654  17.724  0.00  0.00    +0.000 HD
ENDBRANCH   1   2
BRANCH   1   4
ATOM      4  C   UNL     1       4.303   4.479  16.310  0.00  0.00    +0.000 C 
BRANCH   4  11
ATOM      5  C   UNL     1       2.818   3.793  19.809  0.00  0.00    +0.000 A 
ATOM      6  N   UNL     1       2.514   4.944  20.275  0.00  0.00    +0.000 NA
ATOM      7  C   UNL     1       2.769   6.026  19.502  0.00  0.00    +0.000 A 
ATOM      8  O   UNL     1       2.462   7.149  19.906  0.00  0.00    +0.000 OA
ATOM      9  N   UNL     1       3.364   5.844  18.235  0.00  0.00    +0.000 N 
ATOM     10  C   UNL     1       3.528   7.056  17.436  0.00  0.00    +0.000 C 
ATOM     11  C   UNL     1       3.717   4.569  17.738  0.00  0.00    +0.000 A 
ATOM     12  C   UNL     1       3.443   3.485  18.504  0.00  0.00    +0.000 A 
ATOM     13  C   UNL     1       3.646   2.030  18.205  0.00  0.00    +0.000 C 
BRANCH   5  15
ATOM     14  C   UNL     1       1.497   2.663  21.459  0.00  0.00    +0.000 C 
ATOM     15  O   UNL     1       2.567   2.655  20.507  0.00  0.00    +0.000 OA
ENDBRANCH   5  15
ENDBRANCH   4  11
ENDBRANCH   1   4
BRANCH   1  16
ATOM     16  C   UNL     1       6.268   3.943  14.763  0.00  0.00    +0.000 C 
BRANCH  16  17
ATOM     17  O   UNL     1       5.235   3.957  13.764  0.00  0.00    +0.000 OA
BRANCH  17  18
ATOM     18  C   UNL     1       5.623   3.532  12.531  0.00  0.00    +0.000 C 
ATOM     19  C   UNL     1       4.441   3.339  11.634  0.00  0.00    +0.000 C 
ATOM     20  O   UNL     1       6.771   3.285  12.181  0.00  0.00    +0.000 OA
ENDBRANCH  17  18
ENDBRANCH  16  17
ENDBRANCH   1  16
BRANCH   1  21
ATOM     21  C   UNL     1       6.271   6.108  16.031  0.00  0.00    +0.000 C 
BRANCH  21  22
ATOM     22  O   UNL     1       7.605   6.280  16.561  0.00  0.00    +0.000 OA
BRANCH  22  23
ATOM     23  C   UNL     1       7.697   6.870  17.786  0.00  0.00    +0.000 C 
ATOM     24  C   UNL     1       7.789   8.360  17.647  0.00  0.00    +0.000 C 
ATOM     25  O   UNL     1       7.731   6.291  18.862  0.00  0.00    +0.000 OA
ENDBRANCH  22  23
ENDBRANCH  21  22
ENDBRANCH   1  21
TORSDOF 10
ENDMDL
MODEL 3
REMARK VINA RESULT:      -7.0      0.788      3.411
REMARK  Name = 
REMARK  15 active torsions:
REMARK  status: ('A' for Active; 'I' for Inactive)
REMARK    1  A    between atoms: C_1  and  O_2
REMARK    2  A    between atoms: O_2  and  C_3
REMARK    3  A    between atoms: N_7  and  C_8
REMARK    4  A    between atoms: C_9  and  C_10
REMARK    5  A    between atoms: C_10  and  C_11
REMARK    6  A    between atoms: C_11  and  O_12
REMARK    7  A    between atoms: C_11  and  C_13
REMARK    8  A    between atoms: C_11  and  C_18
REMARK    9  A    between atoms: C_13  and  O_14
REMARK   10  A    between atoms: O_14  and  C_15
REMARK   11  A    between atoms: C_15  and  C_16
REMARK   12  A    between atoms: C_18  and  O_19
REMARK   13  A    between atoms: O_19  and  C_20
REMARK   14  A    between atoms: C_20  and  C_21
REMARK   15  A    between atoms: C_23  and  C_24
REMARK                            x       y       z     vdW  Elec       q    Type
REMARK                         _______ _______ _______ _____ _____    ______ ____
ROOT
ATOM      1  C   UNL     1       4.835   4.212  16.924  0.00  0.00    +0.000 C 
ENDROOT
BRANCH   1   2
ATOM      2  O   UNL     1       5.227   2.861  16.628  0.00  0.00    +0.000 OA
ATOM      3  H   UNL     1       5.450   2.413  17.460  0.00  0.00    +0.000 HD
ENDBRANCH   1   2
BRANCH   1   4
ATOM      4  C   UNL     1       3.280   4.296  17.125  0.00  0.00    +0.000 C 
BRANCH   4  11
ATOM      5  C   UNL     1       2.064   6.452  20.089  0.00  0.00    +0.000 A 
ATOM      6  N   UNL     1       1.729   5.616  20.996  0.00  0.00    +0.000 NA
ATOM      7  C   UNL     1       1.863   4.297  20.720  0.00  0.00    +0.000 A 
ATOM      8  O   UNL     1       1.577   3.463  21.581  0.00  0.00    +0.000 OA
ATOM      9  N   UNL     1       2.349   3.902  19.455  0.00  0.00    +0.000 N 
ATOM     10  C   UNL     1       2.538   2.466  19.273  0.00  0.00    +0.000 C 
ATOM     11  C   UNL     1       2.696   4.835  18.451  0.00  0.00    +0.000 A 
ATOM     12  C   UNL     1       2.580   6.155  18.735  0.00  0.00    +0.000 A 
ATOM     13  C   UNL     1       2.933   7.346  17.896  0.00  0.00    +0.000 C 
BRANCH   5  15
ATOM     14  C   UNL     1       1.080   8.278  21.291  0.00  0.00    +0.000 C 
ATOM     15  O   UNL     1       1.990   7.793  20.296  0.00  0.00    +0.000 OA
ENDBRANCH   5  15
ENDBRANCH   4  11
ENDBRANCH   1   4
BRANCH   1  16
ATOM     16  C   UNL     1       5.279   5.096  15.746  0.00  0.00    +0.000 C 
BRANCH  16  17
ATOM     17  O   UNL     1       5.530   4.355  14.539  0.00  0.00    +0.000 OA
BRANCH  17  18
ATOM     18  C   UNL     1       6.716   4.631  13.933  0.00  0.00    +0.000 C 
ATOM     19  C   UNL     1       6.789   3.989  12.582  0.00  0.00    +0.000 C 
ATOM     20  O   UNL     1       7.640   5.275  14.414  0.00  0.00    +0.000 OA
ENDBRANCH  17  18
ENDBRANCH  16  17
ENDBRANCH   1  16
BRANCH   1  21
ATOM     21  C   UNL     1       5.582   4.678  18.201  0.00  0.00    +0.000 C 
BRANCH  21  22
ATOM     22  O   UNL     1       6.283   5.919  17.956  0.00  0.00    +0.000 OA
BRANCH  22  23
ATOM     23  C   UNL     1       7.475   6.076  18.597  0.00  0.00    +0.000 C 
ATOM     24  C   UNL     1       8.070   7.417  18.281  0.00  0.00    +0.000 C 
ATOM     25  O   UNL     1       8.021   5.250  19.312  0.00  0.00    +0.000 OA
ENDBRANCH  22  23
ENDBRANCH  21  22
ENDBRANCH   1  21
TORSDOF 10
ENDMDL
MODEL 4
REMARK VINA RESULT:      -7.0      1.587      4.618
REMARK  Name = 
REMARK  15 active torsions:
REMARK  status: ('A' for Active; 'I' for Inactive)
REMARK    1  A    between atoms: C_1  and  O_2
REMARK    2  A    between atoms: O_2  and  C_3
REMARK    3  A    between atoms: N_7  and  C_8
REMARK    4  A    between atoms: C_9  and  C_10
REMARK    5  A    between atoms: C_10  and  C_11
REMARK    6  A    between atoms: C_11  and  O_12
REMARK    7  A    between atoms: C_11  and  C_13
REMARK    8  A    between atoms: C_11  and  C_18
REMARK    9  A    between atoms: C_13  and  O_14
REMARK   10  A    between atoms: O_14  and  C_15
REMARK   11  A    between atoms: C_15  and  C_16
REMARK   12  A    between atoms: C_18  and  O_19
REMARK   13  A    between atoms: O_19  and  C_20
REMARK   14  A    between atoms: C_20  and  C_21
REMARK   15  A    between atoms: C_23  and  C_24
REMARK                            x       y       z     vdW  Elec       q    Type
REMARK                         _______ _______ _______ _____ _____    ______ ____
ROOT
ATOM      1  C   UNL     1       5.758   4.191  15.959  0.00  0.00    +0.000 C 
ENDROOT
BRANCH   1   2
ATOM      2  O   UNL     1       5.870   2.762  16.060  0.00  0.00    +0.000 OA
ATOM      3  H   UNL     1       5.929   2.391  15.166  0.00  0.00    +0.000 HD
ENDBRANCH   1   2
BRANCH   1   4
ATOM      4  C   UNL     1       4.264   4.634  16.153  0.00  0.00    +0.000 C 
BRANCH   4  11
ATOM      5  C   UNL     1       2.594   3.852  19.547  0.00  0.00    +0.000 A 
ATOM      6  N   UNL     1       2.408   4.991  20.099  0.00  0.00    +0.000 NA
ATOM      7  C   UNL     1       2.811   6.093  19.423  0.00  0.00    +0.000 A 
ATOM      8  O   UNL     1       2.620   7.209  19.911  0.00  0.00    +0.000 OA
ATOM      9  N   UNL     1       3.423   5.944  18.160  0.00  0.00    +0.000 N 
ATOM     10  C   UNL     1       3.751   7.188  17.468  0.00  0.00    +0.000 C 
ATOM     11  C   UNL     1       3.645   4.679  17.569  0.00  0.00    +0.000 A 
ATOM     12  C   UNL     1       3.224   3.578  18.237  0.00  0.00    +0.000 A 
ATOM     13  C   UNL     1       3.269   2.137  17.824  0.00  0.00    +0.000 C 
BRANCH   5  15
ATOM     14  C   UNL     1       1.800   2.747  21.520  0.00  0.00    +0.000 C 
ATOM     15  O   UNL     1       2.192   2.700  20.143  0.00  0.00    +0.000 OA
ENDBRANCH   5  15
ENDBRANCH   4  11
ENDBRANCH   1   4
BRANCH   1  16
ATOM     16  C   UNL     1       6.270   4.602  14.567  0.00  0.00    +0.000 C 
BRANCH  16  17
ATOM     17  O   UNL     1       6.516   3.485  13.697  0.00  0.00    +0.000 OA
BRANCH  17  18
ATOM     18  C   UNL     1       6.400   3.756  12.369  0.00  0.00    +0.000 C 
ATOM     19  C   UNL     1       5.107   3.233  11.825  0.00  0.00    +0.000 C 
ATOM     20  O   UNL     1       7.239   4.310  11.670  0.00  0.00    +0.000 OA
ENDBRANCH  17  18
ENDBRANCH  16  17
ENDBRANCH   1  16
BRANCH   1  21
ATOM     21  C   UNL     1       6.670   4.839  17.032  0.00  0.00    +0.000 C 
BRANCH  21  22
ATOM     22  O   UNL     1       7.287   6.042  16.518  0.00  0.00    +0.000 OA
BRANCH  22  23
ATOM     23  C   UNL     1       7.538   7.027  17.425  0.00  0.00    +0.000 C 
ATOM     24  C   UNL     1       7.883   6.439  18.761  0.00  0.00    +0.000 C 
ATOM     25  O   UNL     1       7.472   8.229  17.217  0.00  0.00    +0.000 OA
ENDBRANCH  22  23
ENDBRANCH  21  22
ENDBRANCH   1  21
TORSDOF 10
ENDMDL
MODEL 5
REMARK VINA RESULT:      -6.9      1.145      4.392
REMARK  Name = 
REMARK  15 active torsions:
REMARK  status: ('A' for Active; 'I' for Inactive)
REMARK    1  A    between atoms: C_1  and  O_2
REMARK    2  A    between atoms: O_2  and  C_3
REMARK    3  A    between atoms: N_7  and  C_8
REMARK    4  A    between atoms: C_9  and  C_10
REMARK    5  A    between atoms: C_10  and  C_11
REMARK    6  A    between atoms: C_11  and  O_12
REMARK    7  A    between atoms: C_11  and  C_13
REMARK    8  A    between atoms: C_11  and  C_18
REMARK    9  A    between atoms: C_13  and  O_14
REMARK   10  A    between atoms: O_14  and  C_15
REMARK   11  A    between atoms: C_15  and  C_16
REMARK   12  A    between atoms: C_18  and  O_19
REMARK   13  A    between atoms: O_19  and  C_20
REMARK   14  A    between atoms: C_20  and  C_21
REMARK   15  A    between atoms: C_23  and  C_24
REMARK                            x       y       z     vdW  Elec       q    Type
REMARK                         _______ _______ _______ _____ _____    ______ ____
ROOT
ATOM      1  C   UNL     1       5.575   4.222  16.540  0.00  0.00    +0.000 C 
ENDROOT
BRANCH   1   2
ATOM      2  O   UNL     1       5.719   2.858  16.111  0.00  0.00    +0.000 OA
ATOM      3  H   UNL     1       5.013   2.656  15.477  0.00  0.00    +0.000 HD
ENDBRANCH   1   2
BRANCH   1   4
ATOM      4  C   UNL     1       4.060   4.633  16.549  0.00  0.00    +0.000 C 
BRANCH   4  11
ATOM      5  C   UNL     1       1.962   3.917  19.712  0.00  0.00    +0.000 A 
ATOM      6  N   UNL     1       1.773   5.059  20.254  0.00  0.00    +0.000 NA
ATOM      7  C   UNL     1       2.311   6.143  19.647  0.00  0.00    +0.000 A 
ATOM      8  O   UNL     1       2.125   7.263  20.125  0.00  0.00    +0.000 OA
ATOM      9  N   UNL     1       3.059   5.971  18.462  0.00  0.00    +0.000 N 
ATOM     10  C   UNL     1       3.533   7.200  17.831  0.00  0.00    +0.000 C 
ATOM     11  C   UNL     1       3.281   4.700  17.883  0.00  0.00    +0.000 A 
ATOM     12  C   UNL     1       2.726   3.618  18.481  0.00  0.00    +0.000 A 
ATOM     13  C   UNL     1       2.742   2.181  18.056  0.00  0.00    +0.000 C 
BRANCH   5  15
ATOM     14  C   UNL     1       1.403   2.644  21.665  0.00  0.00    +0.000 C 
ATOM     15  O   UNL     1       1.430   2.783  20.239  0.00  0.00    +0.000 OA
ENDBRANCH   5  15
ENDBRANCH   4  11
ENDBRANCH   1   4
BRANCH   1  16
ATOM     16  C   UNL     1       6.372   5.105  15.563  0.00  0.00    +0.000 C 
BRANCH  16  17
ATOM     17  O   UNL     1       6.246   4.696  14.191  0.00  0.00    +0.000 OA
BRANCH  17  18
ATOM     18  C   UNL     1       7.323   4.972  13.409  0.00  0.00    +0.000 C 
ATOM     19  C   UNL     1       7.231   4.256  12.097  0.00  0.00    +0.000 C 
ATOM     20  O   UNL     1       8.281   5.669  13.719  0.00  0.00    +0.000 OA
ENDBRANCH  17  18
ENDBRANCH  16  17
ENDBRANCH   1  16
BRANCH   1  21
ATOM     21  C   UNL     1       6.194   4.366  17.954  0.00  0.00    +0.000 C 
BRANCH  21  22
ATOM     22  O   UNL     1       7.419   5.134  17.898  0.00  0.00    +0.000 OA
BRANCH  22  23
ATOM     23  C   UNL     1       7.720   5.872  19.003  0.00  0.00    +0.000 C 
ATOM     24  C   UNL     1       8.173   7.247  18.610  0.00  0.00    +0.000 C 
ATOM     25  O   UNL     1       7.665   5.487  20.162  0.00  0.00    +0.000 OA
ENDBRANCH  22  23
ENDBRANCH  21  22
ENDBRANCH   1  21
TORSDOF 10
ENDMDL
MODEL 6
REMARK VINA RESULT:      -6.9      1.191      1.255
REMARK  Name = 
REMARK  15 active torsions:
REMARK  status: ('A' for Active; 'I' for Inactive)
REMARK    1  A    between atoms: C_1  and  O_2
REMARK    2  A    between atoms: O_2  and  C_3
REMARK    3  A    between atoms: N_7  and  C_8
REMARK    4  A    between atoms: C_9  and  C_10
REMARK    5  A    between atoms: C_10  and  C_11
REMARK    6  A    between atoms: C_11  and  O_12
REMARK    7  A    between atoms: C_11  and  C_13
REMARK    8  A    between atoms: C_11  and  C_18
REMARK    9  A    between atoms: C_13  and  O_14
REMARK   10  A    between atoms: O_14  and  C_15
REMARK   11  A    between atoms: C_15  and  C_16
REMARK   12  A    between atoms: C_18  and  O_19
REMARK   13  A    between atoms: O_19  and  C_20
REMARK   14  A    between atoms: C_20  and  C_21
REMARK   15  A    between atoms: C_23  and  C_24
REMARK                            x       y       z     vdW  Elec       q    Type
REMARK                         _______ _______ _______ _____ _____    ______ ____
ROOT
ATOM      1  C   UNL     1       5.803   4.780  15.996  0.00  0.00    +0.000 C 
ENDROOT
BRANCH   1   2
ATOM      2  O   UNL     1       6.060   6.184  15.820  0.00  0.00    +0.000 OA
ATOM      3  H   UNL     1       5.463   6.684  16.399  0.00  0.00    +0.000 HD
ENDBRANCH   1   2
BRANCH   1   4
ATOM      4  C   UNL     1       4.266   4.530  16.197  0.00  0.00    +0.000 C 
BRANCH   4  11
ATOM      5  C   UNL     1       2.800   5.999  19.454  0.00  0.00    +0.000 A 
ATOM      6  N   UNL     1       2.547   4.988  20.193  0.00  0.00    +0.000 NA
ATOM      7  C   UNL     1       2.822   3.758  19.698  0.00  0.00    +0.000 A 
ATOM      8  O   UNL     1       2.618   2.762  20.393  0.00  0.00    +0.000 OA
ATOM      9  N   UNL     1       3.360   3.642  18.397  0.00  0.00    +0.000 N 
ATOM     10  C   UNL     1       3.702   2.287  17.975  0.00  0.00    +0.000 C 
ATOM     11  C   UNL     1       3.615   4.767  17.579  0.00  0.00    +0.000 A 
ATOM     12  C   UNL     1       3.357   5.998  18.084  0.00  0.00    +0.000 A 
ATOM     13  C   UNL     1       3.590   7.347  17.473  0.00  0.00    +0.000 C 
BRANCH   5  15
ATOM     14  C   UNL     1       1.521   7.495  20.822  0.00  0.00    +0.000 C 
ATOM     15  O   UNL     1       2.583   7.268  19.887  0.00  0.00    +0.000 OA
ENDBRANCH   5  15
ENDBRANCH   4  11
ENDBRANCH   1   4
BRANCH   1  16
ATOM     16  C   UNL     1       6.596   4.311  17.228  0.00  0.00    +0.000 C 
BRANCH  16  17
ATOM     17  O   UNL     1       7.724   5.148  17.533  0.00  0.00    +0.000 OA
BRANCH  17  18
ATOM     18  C   UNL     1       7.615   5.861  18.687  0.00  0.00    +0.000 C 
ATOM     19  C   UNL     1       8.071   7.273  18.490  0.00  0.00    +0.000 C 
ATOM     20  O   UNL     1       7.241   5.428  19.770  0.00  0.00    +0.000 OA
ENDBRANCH  17  18
ENDBRANCH  16  17
ENDBRANCH   1  16
BRANCH   1  21
ATOM     21  C   UNL     1       6.328   4.019  14.751  0.00  0.00    +0.000 C 
BRANCH  21  22
ATOM     22  O   UNL     1       5.337   4.019  13.698  0.00  0.00    +0.000 OA
BRANCH  22  23
ATOM     23  C   UNL     1       5.731   3.510  12.498  0.00  0.00    +0.000 C 
ATOM     24  C   UNL     1       4.541   3.210  11.636  0.00  0.00    +0.000 C 
ATOM     25  O   UNL     1       6.883   3.292  12.152  0.00  0.00    +0.000 OA
ENDBRANCH  22  23
ENDBRANCH  21  22
ENDBRANCH   1  21
TORSDOF 10
ENDMDL
MODEL 7
REMARK VINA RESULT:      -6.9      1.281      2.754
REMARK  Name = 
REMARK  15 active torsions:
REMARK  status: ('A' for Active; 'I' for Inactive)
REMARK    1  A    between atoms: C_1  and  O_2
REMARK    2  A    between atoms: O_2  and  C_3
REMARK    3  A    between atoms: N_7  and  C_8
REMARK    4  A    between atoms: C_9  and  C_10
REMARK    5  A    between atoms: C_10  and  C_11
REMARK    6  A    between atoms: C_11  and  O_12
REMARK    7  A    between atoms: C_11  and  C_13
REMARK    8  A    between atoms: C_11  and  C_18
REMARK    9  A    between atoms: C_13  and  O_14
REMARK   10  A    between atoms: O_14  and  C_15
REMARK   11  A    between atoms: C_15  and  C_16
REMARK   12  A    between atoms: C_18  and  O_19
REMARK   13  A    between atoms: O_19  and  C_20
REMARK   14  A    between atoms: C_20  and  C_21
REMARK   15  A    between atoms: C_23  and  C_24
REMARK                            x       y       z     vdW  Elec       q    Type
REMARK                         _______ _______ _______ _____ _____    ______ ____
ROOT
ATOM      1  C   UNL     1       5.828   4.761  16.056  0.00  0.00    +0.000 C 
ENDROOT
BRANCH   1   2
ATOM      2  O   UNL     1       6.293   6.065  15.667  0.00  0.00    +0.000 OA
ATOM      3  H   UNL     1       6.637   6.518  16.453  0.00  0.00    +0.000 HD
ENDBRANCH   1   2
BRANCH   1   4
ATOM      4  C   UNL     1       4.266   4.765  16.215  0.00  0.00    +0.000 C 
BRANCH   4  11
ATOM      5  C   UNL     1       2.619   3.845  19.585  0.00  0.00    +0.000 A 
ATOM      6  N   UNL     1       2.343   4.963  20.139  0.00  0.00    +0.000 NA
ATOM      7  C   UNL     1       2.672   6.096  19.474  0.00  0.00    +0.000 A 
ATOM      8  O   UNL     1       2.395   7.192  19.964  0.00  0.00    +0.000 OA
ATOM      9  N   UNL     1       3.308   5.999  18.217  0.00  0.00    +0.000 N 
ATOM     10  C   UNL     1       3.552   7.267  17.535  0.00  0.00    +0.000 C 
ATOM     11  C   UNL     1       3.629   4.757  17.624  0.00  0.00    +0.000 A 
ATOM     12  C   UNL     1       3.282   3.624  18.281  0.00  0.00    +0.000 A 
ATOM     13  C   UNL     1       3.438   2.193  17.863  0.00  0.00    +0.000 C 
BRANCH   5  15
ATOM     14  C   UNL     1       1.941   2.665  21.558  0.00  0.00    +0.000 C 
ATOM     15  O   UNL     1       2.295   2.662  20.170  0.00  0.00    +0.000 OA
ENDBRANCH   5  15
ENDBRANCH   4  11
ENDBRANCH   1   4
BRANCH   1  16
ATOM     16  C   UNL     1       6.509   4.401  17.388  0.00  0.00    +0.000 C 
BRANCH  16  17
ATOM     17  O   UNL     1       7.733   5.120  17.616  0.00  0.00    +0.000 OA
BRANCH  17  18
ATOM     18  C   UNL     1       7.744   5.892  18.736  0.00  0.00    +0.000 C 
ATOM     19  C   UNL     1       8.085   7.312  18.405  0.00  0.00    +0.000 C 
ATOM     20  O   UNL     1       7.551   5.505  19.882  0.00  0.00    +0.000 OA
ENDBRANCH  17  18
ENDBRANCH  16  17
ENDBRANCH   1  16
BRANCH   1  21
ATOM     21  C   UNL     1       6.271   3.735  14.981  0.00  0.00    +0.000 C 
BRANCH  21  22
ATOM     22  O   UNL     1       5.486   3.886  13.777  0.00  0.00    +0.000 OA
BRANCH  22  23
ATOM     23  C   UNL     1       6.087   3.516  12.612  0.00  0.00    +0.000 C 
ATOM     24  C   UNL     1       7.216   4.447  12.284  0.00  0.00    +0.000 C 
ATOM     25  O   UNL     1       5.759   2.580  11.900  0.00  0.00    +0.000 OA
ENDBRANCH  22  23
ENDBRANCH  21  22
ENDBRANCH   1  21
TORSDOF 10
ENDMDL
MODEL 8
REMARK VINA RESULT:      -6.7      1.145      3.412
REMARK  Name = 
REMARK  15 active torsions:
REMARK  status: ('A' for Active; 'I' for Inactive)
REMARK    1  A    between atoms: C_1  and  O_2
REMARK    2  A    between atoms: O_2  and  C_3
REMARK    3  A    between atoms: N_7  and  C_8
REMARK    4  A    between atoms: C_9  and  C_10
REMARK    5  A    between atoms: C_10  and  C_11
REMARK    6  A    between atoms: C_11  and  O_12
REMARK    7  A    between atoms: C_11  and  C_13
REMARK    8  A    between atoms: C_11  and  C_18
REMARK    9  A    between atoms: C_13  and  O_14
REMARK   10  A    between atoms: O_14  and  C_15
REMARK   11  A    between atoms: C_15  and  C_16
REMARK   12  A    between atoms: C_18  and  O_19
REMARK   13  A    between atoms: O_19  and  C_20
REMARK   14  A    between atoms: C_20  and  C_21
REMARK   15  A    between atoms: C_23  and  C_24
REMARK                            x       y       z     vdW  Elec       q    Type
REMARK                         _______ _______ _______ _____ _____    ______ ____
ROOT
ATOM      1  C   UNL     1       5.136   5.012  16.965  0.00  0.00    +0.000 C 
ENDROOT
BRANCH   1   2
ATOM      2  O   UNL     1       5.968   3.960  17.483  0.00  0.00    +0.000 OA
ATOM      3  H   UNL     1       5.618   3.683  18.345  0.00  0.00    +0.000 HD
ENDBRANCH   1   2
BRANCH   1   4
ATOM      4  C   UNL     1       3.623   4.689  17.229  0.00  0.00    +0.000 C 
BRANCH   4  11
ATOM      5  C   UNL     1       1.968   6.694  20.085  0.00  0.00    +0.000 A 
ATOM      6  N   UNL     1       1.852   5.867  21.053  0.00  0.00    +0.000 NA
ATOM      7  C   UNL     1       2.293   4.601  20.857  0.00  0.00    +0.000 A 
ATOM      8  O   UNL     1       2.224   3.784  21.777  0.00  0.00    +0.000 OA
ATOM      9  N   UNL     1       2.842   4.247  19.606  0.00  0.00    +0.000 N 
ATOM     10  C   UNL     1       3.365   2.887  19.510  0.00  0.00    +0.000 C 
ATOM     11  C   UNL     1       2.944   5.164  18.535  0.00  0.00    +0.000 A 
ATOM     12  C   UNL     1       2.522   6.435  18.738  0.00  0.00    +0.000 A 
ATOM     13  C   UNL     1       2.570   7.616  17.815  0.00  0.00    +0.000 C 
BRANCH   5  15
ATOM     14  C   UNL     1       1.194   8.464  21.504  0.00  0.00    +0.000 C 
ATOM     15  O   UNL     1       1.580   7.990  20.209  0.00  0.00    +0.000 OA
ENDBRANCH   5  15
ENDBRANCH   4  11
ENDBRANCH   1   4
BRANCH   1  16
ATOM     16  C   UNL     1       5.412   5.123  15.455  0.00  0.00    +0.000 C 
BRANCH  16  17
ATOM     17  O   UNL     1       6.449   4.238  14.997  0.00  0.00    +0.000 OA
BRANCH  17  18
ATOM     18  C   UNL     1       7.065   4.622  13.847  0.00  0.00    +0.000 C 
ATOM     19  C   UNL     1       6.570   3.823  12.681  0.00  0.00    +0.000 C 
ATOM     20  O   UNL     1       7.943   5.470  13.747  0.00  0.00    +0.000 OA
ENDBRANCH  17  18
ENDBRANCH  16  17
ENDBRANCH   1  16
BRANCH   1  21
ATOM     21  C   UNL     1       5.543   6.346  17.641  0.00  0.00    +0.000 C 
BRANCH  21  22
ATOM     22  O   UNL     1       6.638   6.965  16.929  0.00  0.00    +0.000 OA
BRANCH  22  23
ATOM     23  C   UNL     1       7.622   7.516  17.694  0.00  0.00    +0.000 C 
ATOM     24  C   UNL     1       8.071   6.550  18.750  0.00  0.00    +0.000 C 
ATOM     25  O   UNL     1       8.077   8.644  17.578  0.00  0.00    +0.000 OA
ENDBRANCH  22  23
ENDBRANCH  21  22
ENDBRANCH   1  21
TORSDOF 10
ENDMDL
MODEL 9
REMARK VINA RESULT:      -6.7      0.898      2.541
REMARK  Name = 
REMARK  15 active torsions:
REMARK  status: ('A' for Active; 'I' for Inactive)
REMARK    1  A    between atoms: C_1  and  O_2
REMARK    2  A    between atoms: O_2  and  C_3
REMARK    3  A    between atoms: N_7  and  C_8
REMARK    4  A    between atoms: C_9  and  C_10
REMARK    5  A    between atoms: C_10  and  C_11
REMARK    6  A    between atoms: C_11  and  O_12
REMARK    7  A    between atoms: C_11  and  C_13
REMARK    8  A    between atoms: C_11  and  C_18
REMARK    9  A    between atoms: C_13  and  O_14
REMARK   10  A    between atoms: O_14  and  C_15
REMARK   11  A    between atoms: C_15  and  C_16
REMARK   12  A    between atoms: C_18  and  O_19
REMARK   13  A    between atoms: O_19  and  C_20
REMARK   14  A    between atoms: C_20  and  C_21
REMARK   15  A    between atoms: C_23  and  C_24
REMARK                            x       y       z     vdW  Elec       q    Type
REMARK                         _______ _______ _______ _____ _____    ______ ____
ROOT
ATOM      1  C   UNL     1       5.351   4.914  16.733  0.00  0.00    +0.000 C 
ENDROOT
BRANCH   1   2
ATOM      2  O   UNL     1       5.744   6.179  16.174  0.00  0.00    +0.000 OA
ATOM      3  H   UNL     1       6.020   6.039  15.254  0.00  0.00    +0.000 HD
ENDBRANCH   1   2
BRANCH   1   4
ATOM      4  C   UNL     1       3.787   4.830  16.843  0.00  0.00    +0.000 C 
BRANCH   4  11
ATOM      5  C   UNL     1       2.113   3.661  20.122  0.00  0.00    +0.000 A 
ATOM      6  N   UNL     1       1.741   4.734  20.709  0.00  0.00    +0.000 NA
ATOM      7  C   UNL     1       2.005   5.913  20.097  0.00  0.00    +0.000 A 
ATOM      8  O   UNL     1       1.634   6.966  20.619  0.00  0.00    +0.000 OA
ATOM      9  N   UNL     1       2.683   5.912  18.859  0.00  0.00    +0.000 N 
ATOM     10  C   UNL     1       2.854   7.220  18.232  0.00  0.00    +0.000 C 
ATOM     11  C   UNL     1       3.111   4.720  18.230  0.00  0.00    +0.000 A 
ATOM     12  C   UNL     1       2.829   3.540  18.833  0.00  0.00    +0.000 A 
ATOM     13  C   UNL     1       3.101   2.142  18.367  0.00  0.00    +0.000 C 
BRANCH   5  15
ATOM     14  C   UNL     1       1.576   2.348  22.054  0.00  0.00    +0.000 C 
ATOM     15  O   UNL     1       1.860   2.436  20.652  0.00  0.00    +0.000 OA
ENDBRANCH   5  15
ENDBRANCH   4  11
ENDBRANCH   1   4
BRANCH   1  16
ATOM     16  C   UNL     1       6.001   4.795  18.123  0.00  0.00    +0.000 C 
BRANCH  16  17
ATOM     17  O   UNL     1       7.427   4.981  18.104  0.00  0.00    +0.000 OA
BRANCH  17  18
ATOM     18  C   UNL     1       7.919   5.744  19.116  0.00  0.00    +0.000 C 
ATOM     19  C   UNL     1       8.166   7.148  18.658  0.00  0.00    +0.000 C 
ATOM     20  O   UNL     1       8.181   5.359  20.249  0.00  0.00    +0.000 OA
ENDBRANCH  17  18
ENDBRANCH  16  17
ENDBRANCH   1  16
BRANCH   1  21
ATOM     21  C   UNL     1       5.902   3.779  15.831  0.00  0.00    +0.000 C 
BRANCH  21  22
ATOM     22  O   UNL     1       5.636   4.061  14.438  0.00  0.00    +0.000 OA
BRANCH  22  23
ATOM     23  C   UNL     1       6.712   4.404  13.675  0.00  0.00    +0.000 C 
ATOM     24  C   UNL     1       6.670   3.690  12.356  0.00  0.00    +0.000 C 
ATOM     25  O   UNL     1       7.613   5.161  14.002  0.00  0.00    +0.000 OA
ENDBRANCH  22  23
ENDBRANCH  21  22
ENDBRANCH   1  21
TORSDOF 10
ENDMDL
