MODEL 1
REMARK VINA RESULT:      -8.1      0.000      0.000
REMARK  Name = 
REMARK  7 active torsions:
REMARK  status: ('A' for Active; 'I' for Inactive)
REMARK    1  A    between atoms: C_1  and  O_2
REMARK    2  A    between atoms: O_2  and  C_3
REMARK    3  A    between atoms: C_8  and  N_9
REMARK    4  A    between atoms: N_12  and  C_13
REMARK    5  A    between atoms: C_16  and  C_17
REMARK    6  A    between atoms: C_17  and  C_19
REMARK    7  A    between atoms: C_20  and  C_21
REMARK                            x       y       z     vdW  Elec       q    Type
REMARK                         _______ _______ _______ _____ _____    ______ ____
ROOT
ATOM      1  C   UNL     1       1.638   7.499  20.351  0.00  0.00    +0.000 A 
ATOM      2  C   UNL     1       2.268   7.405  19.101  0.00  0.00    +0.000 A 
ATOM      3  C   UNL     1       2.724   6.182  18.590  0.00  0.00    +0.000 A 
ATOM      4  C   UNL     1       2.547   5.006  19.323  0.00  0.00    +0.000 A 
ATOM      5  C   UNL     1       1.933   5.074  20.574  0.00  0.00    +0.000 A 
ATOM      6  C   UNL     1       1.481   6.302  21.067  0.00  0.00    +0.000 A 
ENDROOT
BRANCH   1  10
ATOM      7  N   UNL     1      -0.518  10.732  21.899  0.00  0.00    +0.000 N 
ATOM      8  C   UNL     1      -0.586  10.332  20.480  0.00  0.00    +0.000 C 
ATOM      9  C   UNL     1       0.805   9.842  20.034  0.00  0.00    +0.000 C 
ATOM     10  N   UNL     1       1.226   8.702  20.876  0.00  0.00    +0.000 N 
ATOM     11  C   UNL     1       1.213   8.969  22.327  0.00  0.00    +0.000 C 
ATOM     12  C   UNL     1      -0.124   9.620  22.786  0.00  0.00    +0.000 C 
BRANCH   7  18
ATOM     13  C   UNL     1      -0.320  13.184  22.226  0.00  0.00    +0.000 A 
ATOM     14  C   UNL     1      -0.867  14.370  22.753  0.00  0.00    +0.000 A 
ATOM     15  C   UNL     1      -2.089  14.364  23.414  0.00  0.00    +0.000 A 
ATOM     16  C   UNL     1      -2.779  13.172  23.557  0.00  0.00    +0.000 A 
ATOM     17  C   UNL     1      -2.245  11.991  23.035  0.00  0.00    +0.000 A 
ATOM     18  C   UNL     1      -1.007  11.945  22.361  0.00  0.00    +0.000 A 
BRANCH  13  20
ATOM     19  C   UNL     1       1.043  13.691  20.341  0.00  0.00    +0.000 C 
ATOM     20  O   UNL     1       0.942  13.177  21.666  0.00  0.00    +0.000 OA
ENDBRANCH  13  20
ENDBRANCH   7  18
ENDBRANCH   1  10
BRANCH   4  21
ATOM     21  C   UNL     1       3.060   3.728  18.758  0.00  0.00    +0.000 C 
ATOM     22  O   UNL     1       2.940   2.682  19.386  0.00  0.00    +0.000 OA
BRANCH  21  23
ATOM     23  C   UNL     1       3.755   3.786  17.446  0.00  0.00    +0.000 C 
ATOM     24  C   UNL     1       5.006   4.260  17.367  0.00  0.00    +0.000 C 
BRANCH  24  25
ATOM     25  C   UNL     1       5.676   4.366  16.074  0.00  0.00    +0.000 A 
ATOM     26  C   UNL     1       6.866   5.094  15.964  0.00  0.00    +0.000 A 
ATOM     27  C   UNL     1       7.492   5.233  14.724  0.00  0.00    +0.000 A 
ATOM     28  C   UNL     1       6.927   4.647  13.594  0.00  0.00    +0.000 A 
ATOM     29 CL   UNL     1       7.695   4.826  12.065  0.00  0.00    +0.000 Cl
ATOM     30  C   UNL     1       5.741   3.921  13.693  0.00  0.00    +0.000 A 
ATOM     31  C   UNL     1       5.113   3.781  14.933  0.00  0.00    +0.000 A 
ENDBRANCH  24  25
ENDBRANCH  21  23
ENDBRANCH   4  21
TORSDOF 6
ENDMDL
MODEL 2
REMARK VINA RESULT:      -7.8      0.244      1.247
REMARK  Name = 
REMARK  7 active torsions:
REMARK  status: ('A' for Active; 'I' for Inactive)
REMARK    1  A    between atoms: C_1  and  O_2
REMARK    2  A    between atoms: O_2  and  C_3
REMARK    3  A    between atoms: C_8  and  N_9
REMARK    4  A    between atoms: N_12  and  C_13
REMARK    5  A    between atoms: C_16  and  C_17
REMARK    6  A    between atoms: C_17  and  C_19
REMARK    7  A    between atoms: C_20  and  C_21
REMARK                            x       y       z     vdW  Elec       q    Type
REMARK                         _______ _______ _______ _____ _____    ______ ____
ROOT
ATOM      1  C   UNL     1       1.653   7.643  20.303  0.00  0.00    +0.000 A 
ATOM      2  C   UNL     1       1.497   6.432  20.995  0.00  0.00    +0.000 A 
ATOM      3  C   UNL     1       1.871   5.203  20.434  0.00  0.00    +0.000 A 
ATOM      4  C   UNL     1       2.428   5.157  19.154  0.00  0.00    +0.000 A 
ATOM      5  C   UNL     1       2.584   6.346  18.440  0.00  0.00    +0.000 A 
ATOM      6  C   UNL     1       2.210   7.564  19.017  0.00  0.00    +0.000 A 
ENDROOT
BRANCH   1  10
ATOM      7  N   UNL     1      -0.467  10.869  21.914  0.00  0.00    +0.000 N 
ATOM      8  C   UNL     1      -0.597  10.451  20.505  0.00  0.00    +0.000 C 
ATOM      9  C   UNL     1       0.777   9.972  19.998  0.00  0.00    +0.000 C 
ATOM     10  N   UNL     1       1.251   8.847  20.833  0.00  0.00    +0.000 N 
ATOM     11  C   UNL     1       1.304   9.132  22.280  0.00  0.00    +0.000 C 
ATOM     12  C   UNL     1      -0.018   9.772  22.794  0.00  0.00    +0.000 C 
BRANCH   7  18
ATOM     13  C   UNL     1      -0.264  13.321  22.237  0.00  0.00    +0.000 A 
ATOM     14  C   UNL     1      -0.803  14.507  22.773  0.00  0.00    +0.000 A 
ATOM     15  C   UNL     1      -2.013  14.501  23.456  0.00  0.00    +0.000 A 
ATOM     16  C   UNL     1      -2.699  13.308  23.611  0.00  0.00    +0.000 A 
ATOM     17  C   UNL     1      -2.174  12.127  23.079  0.00  0.00    +0.000 A 
ATOM     18  C   UNL     1      -0.948  12.082  22.384  0.00  0.00    +0.000 A 
BRANCH  13  20
ATOM     19  C   UNL     1       1.114  14.032  20.429  0.00  0.00    +0.000 C 
ATOM     20  O   UNL     1       0.987  13.315  21.654  0.00  0.00    +0.000 OA
ENDBRANCH  13  20
ENDBRANCH   7  18
ENDBRANCH   1  10
BRANCH   4  21
ATOM     21  C   UNL     1       2.796   3.833  18.582  0.00  0.00    +0.000 C 
ATOM     22  O   UNL     1       2.499   2.800  19.173  0.00  0.00    +0.000 OA
BRANCH  21  23
ATOM     23  C   UNL     1       3.568   3.823  17.313  0.00  0.00    +0.000 C 
ATOM     24  C   UNL     1       4.670   4.576  17.189  0.00  0.00    +0.000 C 
BRANCH  24  25
ATOM     25  C   UNL     1       5.405   4.608  15.928  0.00  0.00    +0.000 A 
ATOM     26  C   UNL     1       4.922   3.902  14.821  0.00  0.00    +0.000 A 
ATOM     27  C   UNL     1       5.640   3.895  13.624  0.00  0.00    +0.000 A 
ATOM     28  C   UNL     1       6.843   4.594  13.535  0.00  0.00    +0.000 A 
ATOM     29 CL   UNL     1       7.731   4.578  12.061  0.00  0.00    +0.000 Cl
ATOM     30  C   UNL     1       7.333   5.299  14.632  0.00  0.00    +0.000 A 
ATOM     31  C   UNL     1       6.615   5.306  15.831  0.00  0.00    +0.000 A 
ENDBRANCH  24  25
ENDBRANCH  21  23
ENDBRANCH   4  21
TORSDOF 6
ENDMDL
MODEL 3
REMARK VINA RESULT:      -7.7      2.089      3.174
REMARK  Name = 
REMARK  7 active torsions:
REMARK  status: ('A' for Active; 'I' for Inactive)
REMARK    1  A    between atoms: C_1  and  O_2
REMARK    2  A    between atoms: O_2  and  C_3
REMARK    3  A    between atoms: C_8  and  N_9
REMARK    4  A    between atoms: N_12  and  C_13
REMARK    5  A    between atoms: C_16  and  C_17
REMARK    6  A    between atoms: C_17  and  C_19
REMARK    7  A    between atoms: C_20  and  C_21
REMARK                            x       y       z     vdW  Elec       q    Type
REMARK                         _______ _______ _______ _____ _____    ______ ____
ROOT
ATOM      1  C   UNL     1       1.119   9.425  19.574  0.00  0.00    +0.000 A 
ATOM      2  C   UNL     1       1.716   9.028  18.368  0.00  0.00    +0.000 A 
ATOM      3  C   UNL     1       2.375   7.799  18.236  0.00  0.00    +0.000 A 
ATOM      4  C   UNL     1       2.446   6.921  19.320  0.00  0.00    +0.000 A 
ATOM      5  C   UNL     1       1.870   7.296  20.534  0.00  0.00    +0.000 A 
ATOM      6  C   UNL     1       1.212   8.525  20.647  0.00  0.00    +0.000 A 
ENDROOT
BRANCH   1  10
ATOM      7  N   UNL     1      -0.059  13.433  19.361  0.00  0.00    +0.000 N 
ATOM      8  C   UNL     1       1.188  13.001  20.021  0.00  0.00    +0.000 C 
ATOM      9  C   UNL     1       0.940  11.649  20.718  0.00  0.00    +0.000 C 
ATOM     10  N   UNL     1       0.505  10.647  19.721  0.00  0.00    +0.000 N 
ATOM     11  C   UNL     1      -0.673  11.042  18.924  0.00  0.00    +0.000 C 
ATOM     12  C   UNL     1      -0.524  12.476  18.339  0.00  0.00    +0.000 C 
BRANCH   7  18
ATOM     13  C   UNL     1      -1.571  15.046  20.490  0.00  0.00    +0.000 A 
ATOM     14  C   UNL     1      -2.085  16.355  20.564  0.00  0.00    +0.000 A 
ATOM     15  C   UNL     1      -1.648  17.348  19.695  0.00  0.00    +0.000 A 
ATOM     16  C   UNL     1      -0.692  17.043  18.741  0.00  0.00    +0.000 A 
ATOM     17  C   UNL     1      -0.173  15.747  18.663  0.00  0.00    +0.000 A 
ATOM     18  C   UNL     1      -0.589  14.705  19.518  0.00  0.00    +0.000 A 
BRANCH  13  20
ATOM     19  C   UNL     1      -3.478  13.776  21.138  0.00  0.00    +0.000 C 
ATOM     20  O   UNL     1      -2.085  14.040  21.283  0.00  0.00    +0.000 OA
ENDBRANCH  13  20
ENDBRANCH   7  18
ENDBRANCH   1  10
BRANCH   4  21
ATOM     21  C   UNL     1       3.171   5.632  19.150  0.00  0.00    +0.000 C 
ATOM     22  O   UNL     1       3.349   4.891  20.111  0.00  0.00    +0.000 OA
BRANCH  21  23
ATOM     23  C   UNL     1       3.703   5.315  17.799  0.00  0.00    +0.000 C 
ATOM     24  C   UNL     1       5.024   5.215  17.602  0.00  0.00    +0.000 C 
BRANCH  24  25
ATOM     25  C   UNL     1       5.555   4.953  16.267  0.00  0.00    +0.000 A 
ATOM     26  C   UNL     1       4.741   4.356  15.298  0.00  0.00    +0.000 A 
ATOM     27  C   UNL     1       5.253   4.066  14.032  0.00  0.00    +0.000 A 
ATOM     28  C   UNL     1       6.580   4.370  13.737  0.00  0.00    +0.000 A 
ATOM     29 CL   UNL     1       7.212   4.004  12.179  0.00  0.00    +0.000 Cl
ATOM     30  C   UNL     1       7.400   4.963  14.696  0.00  0.00    +0.000 A 
ATOM     31  C   UNL     1       6.888   5.254  15.963  0.00  0.00    +0.000 A 
ENDBRANCH  24  25
ENDBRANCH  21  23
ENDBRANCH   4  21
TORSDOF 6
ENDMDL
MODEL 4
REMARK VINA RESULT:      -7.6      2.386      3.585
REMARK  Name = 
REMARK  7 active torsions:
REMARK  status: ('A' for Active; 'I' for Inactive)
REMARK    1  A    between atoms: C_1  and  O_2
REMARK    2  A    between atoms: O_2  and  C_3
REMARK    3  A    between atoms: C_8  and  N_9
REMARK    4  A    between atoms: N_12  and  C_13
REMARK    5  A    between atoms: C_16  and  C_17
REMARK    6  A    between atoms: C_17  and  C_19
REMARK    7  A    between atoms: C_20  and  C_21
REMARK                            x       y       z     vdW  Elec       q    Type
REMARK                         _______ _______ _______ _____ _____    ______ ____
ROOT
ATOM      1  C   UNL     1       0.663   9.973  20.039  0.00  0.00    +0.000 A 
ATOM      2  C   UNL     1       1.323   9.443  18.919  0.00  0.00    +0.000 A 
ATOM      3  C   UNL     1       1.870   8.153  18.922  0.00  0.00    +0.000 A 
ATOM      4  C   UNL     1       1.759   7.347  20.056  0.00  0.00    +0.000 A 
ATOM      5  C   UNL     1       1.117   7.853  21.187  0.00  0.00    +0.000 A 
ATOM      6  C   UNL     1       0.573   9.141  21.166  0.00  0.00    +0.000 A 
ENDROOT
BRANCH   1  10
ATOM      7  N   UNL     1      -0.200  14.010  19.366  0.00  0.00    +0.000 N 
ATOM      8  C   UNL     1       1.046  13.556  20.013  0.00  0.00    +0.000 C 
ATOM      9  C   UNL     1       0.733  12.329  20.891  0.00  0.00    +0.000 C 
ATOM     10  N   UNL     1       0.159  11.252  20.056  0.00  0.00    +0.000 N 
ATOM     11  C   UNL     1      -1.029  11.645  19.274  0.00  0.00    +0.000 C 
ATOM     12  C   UNL     1      -0.801  12.976  18.501  0.00  0.00    +0.000 C 
BRANCH   7  18
ATOM     13  C   UNL     1      -1.467  15.889  20.377  0.00  0.00    +0.000 A 
ATOM     14  C   UNL     1      -1.872  17.236  20.305  0.00  0.00    +0.000 A 
ATOM     15  C   UNL     1      -1.452  18.057  19.266  0.00  0.00    +0.000 A 
ATOM     16  C   UNL     1      -0.620  17.541  18.286  0.00  0.00    +0.000 A 
ATOM     17  C   UNL     1      -0.210  16.207  18.351  0.00  0.00    +0.000 A 
ATOM     18  C   UNL     1      -0.615  15.333  19.382  0.00  0.00    +0.000 A 
BRANCH  13  20
ATOM     19  C   UNL     1      -3.310  14.596  21.154  0.00  0.00    +0.000 C 
ATOM     20  O   UNL     1      -1.973  15.051  21.350  0.00  0.00    +0.000 OA
ENDBRANCH  13  20
ENDBRANCH   7  18
ENDBRANCH   1  10
BRANCH   4  21
ATOM     21  C   UNL     1       2.368   5.989  20.030  0.00  0.00    +0.000 C 
ATOM     22  O   UNL     1       2.406   5.308  21.050  0.00  0.00    +0.000 OA
BRANCH  21  23
ATOM     23  C   UNL     1       2.962   5.525  18.749  0.00  0.00    +0.000 C 
ATOM     24  C   UNL     1       4.271   5.687  18.517  0.00  0.00    +0.000 C 
BRANCH  24  25
ATOM     25  C   UNL     1       4.852   5.280  17.241  0.00  0.00    +0.000 A 
ATOM     26  C   UNL     1       5.048   6.228  16.230  0.00  0.00    +0.000 A 
ATOM     27  C   UNL     1       5.566   5.839  14.993  0.00  0.00    +0.000 A 
ATOM     28  C   UNL     1       5.884   4.501  14.766  0.00  0.00    +0.000 A 
ATOM     29 CL   UNL     1       6.513   4.022  13.238  0.00  0.00    +0.000 Cl
ATOM     30  C   UNL     1       5.690   3.550  15.765  0.00  0.00    +0.000 A 
ATOM     31  C   UNL     1       5.172   3.937  17.004  0.00  0.00    +0.000 A 
ENDBRANCH  24  25
ENDBRANCH  21  23
ENDBRANCH   4  21
TORSDOF 6
ENDMDL
MODEL 5
REMARK VINA RESULT:      -7.5      0.924      1.565
REMARK  Name = 
REMARK  7 active torsions:
REMARK  status: ('A' for Active; 'I' for Inactive)
REMARK    1  A    between atoms: C_1  and  O_2
REMARK    2  A    between atoms: O_2  and  C_3
REMARK    3  A    between atoms: C_8  and  N_9
REMARK    4  A    between atoms: N_12  and  C_13
REMARK    5  A    between atoms: C_16  and  C_17
REMARK    6  A    between atoms: C_17  and  C_19
REMARK    7  A    between atoms: C_20  and  C_21
REMARK                            x       y       z     vdW  Elec       q    Type
REMARK                         _______ _______ _______ _____ _____    ______ ____
ROOT
ATOM      1  C   UNL     1       1.123   7.966  20.476  0.00  0.00    +0.000 A 
ATOM      2  C   UNL     1       1.195   6.711  21.101  0.00  0.00    +0.000 A 
ATOM      3  C   UNL     1       2.022   5.688  20.617  0.00  0.00    +0.000 A 
ATOM      4  C   UNL     1       2.815   5.902  19.488  0.00  0.00    +0.000 A 
ATOM      5  C   UNL     1       2.753   7.137  18.841  0.00  0.00    +0.000 A 
ATOM      6  C   UNL     1       1.926   8.148  19.339  0.00  0.00    +0.000 A 
ENDROOT
BRANCH   1  10
ATOM      7  N   UNL     1      -0.607  11.309  22.298  0.00  0.00    +0.000 N 
ATOM      8  C   UNL     1      -0.206  10.106  23.053  0.00  0.00    +0.000 C 
ATOM      9  C   UNL     1      -0.477   8.862  22.186  0.00  0.00    +0.000 C 
ATOM     10  N   UNL     1       0.284   8.960  20.921  0.00  0.00    +0.000 N 
ATOM     11  C   UNL     1       0.037  10.193  20.148  0.00  0.00    +0.000 C 
ATOM     12  C   UNL     1       0.141  11.466  21.036  0.00  0.00    +0.000 C 
BRANCH   7  18
ATOM     13  C   UNL     1      -0.998  13.641  23.054  0.00  0.00    +0.000 A 
ATOM     14  C   UNL     1      -1.869  14.581  23.639  0.00  0.00    +0.000 A 
ATOM     15  C   UNL     1      -3.157  14.224  24.019  0.00  0.00    +0.000 A 
ATOM     16  C   UNL     1      -3.590  12.924  23.818  0.00  0.00    +0.000 A 
ATOM     17  C   UNL     1      -2.734  11.986  23.235  0.00  0.00    +0.000 A 
ATOM     18  C   UNL     1      -1.417  12.298  22.838  0.00  0.00    +0.000 A 
BRANCH  13  20
ATOM     19  C   UNL     1       0.514  15.151  22.002  0.00  0.00    +0.000 C 
ATOM     20  O   UNL     1       0.313  13.972  22.777  0.00  0.00    +0.000 OA
ENDBRANCH  13  20
ENDBRANCH   7  18
ENDBRANCH   1  10
BRANCH   4  21
ATOM     21  C   UNL     1       3.666   4.786  18.991  0.00  0.00    +0.000 C 
ATOM     22  O   UNL     1       3.928   3.836  19.721  0.00  0.00    +0.000 OA
BRANCH  21  23
ATOM     23  C   UNL     1       4.215   4.900  17.615  0.00  0.00    +0.000 C 
ATOM     24  C   UNL     1       5.209   4.093  17.219  0.00  0.00    +0.000 C 
BRANCH  24  25
ATOM     25  C   UNL     1       5.787   4.232  15.885  0.00  0.00    +0.000 A 
ATOM     26  C   UNL     1       6.928   5.021  15.699  0.00  0.00    +0.000 A 
ATOM     27  C   UNL     1       7.463   5.191  14.421  0.00  0.00    +0.000 A 
ATOM     28  C   UNL     1       6.856   4.575  13.329  0.00  0.00    +0.000 A 
ATOM     29 CL   UNL     1       7.511   4.793  11.753  0.00  0.00    +0.000 Cl
ATOM     30  C   UNL     1       5.718   3.790  13.504  0.00  0.00    +0.000 A 
ATOM     31  C   UNL     1       5.181   3.618  14.782  0.00  0.00    +0.000 A 
ENDBRANCH  24  25
ENDBRANCH  21  23
ENDBRANCH   4  21
TORSDOF 6
ENDMDL
MODEL 6
REMARK VINA RESULT:      -7.5      1.860      3.011
REMARK  Name = 
REMARK  7 active torsions:
REMARK  status: ('A' for Active; 'I' for Inactive)
REMARK    1  A    between atoms: C_1  and  O_2
REMARK    2  A    between atoms: O_2  and  C_3
REMARK    3  A    between atoms: C_8  and  N_9
REMARK    4  A    between atoms: N_12  and  C_13
REMARK    5  A    between atoms: C_16  and  C_17
REMARK    6  A    between atoms: C_17  and  C_19
REMARK    7  A    between atoms: C_20  and  C_21
REMARK                            x       y       z     vdW  Elec       q    Type
REMARK                         _______ _______ _______ _____ _____    ______ ____
ROOT
ATOM      1  C   UNL     1       1.143   9.240  19.816  0.00  0.00    +0.000 A 
ATOM      2  C   UNL     1       1.215   8.271  20.829  0.00  0.00    +0.000 A 
ATOM      3  C   UNL     1       1.821   7.025  20.623  0.00  0.00    +0.000 A 
ATOM      4  C   UNL     1       2.389   6.718  19.384  0.00  0.00    +0.000 A 
ATOM      5  C   UNL     1       2.322   7.659  18.356  0.00  0.00    +0.000 A 
ATOM      6  C   UNL     1       1.717   8.899  18.581  0.00  0.00    +0.000 A 
ENDROOT
BRANCH   1  10
ATOM      7  N   UNL     1      -0.137  13.219  19.667  0.00  0.00    +0.000 N 
ATOM      8  C   UNL     1       1.163  12.818  20.240  0.00  0.00    +0.000 C 
ATOM      9  C   UNL     1       0.995  11.466  20.959  0.00  0.00    +0.000 C 
ATOM     10  N   UNL     1       0.514  10.449  20.000  0.00  0.00    +0.000 N 
ATOM     11  C   UNL     1      -0.725  10.812  19.285  0.00  0.00    +0.000 C 
ATOM     12  C   UNL     1      -0.650  12.245  18.684  0.00  0.00    +0.000 C 
BRANCH   7  18
ATOM     13  C   UNL     1      -1.544  14.824  20.934  0.00  0.00    +0.000 A 
ATOM     14  C   UNL     1      -2.086  16.120  21.036  0.00  0.00    +0.000 A 
ATOM     15  C   UNL     1      -1.794  17.096  20.091  0.00  0.00    +0.000 A 
ATOM     16  C   UNL     1      -0.956  16.788  19.033  0.00  0.00    +0.000 A 
ATOM     17  C   UNL     1      -0.411  15.506  18.925  0.00  0.00    +0.000 A 
ATOM     18  C   UNL     1      -0.682  14.480  19.854  0.00  0.00    +0.000 A 
BRANCH  13  20
ATOM     19  C   UNL     1      -1.197  13.765  23.038  0.00  0.00    +0.000 C 
ATOM     20  O   UNL     1      -1.922  13.830  21.813  0.00  0.00    +0.000 OA
ENDBRANCH  13  20
ENDBRANCH   7  18
ENDBRANCH   1  10
BRANCH   4  21
ATOM     21  C   UNL     1       3.008   5.377  19.195  0.00  0.00    +0.000 C 
ATOM     22  O   UNL     1       3.070   4.587  20.131  0.00  0.00    +0.000 OA
BRANCH  21  23
ATOM     23  C   UNL     1       3.582   5.067  17.860  0.00  0.00    +0.000 C 
ATOM     24  C   UNL     1       4.905   5.145  17.661  0.00  0.00    +0.000 C 
BRANCH  24  25
ATOM     25  C   UNL     1       5.470   4.890  16.340  0.00  0.00    +0.000 A 
ATOM     26  C   UNL     1       4.678   4.308  15.343  0.00  0.00    +0.000 A 
ATOM     27  C   UNL     1       5.222   4.024  14.089  0.00  0.00    +0.000 A 
ATOM     28  C   UNL     1       6.560   4.319  13.833  0.00  0.00    +0.000 A 
ATOM     29 CL   UNL     1       7.232   3.962  12.290  0.00  0.00    +0.000 Cl
ATOM     30  C   UNL     1       7.357   4.897  14.819  0.00  0.00    +0.000 A 
ATOM     31  C   UNL     1       6.814   5.182  16.075  0.00  0.00    +0.000 A 
ENDBRANCH  24  25
ENDBRANCH  21  23
ENDBRANCH   4  21
TORSDOF 6
ENDMDL
MODEL 7
REMARK VINA RESULT:      -7.5      2.034      2.615
REMARK  Name = 
REMARK  7 active torsions:
REMARK  status: ('A' for Active; 'I' for Inactive)
REMARK    1  A    between atoms: C_1  and  O_2
REMARK    2  A    between atoms: O_2  and  C_3
REMARK    3  A    between atoms: C_8  and  N_9
REMARK    4  A    between atoms: N_12  and  C_13
REMARK    5  A    between atoms: C_16  and  C_17
REMARK    6  A    between atoms: C_17  and  C_19
REMARK    7  A    between atoms: C_20  and  C_21
REMARK                            x       y       z     vdW  Elec       q    Type
REMARK                         _______ _______ _______ _____ _____    ______ ____
ROOT
ATOM      1  C   UNL     1       1.107   9.228  19.824  0.00  0.00    +0.000 A 
ATOM      2  C   UNL     1       1.712   8.889  18.604  0.00  0.00    +0.000 A 
ATOM      3  C   UNL     1       2.359   7.660  18.413  0.00  0.00    +0.000 A 
ATOM      4  C   UNL     1       2.408   6.725  19.449  0.00  0.00    +0.000 A 
ATOM      5  C   UNL     1       1.822   7.041  20.675  0.00  0.00    +0.000 A 
ATOM      6  C   UNL     1       1.177   8.270  20.847  0.00  0.00    +0.000 A 
ENDROOT
BRANCH   1  10
ATOM      7  N   UNL     1      -1.540  12.378  20.577  0.00  0.00    +0.000 N 
ATOM      8  C   UNL     1      -1.562  11.598  19.325  0.00  0.00    +0.000 C 
ATOM      9  C   UNL     1      -0.116  11.230  18.941  0.00  0.00    +0.000 C 
ATOM     10  N   UNL     1       0.505  10.447  20.030  0.00  0.00    +0.000 N 
ATOM     11  C   UNL     1       0.471  11.098  21.354  0.00  0.00    +0.000 C 
ATOM     12  C   UNL     1      -0.949  11.631  21.703  0.00  0.00    +0.000 C 
BRANCH   7  18
ATOM     13  C   UNL     1      -3.576  13.681  21.140  0.00  0.00    +0.000 A 
ATOM     14  C   UNL     1      -4.206  14.937  21.234  0.00  0.00    +0.000 A 
ATOM     15  C   UNL     1      -3.523  16.107  20.928  0.00  0.00    +0.000 A 
ATOM     16  C   UNL     1      -2.200  16.036  20.524  0.00  0.00    +0.000 A 
ATOM     17  C   UNL     1      -1.565  14.794  20.431  0.00  0.00    +0.000 A 
ATOM     18  C   UNL     1      -2.218  13.579  20.725  0.00  0.00    +0.000 A 
BRANCH  13  20
ATOM     19  C   UNL     1      -5.625  12.504  20.845  0.00  0.00    +0.000 C 
ATOM     20  O   UNL     1      -4.289  12.517  21.341  0.00  0.00    +0.000 OA
ENDBRANCH  13  20
ENDBRANCH   7  18
ENDBRANCH   1  10
BRANCH   4  21
ATOM     21  C   UNL     1       3.120   5.438  19.217  0.00  0.00    +0.000 C 
ATOM     22  O   UNL     1       3.248   4.629  20.130  0.00  0.00    +0.000 OA
BRANCH  21  23
ATOM     23  C   UNL     1       3.699   5.206  17.868  0.00  0.00    +0.000 C 
ATOM     24  C   UNL     1       5.013   4.981  17.730  0.00  0.00    +0.000 C 
BRANCH  24  25
ATOM     25  C   UNL     1       5.596   4.802  16.404  0.00  0.00    +0.000 A 
ATOM     26  C   UNL     1       6.881   5.290  16.136  0.00  0.00    +0.000 A 
ATOM     27  C   UNL     1       7.430   5.158  14.859  0.00  0.00    +0.000 A 
ATOM     28  C   UNL     1       6.694   4.540  13.850  0.00  0.00    +0.000 A 
ATOM     29 CL   UNL     1       7.369   4.385  12.275  0.00  0.00    +0.000 Cl
ATOM     30  C   UNL     1       5.414   4.053  14.106  0.00  0.00    +0.000 A 
ATOM     31  C   UNL     1       4.863   4.184  15.384  0.00  0.00    +0.000 A 
ENDBRANCH  24  25
ENDBRANCH  21  23
ENDBRANCH   4  21
TORSDOF 6
ENDMDL
MODEL 8
REMARK VINA RESULT:      -7.5      2.176      2.904
REMARK  Name = 
REMARK  7 active torsions:
REMARK  status: ('A' for Active; 'I' for Inactive)
REMARK    1  A    between atoms: C_1  and  O_2
REMARK    2  A    between atoms: O_2  and  C_3
REMARK    3  A    between atoms: C_8  and  N_9
REMARK    4  A    between atoms: N_12  and  C_13
REMARK    5  A    between atoms: C_16  and  C_17
REMARK    6  A    between atoms: C_17  and  C_19
REMARK    7  A    between atoms: C_20  and  C_21
REMARK                            x       y       z     vdW  Elec       q    Type
REMARK                         _______ _______ _______ _____ _____    ______ ____
ROOT
ATOM      1  C   UNL     1       1.064   9.502  19.556  0.00  0.00    +0.000 A 
ATOM      2  C   UNL     1       1.681   9.140  18.349  0.00  0.00    +0.000 A 
ATOM      3  C   UNL     1       2.367   7.928  18.200  0.00  0.00    +0.000 A 
ATOM      4  C   UNL     1       2.446   7.031  19.268  0.00  0.00    +0.000 A 
ATOM      5  C   UNL     1       1.850   7.371  20.483  0.00  0.00    +0.000 A 
ATOM      6  C   UNL     1       1.166   8.583  20.613  0.00  0.00    +0.000 A 
ENDROOT
BRANCH   1  10
ATOM      7  N   UNL     1      -0.102  13.519  19.543  0.00  0.00    +0.000 N 
ATOM      8  C   UNL     1       1.029  13.018  20.347  0.00  0.00    +0.000 C 
ATOM      9  C   UNL     1       0.688  11.608  20.864  0.00  0.00    +0.000 C 
ATOM     10  N   UNL     1       0.424  10.708  19.721  0.00  0.00    +0.000 N 
ATOM     11  C   UNL     1      -0.618  11.183  18.789  0.00  0.00    +0.000 C 
ATOM     12  C   UNL     1      -0.392  12.666  18.374  0.00  0.00    +0.000 C 
BRANCH   7  18
ATOM     13  C   UNL     1      -0.124  15.976  19.195  0.00  0.00    +0.000 A 
ATOM     14  C   UNL     1      -0.732  17.218  19.463  0.00  0.00    +0.000 A 
ATOM     15  C   UNL     1      -1.870  17.304  20.256  0.00  0.00    +0.000 A 
ATOM     16  C   UNL     1      -2.414  16.148  20.791  0.00  0.00    +0.000 A 
ATOM     17  C   UNL     1      -1.820  14.911  20.528  0.00  0.00    +0.000 A 
ATOM     18  C   UNL     1      -0.662  14.773  19.734  0.00  0.00    +0.000 A 
BRANCH  13  20
ATOM     19  C   UNL     1       1.631  17.154  18.098  0.00  0.00    +0.000 C 
ATOM     20  O   UNL     1       1.064  15.908  18.497  0.00  0.00    +0.000 OA
ENDBRANCH  13  20
ENDBRANCH   7  18
ENDBRANCH   1  10
BRANCH   4  21
ATOM     21  C   UNL     1       3.199   5.760  19.080  0.00  0.00    +0.000 C 
ATOM     22  O   UNL     1       3.375   5.000  20.026  0.00  0.00    +0.000 OA
BRANCH  21  23
ATOM     23  C   UNL     1       3.760   5.486  17.732  0.00  0.00    +0.000 C 
ATOM     24  C   UNL     1       5.022   5.057  17.603  0.00  0.00    +0.000 C 
BRANCH  24  25
ATOM     25  C   UNL     1       5.595   4.832  16.279  0.00  0.00    +0.000 A 
ATOM     26  C   UNL     1       6.890   5.282  15.995  0.00  0.00    +0.000 A 
ATOM     27  C   UNL     1       7.430   5.107  14.719  0.00  0.00    +0.000 A 
ATOM     28  C   UNL     1       6.675   4.485  13.727  0.00  0.00    +0.000 A 
ATOM     29 CL   UNL     1       7.338   4.277  12.154  0.00  0.00    +0.000 Cl
ATOM     30  C   UNL     1       5.384   4.036  14.000  0.00  0.00    +0.000 A 
ATOM     31  C   UNL     1       4.842   4.210  15.276  0.00  0.00    +0.000 A 
ENDBRANCH  24  25
ENDBRANCH  21  23
ENDBRANCH   4  21
TORSDOF 6
ENDMDL
MODEL 9
REMARK VINA RESULT:      -7.4      1.623      1.976
REMARK  Name = 
REMARK  7 active torsions:
REMARK  status: ('A' for Active; 'I' for Inactive)
REMARK    1  A    between atoms: C_1  and  O_2
REMARK    2  A    between atoms: O_2  and  C_3
REMARK    3  A    between atoms: C_8  and  N_9
REMARK    4  A    between atoms: N_12  and  C_13
REMARK    5  A    between atoms: C_16  and  C_17
REMARK    6  A    between atoms: C_17  and  C_19
REMARK    7  A    between atoms: C_20  and  C_21
REMARK                            x       y       z     vdW  Elec       q    Type
REMARK                         _______ _______ _______ _____ _____    ______ ____
ROOT
ATOM      1  C   UNL     1       1.245   8.942  19.774  0.00  0.00    +0.000 A 
ATOM      2  C   UNL     1       1.866   8.665  18.546  0.00  0.00    +0.000 A 
ATOM      3  C   UNL     1       2.515   7.448  18.301  0.00  0.00    +0.000 A 
ATOM      4  C   UNL     1       2.550   6.460  19.287  0.00  0.00    +0.000 A 
ATOM      5  C   UNL     1       1.949   6.713  20.521  0.00  0.00    +0.000 A 
ATOM      6  C   UNL     1       1.302   7.932  20.748  0.00  0.00    +0.000 A 
ENDROOT
BRANCH   1  10
ATOM      7  N   UNL     1      -1.410  12.052  20.654  0.00  0.00    +0.000 N 
ATOM      8  C   UNL     1      -1.416  11.337  19.362  0.00  0.00    +0.000 C 
ATOM      9  C   UNL     1       0.035  10.989  18.980  0.00  0.00    +0.000 C 
ATOM     10  N   UNL     1       0.641  10.149  20.036  0.00  0.00    +0.000 N 
ATOM     11  C   UNL     1       0.589  10.731  21.391  0.00  0.00    +0.000 C 
ATOM     12  C   UNL     1      -0.836  11.246  21.748  0.00  0.00    +0.000 C 
BRANCH   7  18
ATOM     13  C   UNL     1      -1.634  14.510  20.392  0.00  0.00    +0.000 A 
ATOM     14  C   UNL     1      -2.366  15.682  20.666  0.00  0.00    +0.000 A 
ATOM     15  C   UNL     1      -3.551  15.634  21.391  0.00  0.00    +0.000 A 
ATOM     16  C   UNL     1      -4.018  14.414  21.850  0.00  0.00    +0.000 A 
ATOM     17  C   UNL     1      -3.301  13.246  21.580  0.00  0.00    +0.000 A 
ATOM     18  C   UNL     1      -2.091  13.244  20.855  0.00  0.00    +0.000 A 
BRANCH  13  20
ATOM     19  C   UNL     1      -0.127  15.778  19.054  0.00  0.00    +0.000 C 
ATOM     20  O   UNL     1      -0.406  14.575  19.767  0.00  0.00    +0.000 OA
ENDBRANCH  13  20
ENDBRANCH   7  18
ENDBRANCH   1  10
BRANCH   4  21
ATOM     21  C   UNL     1       3.264   5.186  18.998  0.00  0.00    +0.000 C 
ATOM     22  O   UNL     1       3.435   4.357  19.886  0.00  0.00    +0.000 OA
BRANCH  21  23
ATOM     23  C   UNL     1       3.795   4.992  17.624  0.00  0.00    +0.000 C 
ATOM     24  C   UNL     1       5.115   4.885  17.421  0.00  0.00    +0.000 C 
BRANCH  24  25
ATOM     25  C   UNL     1       5.646   4.743  16.069  0.00  0.00    +0.000 A 
ATOM     26  C   UNL     1       4.849   4.187  15.062  0.00  0.00    +0.000 A 
ATOM     27  C   UNL     1       5.363   4.011  13.775  0.00  0.00    +0.000 A 
ATOM     28  C   UNL     1       6.675   4.390  13.497  0.00  0.00    +0.000 A 
ATOM     29 CL   UNL     1       7.310   4.166  11.914  0.00  0.00    +0.000 Cl
ATOM     30  C   UNL     1       7.477   4.944  14.493  0.00  0.00    +0.000 A 
ATOM     31  C   UNL     1       6.963   5.120  15.781  0.00  0.00    +0.000 A 
ENDBRANCH  24  25
ENDBRANCH  21  23
ENDBRANCH   4  21
TORSDOF 6
ENDMDL
