MODEL 1
REMARK VINA RESULT:      -8.4      0.000      0.000
REMARK  Name = 
REMARK  9 active torsions:
REMARK  status: ('A' for Active; 'I' for Inactive)
REMARK    1  A    between atoms: C_1  and  C_2
REMARK    2  A    between atoms: C_7  and  S_8
REMARK    3  A    between atoms: S_8  and  O_11
REMARK    4  A    between atoms: O_11  and  C_12
REMARK    5  A    between atoms: C_15  and  C_16
REMARK    6  A    between atoms: N_18  and  N_19
REMARK    7  A    between atoms: C_20  and  C_21
REMARK    8  A    between atoms: C_24  and  C_25
REMARK    9  A    between atoms: C_25  and  O_27
REMARK                            x       y       z     vdW  Elec       q    Type
REMARK                         _______ _______ _______ _____ _____    ______ ____
ROOT
ATOM      1  C   UNL     1       1.407   9.987  18.996  0.00  0.00    +0.000 A 
ATOM      2  C   UNL     1       1.109   9.323  20.185  0.00  0.00    +0.000 A 
ATOM      3  C   UNL     1       1.435   7.984  20.333  0.00  0.00    +0.000 A 
ATOM      4  C   UNL     1       2.005   7.270  19.275  0.00  0.00    +0.000 A 
ATOM      5  C   UNL     1       2.158   7.901  18.035  0.00  0.00    +0.000 A 
ATOM      6  C   UNL     1       1.863   9.263  17.897  0.00  0.00    +0.000 A 
ENDROOT
BRANCH   4   7
ATOM      7  C   UNL     1       2.418   5.842  19.456  0.00  0.00    +0.000 C 
ATOM      8  O   UNL     1       1.605   4.953  19.245  0.00  0.00    +0.000 OA
ATOM      9  N   UNL     1       3.722   5.670  19.878  0.00  0.00    +0.000 N 
ATOM     10  H   UNL     1       4.372   6.448  19.862  0.00  0.00    +0.000 HD
BRANCH   9  11
ATOM     11  N   UNL     1       4.193   4.454  20.280  0.00  0.00    +0.000 NA
ATOM     12  C   UNL     1       4.874   3.741  19.427  0.00  0.00    +0.000 C 
BRANCH  12  13
ATOM     13  C   UNL     1       5.384   4.147  18.095  0.00  0.00    +0.000 A 
ATOM     14  C   UNL     1       4.623   3.933  16.943  0.00  0.00    +0.000 A 
ATOM     15  C   UNL     1       5.175   4.153  15.683  0.00  0.00    +0.000 A 
ATOM     16  C   UNL     1       6.467   4.674  15.567  0.00  0.00    +0.000 A 
ATOM     17  C   UNL     1       7.168   5.043  16.725  0.00  0.00    +0.000 A 
ATOM     18  C   UNL     1       6.631   4.766  17.992  0.00  0.00    +0.000 A 
BRANCH  16  19
ATOM     19  C   UNL     1       7.021   4.839  14.197  0.00  0.00    +0.000 C 
ATOM     20  O   UNL     1       7.919   5.623  13.942  0.00  0.00    +0.000 OA
BRANCH  19  21
ATOM     21  O   UNL     1       6.401   4.100  13.256  0.00  0.00    +0.000 OA
ATOM     22  H   UNL     1       6.976   3.713  12.571  0.00  0.00    +0.000 HD
ENDBRANCH  19  21
ENDBRANCH  16  19
ENDBRANCH  12  13
ENDBRANCH   9  11
ENDBRANCH   4   7
BRANCH   1  23
ATOM     23  O   UNL     1       1.352  11.357  18.881  0.00  0.00    +0.000 OA
BRANCH  23  24
ATOM     24  S   UNL     1      -0.118  12.069  18.919  0.00  0.00    +0.000 S 
ATOM     25  O   UNL     1      -1.122  11.069  18.592  0.00  0.00    +0.000 OA
ATOM     26  O   UNL     1      -0.033  13.302  18.158  0.00  0.00    +0.000 OA
BRANCH  24  33
ATOM     27  C   UNL     1       1.592  13.989  21.005  0.00  0.00    +0.000 C 
ATOM     28  C   UNL     1       0.227  13.479  21.366  0.00  0.00    +0.000 A 
ATOM     29  C   UNL     1      -0.365  13.936  22.565  0.00  0.00    +0.000 A 
ATOM     30  C   UNL     1      -1.605  13.445  22.926  0.00  0.00    +0.000 A 
ATOM     31  C   UNL     1      -2.244  12.479  22.191  0.00  0.00    +0.000 A 
ATOM     32  C   UNL     1      -1.718  12.010  21.022  0.00  0.00    +0.000 A 
ATOM     33  C   UNL     1      -0.506  12.563  20.575  0.00  0.00    +0.000 A 
ATOM     34  O   UNL     1      -3.445  12.122  22.710  0.00  0.00    +0.000 OA
ATOM     35  C   UNL     1      -3.603  13.166  23.688  0.00  0.00    +0.000 C 
ATOM     36  O   UNL     1      -2.361  13.843  23.988  0.00  0.00    +0.000 OA
ENDBRANCH  24  33
ENDBRANCH  23  24
ENDBRANCH   1  23
TORSDOF 8
ENDMDL
MODEL 2
REMARK VINA RESULT:      -8.3      2.328      3.827
REMARK  Name = 
REMARK  9 active torsions:
REMARK  status: ('A' for Active; 'I' for Inactive)
REMARK    1  A    between atoms: C_1  and  C_2
REMARK    2  A    between atoms: C_7  and  S_8
REMARK    3  A    between atoms: S_8  and  O_11
REMARK    4  A    between atoms: O_11  and  C_12
REMARK    5  A    between atoms: C_15  and  C_16
REMARK    6  A    between atoms: N_18  and  N_19
REMARK    7  A    between atoms: C_20  and  C_21
REMARK    8  A    between atoms: C_24  and  C_25
REMARK    9  A    between atoms: C_25  and  O_27
REMARK                            x       y       z     vdW  Elec       q    Type
REMARK                         _______ _______ _______ _____ _____    ______ ____
ROOT
ATOM      1  C   UNL     1       1.341   9.979  19.051  0.00  0.00    +0.000 A 
ATOM      2  C   UNL     1       1.860   9.346  17.924  0.00  0.00    +0.000 A 
ATOM      3  C   UNL     1       2.214   8.007  17.981  0.00  0.00    +0.000 A 
ATOM      4  C   UNL     1       2.115   7.296  19.180  0.00  0.00    +0.000 A 
ATOM      5  C   UNL     1       1.741   7.977  20.344  0.00  0.00    +0.000 A 
ATOM      6  C   UNL     1       1.349   9.320  20.279  0.00  0.00    +0.000 A 
ENDROOT
BRANCH   4   7
ATOM      7  C   UNL     1       2.434   5.833  19.226  0.00  0.00    +0.000 C 
ATOM      8  O   UNL     1       1.680   5.040  18.679  0.00  0.00    +0.000 OA
ATOM      9  N   UNL     1       3.582   5.517  19.925  0.00  0.00    +0.000 N 
ATOM     10  H   UNL     1       4.233   6.245  20.195  0.00  0.00    +0.000 HD
BRANCH   9  11
ATOM     11  N   UNL     1       3.905   4.226  20.230  0.00  0.00    +0.000 NA
ATOM     12  C   UNL     1       4.550   3.523  19.341  0.00  0.00    +0.000 C 
BRANCH  12  13
ATOM     13  C   UNL     1       5.163   3.989  18.074  0.00  0.00    +0.000 A 
ATOM     14  C   UNL     1       4.495   3.830  16.857  0.00  0.00    +0.000 A 
ATOM     15  C   UNL     1       5.145   4.106  15.655  0.00  0.00    +0.000 A 
ATOM     16  C   UNL     1       6.441   4.627  15.666  0.00  0.00    +0.000 A 
ATOM     17  C   UNL     1       7.049   4.941  16.892  0.00  0.00    +0.000 A 
ATOM     18  C   UNL     1       6.414   4.608  18.098  0.00  0.00    +0.000 A 
BRANCH  16  19
ATOM     19  C   UNL     1       7.101   4.854  14.353  0.00  0.00    +0.000 C 
ATOM     20  O   UNL     1       8.023   5.639  14.208  0.00  0.00    +0.000 OA
BRANCH  19  21
ATOM     21  O   UNL     1       6.550   4.171  13.330  0.00  0.00    +0.000 OA
ATOM     22  H   UNL     1       6.186   3.294  13.552  0.00  0.00    +0.000 HD
ENDBRANCH  19  21
ENDBRANCH  16  19
ENDBRANCH  12  13
ENDBRANCH   9  11
ENDBRANCH   4   7
BRANCH   1  23
ATOM     23  O   UNL     1       0.734  11.212  18.992  0.00  0.00    +0.000 OA
BRANCH  23  24
ATOM     24  S   UNL     1      -0.678  11.410  19.790  0.00  0.00    +0.000 S 
ATOM     25  O   UNL     1      -0.786  12.801  20.198  0.00  0.00    +0.000 OA
ATOM     26  O   UNL     1      -0.786  10.345  20.771  0.00  0.00    +0.000 OA
BRANCH  24  33
ATOM     27  C   UNL     1      -3.798  12.500  19.997  0.00  0.00    +0.000 C 
ATOM     28  C   UNL     1      -3.316  11.759  18.783  0.00  0.00    +0.000 A 
ATOM     29  C   UNL     1      -4.188  11.641  17.678  0.00  0.00    +0.000 A 
ATOM     30  C   UNL     1      -3.770  10.929  16.569  0.00  0.00    +0.000 A 
ATOM     31  C   UNL     1      -2.563  10.278  16.541  0.00  0.00    +0.000 A 
ATOM     32  C   UNL     1      -1.682  10.365  17.579  0.00  0.00    +0.000 A 
ATOM     33  C   UNL     1      -2.036  11.165  18.679  0.00  0.00    +0.000 A 
ATOM     34  O   UNL     1      -2.335   9.629  15.371  0.00  0.00    +0.000 OA
ATOM     35  C   UNL     1      -3.406  10.177  14.581  0.00  0.00    +0.000 C 
ATOM     36  O   UNL     1      -4.435  10.797  15.388  0.00  0.00    +0.000 OA
ENDBRANCH  24  33
ENDBRANCH  23  24
ENDBRANCH   1  23
TORSDOF 8
ENDMDL
MODEL 3
REMARK VINA RESULT:      -8.3      2.445      3.390
REMARK  Name = 
REMARK  9 active torsions:
REMARK  status: ('A' for Active; 'I' for Inactive)
REMARK    1  A    between atoms: C_1  and  C_2
REMARK    2  A    between atoms: C_7  and  S_8
REMARK    3  A    between atoms: S_8  and  O_11
REMARK    4  A    between atoms: O_11  and  C_12
REMARK    5  A    between atoms: C_15  and  C_16
REMARK    6  A    between atoms: N_18  and  N_19
REMARK    7  A    between atoms: C_20  and  C_21
REMARK    8  A    between atoms: C_24  and  C_25
REMARK    9  A    between atoms: C_25  and  O_27
REMARK                            x       y       z     vdW  Elec       q    Type
REMARK                         _______ _______ _______ _____ _____    ______ ____
ROOT
ATOM      1  C   UNL     1       1.225   9.140  20.102  0.00  0.00    +0.000 A 
ATOM      2  C   UNL     1       2.034   8.746  19.038  0.00  0.00    +0.000 A 
ATOM      3  C   UNL     1       2.360   7.408  18.872  0.00  0.00    +0.000 A 
ATOM      4  C   UNL     1       1.937   6.453  19.801  0.00  0.00    +0.000 A 
ATOM      5  C   UNL     1       1.258   6.877  20.949  0.00  0.00    +0.000 A 
ATOM      6  C   UNL     1       0.897   8.223  21.098  0.00  0.00    +0.000 A 
ENDROOT
BRANCH   4   7
ATOM      7  C   UNL     1       2.232   5.000  19.587  0.00  0.00    +0.000 C 
ATOM      8  O   UNL     1       2.521   4.301  20.547  0.00  0.00    +0.000 OA
ATOM      9  N   UNL     1       2.162   4.589  18.270  0.00  0.00    +0.000 N 
ATOM     10  H   UNL     1       1.750   5.190  17.567  0.00  0.00    +0.000 HD
BRANCH   9  11
ATOM     11  N   UNL     1       2.594   3.354  17.881  0.00  0.00    +0.000 NA
ATOM     12  C   UNL     1       3.824   3.232  17.464  0.00  0.00    +0.000 C 
BRANCH  12  13
ATOM     13  C   UNL     1       4.914   4.235  17.521  0.00  0.00    +0.000 A 
ATOM     14  C   UNL     1       5.699   4.373  18.669  0.00  0.00    +0.000 A 
ATOM     15  C   UNL     1       6.601   5.429  18.784  0.00  0.00    +0.000 A 
ATOM     16  C   UNL     1       6.788   6.307  17.713  0.00  0.00    +0.000 A 
ATOM     17  C   UNL     1       6.120   6.070  16.501  0.00  0.00    +0.000 A 
ATOM     18  C   UNL     1       5.171   5.041  16.410  0.00  0.00    +0.000 A 
BRANCH  16  19
ATOM     19  C   UNL     1       7.726   7.443  17.913  0.00  0.00    +0.000 C 
ATOM     20  O   UNL     1       7.766   8.403  17.160  0.00  0.00    +0.000 OA
BRANCH  19  21
ATOM     21  O   UNL     1       8.569   7.290  18.953  0.00  0.00    +0.000 OA
ATOM     22  H   UNL     1       9.337   6.711  18.796  0.00  0.00    +0.000 HD
ENDBRANCH  19  21
ENDBRANCH  16  19
ENDBRANCH  12  13
ENDBRANCH   9  11
ENDBRANCH   4   7
BRANCH   1  23
ATOM     23  O   UNL     1       0.657  10.391  20.174  0.00  0.00    +0.000 OA
BRANCH  23  24
ATOM     24  S   UNL     1      -0.048  10.990  18.828  0.00  0.00    +0.000 S 
ATOM     25  O   UNL     1      -0.136   9.925  17.842  0.00  0.00    +0.000 OA
ATOM     26  O   UNL     1       0.612  12.241  18.501  0.00  0.00    +0.000 OA
BRANCH  24  33
ATOM     27  C   UNL     1      -1.323  12.652  21.392  0.00  0.00    +0.000 C 
ATOM     28  C   UNL     1      -2.185  12.233  20.236  0.00  0.00    +0.000 A 
ATOM     29  C   UNL     1      -3.529  12.668  20.208  0.00  0.00    +0.000 A 
ATOM     30  C   UNL     1      -4.342  12.257  19.168  0.00  0.00    +0.000 A 
ATOM     31  C   UNL     1      -3.901  11.386  18.205  0.00  0.00    +0.000 A 
ATOM     32  C   UNL     1      -2.611  10.941  18.184  0.00  0.00    +0.000 A 
ATOM     33  C   UNL     1      -1.731  11.421  19.170  0.00  0.00    +0.000 A 
ATOM     34  O   UNL     1      -4.846  11.096  17.276  0.00  0.00    +0.000 OA
ATOM     35  C   UNL     1      -5.827  12.093  17.613  0.00  0.00    +0.000 C 
ATOM     36  O   UNL     1      -5.623  12.653  18.931  0.00  0.00    +0.000 OA
ENDBRANCH  24  33
ENDBRANCH  23  24
ENDBRANCH   1  23
TORSDOF 8
ENDMDL
MODEL 4
REMARK VINA RESULT:      -8.2      1.047      2.027
REMARK  Name = 
REMARK  9 active torsions:
REMARK  status: ('A' for Active; 'I' for Inactive)
REMARK    1  A    between atoms: C_1  and  C_2
REMARK    2  A    between atoms: C_7  and  S_8
REMARK    3  A    between atoms: S_8  and  O_11
REMARK    4  A    between atoms: O_11  and  C_12
REMARK    5  A    between atoms: C_15  and  C_16
REMARK    6  A    between atoms: N_18  and  N_19
REMARK    7  A    between atoms: C_20  and  C_21
REMARK    8  A    between atoms: C_24  and  C_25
REMARK    9  A    between atoms: C_25  and  O_27
REMARK                            x       y       z     vdW  Elec       q    Type
REMARK                         _______ _______ _______ _____ _____    ______ ____
ROOT
ATOM      1  C   UNL     1       1.144  10.049  18.922  0.00  0.00    +0.000 A 
ATOM      2  C   UNL     1       1.753   9.253  17.954  0.00  0.00    +0.000 A 
ATOM      3  C   UNL     1       2.133   7.956  18.261  0.00  0.00    +0.000 A 
ATOM      4  C   UNL     1       1.969   7.454  19.555  0.00  0.00    +0.000 A 
ATOM      5  C   UNL     1       1.501   8.309  20.560  0.00  0.00    +0.000 A 
ATOM      6  C   UNL     1       1.083   9.608  20.242  0.00  0.00    +0.000 A 
ENDROOT
BRANCH   4   7
ATOM      7  C   UNL     1       2.318   6.032  19.870  0.00  0.00    +0.000 C 
ATOM      8  O   UNL     1       1.425   5.248  20.158  0.00  0.00    +0.000 OA
ATOM      9  N   UNL     1       3.668   5.747  19.818  0.00  0.00    +0.000 N 
ATOM     10  H   UNL     1       4.316   6.408  19.406  0.00  0.00    +0.000 HD
BRANCH   9  11
ATOM     11  N   UNL     1       4.169   4.559  20.269  0.00  0.00    +0.000 NA
ATOM     12  C   UNL     1       4.862   3.827  19.442  0.00  0.00    +0.000 C 
BRANCH  12  13
ATOM     13  C   UNL     1       5.356   4.188  18.092  0.00  0.00    +0.000 A 
ATOM     14  C   UNL     1       4.535   4.047  16.970  0.00  0.00    +0.000 A 
ATOM     15  C   UNL     1       5.056   4.218  15.689  0.00  0.00    +0.000 A 
ATOM     16  C   UNL     1       6.385   4.618  15.523  0.00  0.00    +0.000 A 
ATOM     17  C   UNL     1       7.160   4.920  16.653  0.00  0.00    +0.000 A 
ATOM     18  C   UNL     1       6.649   4.691  17.939  0.00  0.00    +0.000 A 
BRANCH  16  19
ATOM     19  C   UNL     1       6.898   4.736  14.132  0.00  0.00    +0.000 C 
ATOM     20  O   UNL     1       6.483   4.042  13.219  0.00  0.00    +0.000 OA
BRANCH  19  21
ATOM     21  O   UNL     1       7.902   5.622  13.985  0.00  0.00    +0.000 OA
ATOM     22  H   UNL     1       8.345   5.623  13.118  0.00  0.00    +0.000 HD
ENDBRANCH  19  21
ENDBRANCH  16  19
ENDBRANCH  12  13
ENDBRANCH   9  11
ENDBRANCH   4   7
BRANCH   1  23
ATOM     23  O   UNL     1       0.514  11.234  18.616  0.00  0.00    +0.000 OA
BRANCH  23  24
ATOM     24  S   UNL     1      -1.118  11.239  18.553  0.00  0.00    +0.000 S 
ATOM     25  O   UNL     1      -1.597   9.915  18.916  0.00  0.00    +0.000 OA
ATOM     26  O   UNL     1      -1.512  11.843  17.293  0.00  0.00    +0.000 OA
BRANCH  24  33
ATOM     27  C   UNL     1      -4.246  12.149  19.144  0.00  0.00    +0.000 C 
ATOM     28  C   UNL     1      -3.134  12.560  20.065  0.00  0.00    +0.000 A 
ATOM     29  C   UNL     1      -3.466  13.242  21.257  0.00  0.00    +0.000 A 
ATOM     30  C   UNL     1      -2.448  13.657  22.095  0.00  0.00    +0.000 A 
ATOM     31  C   UNL     1      -1.127  13.488  21.767  0.00  0.00    +0.000 A 
ATOM     32  C   UNL     1      -0.753  12.830  20.631  0.00  0.00    +0.000 A 
ATOM     33  C   UNL     1      -1.766  12.306  19.809  0.00  0.00    +0.000 A 
ATOM     34  O   UNL     1      -0.278  13.968  22.711  0.00  0.00    +0.000 OA
ATOM     35  C   UNL     1      -1.215  14.202  23.778  0.00  0.00    +0.000 C 
ATOM     36  O   UNL     1      -2.587  14.237  23.319  0.00  0.00    +0.000 OA
ENDBRANCH  24  33
ENDBRANCH  23  24
ENDBRANCH   1  23
TORSDOF 8
ENDMDL
MODEL 5
REMARK VINA RESULT:      -8.2      2.285      3.656
REMARK  Name = 
REMARK  9 active torsions:
REMARK  status: ('A' for Active; 'I' for Inactive)
REMARK    1  A    between atoms: C_1  and  C_2
REMARK    2  A    between atoms: C_7  and  S_8
REMARK    3  A    between atoms: S_8  and  O_11
REMARK    4  A    between atoms: O_11  and  C_12
REMARK    5  A    between atoms: C_15  and  C_16
REMARK    6  A    between atoms: N_18  and  N_19
REMARK    7  A    between atoms: C_20  and  C_21
REMARK    8  A    between atoms: C_24  and  C_25
REMARK    9  A    between atoms: C_25  and  O_27
REMARK                            x       y       z     vdW  Elec       q    Type
REMARK                         _______ _______ _______ _____ _____    ______ ____
ROOT
ATOM      1  C   UNL     1       1.532   9.279  19.281  0.00  0.00    +0.000 A 
ATOM      2  C   UNL     1       1.045   8.812  20.501  0.00  0.00    +0.000 A 
ATOM      3  C   UNL     1       1.186   7.474  20.838  0.00  0.00    +0.000 A 
ATOM      4  C   UNL     1       1.757   6.570  19.938  0.00  0.00    +0.000 A 
ATOM      5  C   UNL     1       2.101   7.015  18.656  0.00  0.00    +0.000 A 
ATOM      6  C   UNL     1       1.992   8.373  18.328  0.00  0.00    +0.000 A 
ENDROOT
BRANCH   4   7
ATOM      7  C   UNL     1       1.970   5.140  20.327  0.00  0.00    +0.000 C 
ATOM      8  O   UNL     1       2.425   4.883  21.433  0.00  0.00    +0.000 OA
ATOM      9  N   UNL     1       1.635   4.223  19.351  0.00  0.00    +0.000 N 
ATOM     10  H   UNL     1       1.107   4.512  18.535  0.00  0.00    +0.000 HD
BRANCH   9  11
ATOM     11  N   UNL     1       1.953   2.900  19.468  0.00  0.00    +0.000 NA
ATOM     12  C   UNL     1       3.074   2.486  18.947  0.00  0.00    +0.000 C 
BRANCH  12  13
ATOM     13  C   UNL     1       4.178   3.298  18.382  0.00  0.00    +0.000 A 
ATOM     14  C   UNL     1       5.126   3.894  19.216  0.00  0.00    +0.000 A 
ATOM     15  C   UNL     1       6.053   4.797  18.699  0.00  0.00    +0.000 A 
ATOM     16  C   UNL     1       6.094   5.045  17.324  0.00  0.00    +0.000 A 
ATOM     17  C   UNL     1       5.250   4.321  16.467  0.00  0.00    +0.000 A 
ATOM     18  C   UNL     1       4.281   3.457  16.998  0.00  0.00    +0.000 A 
BRANCH  16  19
ATOM     19  C   UNL     1       7.071   6.055  16.837  0.00  0.00    +0.000 C 
ATOM     20  O   UNL     1       7.501   6.056  15.696  0.00  0.00    +0.000 OA
BRANCH  19  21
ATOM     21  O   UNL     1       7.487   6.923  17.781  0.00  0.00    +0.000 OA
ATOM     22  H   UNL     1       7.394   6.625  18.704  0.00  0.00    +0.000 HD
ENDBRANCH  19  21
ENDBRANCH  16  19
ENDBRANCH  12  13
ENDBRANCH   9  11
ENDBRANCH   4   7
BRANCH   1  23
ATOM     23  O   UNL     1       1.659  10.620  19.001  0.00  0.00    +0.000 OA
BRANCH  23  24
ATOM     24  S   UNL     1       0.624  11.654  19.729  0.00  0.00    +0.000 S 
ATOM     25  O   UNL     1       0.980  13.009  19.341  0.00  0.00    +0.000 OA
ATOM     26  O   UNL     1       0.544  11.288  21.132  0.00  0.00    +0.000 OA
BRANCH  24  33
ATOM     27  C   UNL     1      -2.281  12.700  20.924  0.00  0.00    +0.000 C 
ATOM     28  C   UNL     1      -2.197  11.997  19.600  0.00  0.00    +0.000 A 
ATOM     29  C   UNL     1      -3.369  11.898  18.816  0.00  0.00    +0.000 A 
ATOM     30  C   UNL     1      -3.312  11.221  17.613  0.00  0.00    +0.000 A 
ATOM     31  C   UNL     1      -2.172  10.585  17.193  0.00  0.00    +0.000 A 
ATOM     32  C   UNL     1      -1.012  10.655  17.909  0.00  0.00    +0.000 A 
ATOM     33  C   UNL     1      -1.010  11.422  19.088  0.00  0.00    +0.000 A 
ATOM     34  O   UNL     1      -2.316   9.970  15.993  0.00  0.00    +0.000 OA
ATOM     35  C   UNL     1      -3.581  10.525  15.590  0.00  0.00    +0.000 C 
ATOM     36  O   UNL     1      -4.310  11.111  16.693  0.00  0.00    +0.000 OA
ENDBRANCH  24  33
ENDBRANCH  23  24
ENDBRANCH   1  23
TORSDOF 8
ENDMDL
MODEL 6
REMARK VINA RESULT:      -8.1      3.261     10.200
REMARK  Name = 
REMARK  9 active torsions:
REMARK  status: ('A' for Active; 'I' for Inactive)
REMARK    1  A    between atoms: C_1  and  C_2
REMARK    2  A    between atoms: C_7  and  S_8
REMARK    3  A    between atoms: S_8  and  O_11
REMARK    4  A    between atoms: O_11  and  C_12
REMARK    5  A    between atoms: C_15  and  C_16
REMARK    6  A    between atoms: N_18  and  N_19
REMARK    7  A    between atoms: C_20  and  C_21
REMARK    8  A    between atoms: C_24  and  C_25
REMARK    9  A    between atoms: C_25  and  O_27
REMARK                            x       y       z     vdW  Elec       q    Type
REMARK                         _______ _______ _______ _____ _____    ______ ____
ROOT
ATOM      1  C   UNL     1       2.441   5.720  19.169  0.00  0.00    +0.000 A 
ATOM      2  C   UNL     1       2.484   6.998  18.615  0.00  0.00    +0.000 A 
ATOM      3  C   UNL     1       2.058   8.090  19.355  0.00  0.00    +0.000 A 
ATOM      4  C   UNL     1       1.525   7.917  20.635  0.00  0.00    +0.000 A 
ATOM      5  C   UNL     1       1.340   6.618  21.124  0.00  0.00    +0.000 A 
ATOM      6  C   UNL     1       1.804   5.518  20.392  0.00  0.00    +0.000 A 
ENDROOT
BRANCH   4   7
ATOM      7  C   UNL     1       1.127   9.102  21.461  0.00  0.00    +0.000 C 
ATOM      8  O   UNL     1       0.699   8.925  22.593  0.00  0.00    +0.000 OA
ATOM      9  N   UNL     1       1.274  10.319  20.825  0.00  0.00    +0.000 N 
ATOM     10  H   UNL     1       1.794  10.385  19.958  0.00  0.00    +0.000 HD
BRANCH   9  11
ATOM     11  N   UNL     1       0.774  11.472  21.359  0.00  0.00    +0.000 NA
ATOM     12  C   UNL     1      -0.228  12.049  20.755  0.00  0.00    +0.000 C 
BRANCH  12  13
ATOM     13  C   UNL     1      -1.048  11.525  19.637  0.00  0.00    +0.000 A 
ATOM     14  C   UNL     1      -0.514  10.612  18.726  0.00  0.00    +0.000 A 
ATOM     15  C   UNL     1      -1.225  10.258  17.581  0.00  0.00    +0.000 A 
ATOM     16  C   UNL     1      -2.518  10.751  17.383  0.00  0.00    +0.000 A 
ATOM     17  C   UNL     1      -3.117  11.537  18.379  0.00  0.00    +0.000 A 
ATOM     18  C   UNL     1      -2.376  11.936  19.501  0.00  0.00    +0.000 A 
BRANCH  16  19
ATOM     19  C   UNL     1      -3.208  10.379  16.119  0.00  0.00    +0.000 C 
ATOM     20  O   UNL     1      -4.308  10.814  15.818  0.00  0.00    +0.000 OA
BRANCH  19  21
ATOM     21  O   UNL     1      -2.547   9.474  15.372  0.00  0.00    +0.000 OA
ATOM     22  H   UNL     1      -3.100   8.815  14.914  0.00  0.00    +0.000 HD
ENDBRANCH  19  21
ENDBRANCH  16  19
ENDBRANCH  12  13
ENDBRANCH   9  11
ENDBRANCH   4   7
BRANCH   1  23
ATOM     23  O   UNL     1       3.082   4.645  18.598  0.00  0.00    +0.000 OA
BRANCH  23  24
ATOM     24  S   UNL     1       4.688   4.487  18.854  0.00  0.00    +0.000 S 
ATOM     25  O   UNL     1       4.974   3.089  19.135  0.00  0.00    +0.000 OA
ATOM     26  O   UNL     1       5.092   5.522  19.788  0.00  0.00    +0.000 OA
BRANCH  24  33
ATOM     27  C   UNL     1       7.610   5.984  18.425  0.00  0.00    +0.000 C 
ATOM     28  C   UNL     1       6.874   5.378  17.266  0.00  0.00    +0.000 A 
ATOM     29  C   UNL     1       7.511   5.352  16.005  0.00  0.00    +0.000 A 
ATOM     30  C   UNL     1       6.829   4.830  14.922  0.00  0.00    +0.000 A 
ATOM     31  C   UNL     1       5.530   4.402  15.023  0.00  0.00    +0.000 A 
ATOM     32  C   UNL     1       4.872   4.400  16.218  0.00  0.00    +0.000 A 
ATOM     33  C   UNL     1       5.573   4.830  17.359  0.00  0.00    +0.000 A 
ATOM     34  O   UNL     1       5.032   3.931  13.853  0.00  0.00    +0.000 OA
ATOM     35  C   UNL     1       6.248   3.859  13.087  0.00  0.00    +0.000 C 
ATOM     36  O   UNL     1       7.320   4.639  13.666  0.00  0.00    +0.000 OA
ENDBRANCH  24  33
ENDBRANCH  23  24
ENDBRANCH   1  23
TORSDOF 8
ENDMDL
MODEL 7
REMARK VINA RESULT:      -8.1      2.538      3.788
REMARK  Name = 
REMARK  9 active torsions:
REMARK  status: ('A' for Active; 'I' for Inactive)
REMARK    1  A    between atoms: C_1  and  C_2
REMARK    2  A    between atoms: C_7  and  S_8
REMARK    3  A    between atoms: S_8  and  O_11
REMARK    4  A    between atoms: O_11  and  C_12
REMARK    5  A    between atoms: C_15  and  C_16
REMARK    6  A    between atoms: N_18  and  N_19
REMARK    7  A    between atoms: C_20  and  C_21
REMARK    8  A    between atoms: C_24  and  C_25
REMARK    9  A    between atoms: C_25  and  O_27
REMARK                            x       y       z     vdW  Elec       q    Type
REMARK                         _______ _______ _______ _____ _____    ______ ____
ROOT
ATOM      1  C   UNL     1       1.403   8.889  20.264  0.00  0.00    +0.000 A 
ATOM      2  C   UNL     1       0.917   7.910  21.130  0.00  0.00    +0.000 A 
ATOM      3  C   UNL     1       1.226   6.576  20.912  0.00  0.00    +0.000 A 
ATOM      4  C   UNL     1       1.970   6.192  19.793  0.00  0.00    +0.000 A 
ATOM      5  C   UNL     1       2.321   7.161  18.846  0.00  0.00    +0.000 A 
ATOM      6  C   UNL     1       2.041   8.513  19.084  0.00  0.00    +0.000 A 
ENDROOT
BRANCH   4   7
ATOM      7  C   UNL     1       2.360   4.760  19.593  0.00  0.00    +0.000 C 
ATOM      8  O   UNL     1       2.735   4.103  20.554  0.00  0.00    +0.000 OA
ATOM      9  N   UNL     1       2.269   4.316  18.288  0.00  0.00    +0.000 N 
ATOM     10  H   UNL     1       1.788   4.872  17.591  0.00  0.00    +0.000 HD
BRANCH   9  11
ATOM     11  N   UNL     1       2.773   3.107  17.904  0.00  0.00    +0.000 NA
ATOM     12  C   UNL     1       4.006   3.057  17.482  0.00  0.00    +0.000 C 
BRANCH  12  13
ATOM     13  C   UNL     1       5.034   4.125  17.527  0.00  0.00    +0.000 A 
ATOM     14  C   UNL     1       5.817   4.314  18.668  0.00  0.00    +0.000 A 
ATOM     15  C   UNL     1       6.654   5.423  18.773  0.00  0.00    +0.000 A 
ATOM     16  C   UNL     1       6.780   6.307  17.697  0.00  0.00    +0.000 A 
ATOM     17  C   UNL     1       6.119   6.025  16.492  0.00  0.00    +0.000 A 
ATOM     18  C   UNL     1       5.233   4.940  16.411  0.00  0.00    +0.000 A 
BRANCH  16  19
ATOM     19  C   UNL     1       7.649   7.499  17.886  0.00  0.00    +0.000 C 
ATOM     20  O   UNL     1       7.598   8.471  17.151  0.00  0.00    +0.000 OA
BRANCH  19  21
ATOM     21  O   UNL     1       8.537   7.383  18.893  0.00  0.00    +0.000 OA
ATOM     22  H   UNL     1       8.159   7.247  19.780  0.00  0.00    +0.000 HD
ENDBRANCH  19  21
ENDBRANCH  16  19
ENDBRANCH  12  13
ENDBRANCH   9  11
ENDBRANCH   4   7
BRANCH   1  23
ATOM     23  O   UNL     1       1.355  10.230  20.565  0.00  0.00    +0.000 OA
BRANCH  23  24
ATOM     24  S   UNL     1       1.028  11.275  19.353  0.00  0.00    +0.000 S 
ATOM     25  O   UNL     1       1.735  10.834  18.162  0.00  0.00    +0.000 OA
ATOM     26  O   UNL     1       1.217  12.621  19.865  0.00  0.00    +0.000 OA
BRANCH  24  33
ATOM     27  C   UNL     1      -1.636  12.363  20.992  0.00  0.00    +0.000 C 
ATOM     28  C   UNL     1      -1.762  11.764  19.621  0.00  0.00    +0.000 A 
ATOM     29  C   UNL     1      -3.028  11.785  18.993  0.00  0.00    +0.000 A 
ATOM     30  C   UNL     1      -3.164  11.204  17.746  0.00  0.00    +0.000 A 
ATOM     31  C   UNL     1      -2.125  10.549  17.135  0.00  0.00    +0.000 A 
ATOM     32  C   UNL     1      -0.882  10.505  17.696  0.00  0.00    +0.000 A 
ATOM     33  C   UNL     1      -0.686  11.175  18.917  0.00  0.00    +0.000 A 
ATOM     34  O   UNL     1      -2.456  10.039  15.922  0.00  0.00    +0.000 OA
ATOM     35  C   UNL     1      -3.728  10.686  15.730  0.00  0.00    +0.000 C 
ATOM     36  O   UNL     1      -4.276  11.216  16.959  0.00  0.00    +0.000 OA
ENDBRANCH  24  33
ENDBRANCH  23  24
ENDBRANCH   1  23
TORSDOF 8
ENDMDL
MODEL 8
REMARK VINA RESULT:      -8.1      2.351      3.614
REMARK  Name = 
REMARK  9 active torsions:
REMARK  status: ('A' for Active; 'I' for Inactive)
REMARK    1  A    between atoms: C_1  and  C_2
REMARK    2  A    between atoms: C_7  and  S_8
REMARK    3  A    between atoms: S_8  and  O_11
REMARK    4  A    between atoms: O_11  and  C_12
REMARK    5  A    between atoms: C_15  and  C_16
REMARK    6  A    between atoms: N_18  and  N_19
REMARK    7  A    between atoms: C_20  and  C_21
REMARK    8  A    between atoms: C_24  and  C_25
REMARK    9  A    between atoms: C_25  and  O_27
REMARK                            x       y       z     vdW  Elec       q    Type
REMARK                         _______ _______ _______ _____ _____    ______ ____
ROOT
ATOM      1  C   UNL     1       1.251   9.020  20.324  0.00  0.00    +0.000 A 
ATOM      2  C   UNL     1       0.513   8.263  21.232  0.00  0.00    +0.000 A 
ATOM      3  C   UNL     1       0.725   6.897  21.331  0.00  0.00    +0.000 A 
ATOM      4  C   UNL     1       1.632   6.255  20.483  0.00  0.00    +0.000 A 
ATOM      5  C   UNL     1       2.254   6.994  19.470  0.00  0.00    +0.000 A 
ATOM      6  C   UNL     1       2.067   8.380  19.394  0.00  0.00    +0.000 A 
ENDROOT
BRANCH   4   7
ATOM      7  C   UNL     1       1.910   4.791  20.635  0.00  0.00    +0.000 C 
ATOM      8  O   UNL     1       2.400   4.381  21.678  0.00  0.00    +0.000 OA
ATOM      9  N   UNL     1       1.589   4.027  19.530  0.00  0.00    +0.000 N 
ATOM     10  H   UNL     1       1.031   4.420  18.780  0.00  0.00    +0.000 HD
BRANCH   9  11
ATOM     11  N   UNL     1       1.962   2.718  19.429  0.00  0.00    +0.000 NA
ATOM     12  C   UNL     1       3.008   2.427  18.707  0.00  0.00    +0.000 C 
BRANCH  12  13
ATOM     13  C   UNL     1       3.993   3.358  18.104  0.00  0.00    +0.000 A 
ATOM     14  C   UNL     1       3.875   3.756  16.771  0.00  0.00    +0.000 A 
ATOM     15  C   UNL     1       4.894   4.486  16.160  0.00  0.00    +0.000 A 
ATOM     16  C   UNL     1       6.001   4.898  16.906  0.00  0.00    +0.000 A 
ATOM     17  C   UNL     1       6.039   4.639  18.285  0.00  0.00    +0.000 A 
ATOM     18  C   UNL     1       5.040   3.855  18.882  0.00  0.00    +0.000 A 
BRANCH  16  19
ATOM     19  C   UNL     1       7.078   5.630  16.189  0.00  0.00    +0.000 C 
ATOM     20  O   UNL     1       7.522   5.259  15.115  0.00  0.00    +0.000 OA
BRANCH  19  21
ATOM     21  O   UNL     1       7.565   6.694  16.857  0.00  0.00    +0.000 OA
ATOM     22  H   UNL     1       8.175   6.494  17.590  0.00  0.00    +0.000 HD
ENDBRANCH  19  21
ENDBRANCH  16  19
ENDBRANCH  12  13
ENDBRANCH   9  11
ENDBRANCH   4   7
BRANCH   1  23
ATOM     23  O   UNL     1       1.278  10.395  20.358  0.00  0.00    +0.000 OA
BRANCH  23  24
ATOM     24  S   UNL     1       0.950  11.201  18.975  0.00  0.00    +0.000 S 
ATOM     25  O   UNL     1       1.613  10.519  17.876  0.00  0.00    +0.000 OA
ATOM     26  O   UNL     1       1.191  12.613  19.217  0.00  0.00    +0.000 OA
BRANCH  24  33
ATOM     27  C   UNL     1      -1.664  12.344  20.656  0.00  0.00    +0.000 C 
ATOM     28  C   UNL     1      -1.833  11.690  19.315  0.00  0.00    +0.000 A 
ATOM     29  C   UNL     1      -3.118  11.680  18.729  0.00  0.00    +0.000 A 
ATOM     30  C   UNL     1      -3.292  11.047  17.512  0.00  0.00    +0.000 A 
ATOM     31  C   UNL     1      -2.271  10.372  16.894  0.00  0.00    +0.000 A 
ATOM     32  C   UNL     1      -1.010  10.357  17.415  0.00  0.00    +0.000 A 
ATOM     33  C   UNL     1      -0.777  11.076  18.600  0.00  0.00    +0.000 A 
ATOM     34  O   UNL     1      -2.639   9.812  15.715  0.00  0.00    +0.000 OA
ATOM     35  C   UNL     1      -3.919  10.445  15.538  0.00  0.00    +0.000 C 
ATOM     36  O   UNL     1      -4.429  11.024  16.762  0.00  0.00    +0.000 OA
ENDBRANCH  24  33
ENDBRANCH  23  24
ENDBRANCH   1  23
TORSDOF 8
ENDMDL
MODEL 9
REMARK VINA RESULT:      -8.1      3.452     10.183
REMARK  Name = 
REMARK  9 active torsions:
REMARK  status: ('A' for Active; 'I' for Inactive)
REMARK    1  A    between atoms: C_1  and  C_2
REMARK    2  A    between atoms: C_7  and  S_8
REMARK    3  A    between atoms: S_8  and  O_11
REMARK    4  A    between atoms: O_11  and  C_12
REMARK    5  A    between atoms: C_15  and  C_16
REMARK    6  A    between atoms: N_18  and  N_19
REMARK    7  A    between atoms: C_20  and  C_21
REMARK    8  A    between atoms: C_24  and  C_25
REMARK    9  A    between atoms: C_25  and  O_27
REMARK                            x       y       z     vdW  Elec       q    Type
REMARK                         _______ _______ _______ _____ _____    ______ ____
ROOT
ATOM      1  C   UNL     1       2.108   5.031  18.892  0.00  0.00    +0.000 A 
ATOM      2  C   UNL     1       2.395   6.275  18.332  0.00  0.00    +0.000 A 
ATOM      3  C   UNL     1       2.217   7.429  19.079  0.00  0.00    +0.000 A 
ATOM      4  C   UNL     1       1.692   7.365  20.373  0.00  0.00    +0.000 A 
ATOM      5  C   UNL     1       1.261   6.130  20.870  0.00  0.00    +0.000 A 
ATOM      6  C   UNL     1       1.474   4.960  20.130  0.00  0.00    +0.000 A 
ENDROOT
BRANCH   4   7
ATOM      7  C   UNL     1       1.563   8.605  21.204  0.00  0.00    +0.000 C 
ATOM      8  O   UNL     1       1.711   8.530  22.415  0.00  0.00    +0.000 OA
ATOM      9  N   UNL     1       1.259   9.746  20.489  0.00  0.00    +0.000 N 
ATOM     10  H   UNL     1       1.324   9.750  19.478  0.00  0.00    +0.000 HD
BRANCH   9  11
ATOM     11  N   UNL     1       0.912  10.912  21.110  0.00  0.00    +0.000 NA
ATOM     12  C   UNL     1       0.048  11.692  20.523  0.00  0.00    +0.000 C 
BRANCH  12  13
ATOM     13  C   UNL     1      -0.778  11.407  19.325  0.00  0.00    +0.000 A 
ATOM     14  C   UNL     1      -1.880  12.205  19.011  0.00  0.00    +0.000 A 
ATOM     15  C   UNL     1      -2.753  11.832  17.991  0.00  0.00    +0.000 A 
ATOM     16  C   UNL     1      -2.480  10.701  17.217  0.00  0.00    +0.000 A 
ATOM     17  C   UNL     1      -1.286   9.994  17.426  0.00  0.00    +0.000 A 
ATOM     18  C   UNL     1      -0.441  10.339  18.491  0.00  0.00    +0.000 A 
BRANCH  16  19
ATOM     19  C   UNL     1      -3.474  10.325  16.176  0.00  0.00    +0.000 C 
ATOM     20  O   UNL     1      -3.192   9.614  15.226  0.00  0.00    +0.000 OA
BRANCH  19  21
ATOM     21  O   UNL     1      -4.687  10.889  16.339  0.00  0.00    +0.000 OA
ATOM     22  H   UNL     1      -4.754  11.557  17.044  0.00  0.00    +0.000 HD
ENDBRANCH  19  21
ENDBRANCH  16  19
ENDBRANCH  12  13
ENDBRANCH   9  11
ENDBRANCH   4   7
BRANCH   1  23
ATOM     23  O   UNL     1       2.504   3.850  18.308  0.00  0.00    +0.000 OA
BRANCH  23  24
ATOM     24  S   UNL     1       4.039   3.350  18.557  0.00  0.00    +0.000 S 
ATOM     25  O   UNL     1       4.147   1.964  18.129  0.00  0.00    +0.000 OA
ATOM     26  O   UNL     1       4.418   3.734  19.905  0.00  0.00    +0.000 OA
BRANCH  24  33
ATOM     27  C   UNL     1       6.485   5.448  19.316  0.00  0.00    +0.000 C 
ATOM     28  C   UNL     1       6.238   5.030  17.895  0.00  0.00    +0.000 A 
ATOM     29  C   UNL     1       7.147   5.456  16.901  0.00  0.00    +0.000 A 
ATOM     30  C   UNL     1       6.910   5.108  15.585  0.00  0.00    +0.000 A 
ATOM     31  C   UNL     1       5.782   4.422  15.210  0.00  0.00    +0.000 A 
ATOM     32  C   UNL     1       4.876   3.983  16.131  0.00  0.00    +0.000 A 
ATOM     33  C   UNL     1       5.142   4.233  17.489  0.00  0.00    +0.000 A 
ATOM     34  O   UNL     1       5.724   4.182  13.876  0.00  0.00    +0.000 OA
ATOM     35  C   UNL     1       7.066   4.549  13.508  0.00  0.00    +0.000 C 
ATOM     36  O   UNL     1       7.724   5.347  14.520  0.00  0.00    +0.000 OA
ENDBRANCH  24  33
ENDBRANCH  23  24
ENDBRANCH   1  23
TORSDOF 8
ENDMDL
