MODEL 1
REMARK VINA RESULT:      -7.3      0.000      0.000
REMARK  Name = 
REMARK  7 active torsions:
REMARK  status: ('A' for Active; 'I' for Inactive)
REMARK    1  A    between atoms: N_1  and  C_2
REMARK    2  A    between atoms: N_10  and  C_11
REMARK    3  A    between atoms: C_13  and  C_14
REMARK    4  A    between atoms: N_16  and  C_17
REMARK    5  A    between atoms: C_17  and  C_18
REMARK    6  A    between atoms: C_20  and  O_21
REMARK    7  A    between atoms: C_22  and  O_23
REMARK                            x       y       z     vdW  Elec       q    Type
REMARK                         _______ _______ _______ _____ _____    ______ ____
ROOT
ATOM      1  C   UNL     1       5.838   5.807  19.074  0.00  0.00    +0.000 C 
ATOM      2  O   UNL     1       5.747   6.284  17.706  0.00  0.00    +0.000 OA
ATOM      3  C   UNL     1       7.069   6.297  17.136  0.00  0.00    +0.000 C 
ATOM      4  C   UNL     1       8.050   6.145  18.292  0.00  0.00    +0.000 C 
ATOM      5  C   UNL     1       7.269   5.308  19.294  0.00  0.00    +0.000 C 
ENDROOT
BRANCH   1  14
ATOM      6  C   UNL     1       1.561   3.773  20.064  0.00  0.00    +0.000 A 
ATOM      7  N   UNL     1       0.975   4.922  20.474  0.00  0.00    +0.000 NA
ATOM      8  C   UNL     1       1.716   6.052  20.471  0.00  0.00    +0.000 A 
ATOM      9  N   UNL     1       3.003   6.214  20.102  0.00  0.00    +0.000 NA
ATOM     10  C   UNL     1       3.546   5.040  19.739  0.00  0.00    +0.000 A 
ATOM     11  C   UNL     1       2.919   3.804  19.705  0.00  0.00    +0.000 A 
ATOM     12  N   UNL     1       3.796   2.821  19.301  0.00  0.00    +0.000 NA
ATOM     13  C   UNL     1       4.926   3.456  19.066  0.00  0.00    +0.000 A 
ATOM     14  N   UNL     1       4.820   4.800  19.299  0.00  0.00    +0.000 N 
BRANCH   6  15
ATOM     15  N   UNL     1       0.789   2.621  20.012  0.00  0.00    +0.000 N 
ATOM     16  H   UNL     1       1.113   1.954  19.325  0.00  0.00    +0.000 HD
ATOM     17  H   UNL     1      -0.208   2.787  20.094  0.00  0.00    +0.000 HD
ENDBRANCH   6  15
ENDBRANCH   1  14
BRANCH   3  18
ATOM     18  C   UNL     1       7.218   5.191  16.083  0.00  0.00    +0.000 C 
ATOM     19  O   UNL     1       7.708   4.092  16.327  0.00  0.00    +0.000 OA
ATOM     20  N   UNL     1       6.770   5.550  14.831  0.00  0.00    +0.000 N 
ATOM     21  H   UNL     1       6.162   6.360  14.752  0.00  0.00    +0.000 HD
BRANCH  20  22
ATOM     22  C   UNL     1       6.827   4.630  13.704  0.00  0.00    +0.000 C 
BRANCH  22  23
ATOM     23  C   UNL     1       5.568   3.781  13.553  0.00  0.00    +0.000 C 
ATOM     24 CL   UNL     1       5.532   2.993  11.952  0.00  0.00    +0.000 Cl
ENDBRANCH  22  23
ENDBRANCH  20  22
ENDBRANCH   3  18
BRANCH   4  25
ATOM     25  O   UNL     1       8.359   7.419  18.896  0.00  0.00    +0.000 OA
ATOM     26  H   UNL     1       8.503   7.300  19.852  0.00  0.00    +0.000 HD
ENDBRANCH   4  25
BRANCH   5  27
ATOM     27  O   UNL     1       7.745   5.527  20.620  0.00  0.00    +0.000 OA
ATOM     28  H   UNL     1       6.983   5.852  21.143  0.00  0.00    +0.000 HD
ENDBRANCH   5  27
TORSDOF 7
ENDMDL
MODEL 2
REMARK VINA RESULT:      -7.1      1.162      1.216
REMARK  Name = 
REMARK  7 active torsions:
REMARK  status: ('A' for Active; 'I' for Inactive)
REMARK    1  A    between atoms: N_1  and  C_2
REMARK    2  A    between atoms: N_10  and  C_11
REMARK    3  A    between atoms: C_13  and  C_14
REMARK    4  A    between atoms: N_16  and  C_17
REMARK    5  A    between atoms: C_17  and  C_18
REMARK    6  A    between atoms: C_20  and  O_21
REMARK    7  A    between atoms: C_22  and  O_23
REMARK                            x       y       z     vdW  Elec       q    Type
REMARK                         _______ _______ _______ _____ _____    ______ ____
ROOT
ATOM      1  C   UNL     1       5.145   5.633  18.065  0.00  0.00    +0.000 C 
ATOM      2  O   UNL     1       5.167   6.080  16.684  0.00  0.00    +0.000 OA
ATOM      3  C   UNL     1       6.534   6.127  16.238  0.00  0.00    +0.000 C 
ATOM      4  C   UNL     1       7.408   6.031  17.482  0.00  0.00    +0.000 C 
ATOM      5  C   UNL     1       6.565   5.188  18.427  0.00  0.00    +0.000 C 
ENDROOT
BRANCH   1  14
ATOM      6  C   UNL     1       1.173   3.296  19.539  0.00  0.00    +0.000 A 
ATOM      7  N   UNL     1       0.855   4.196  20.498  0.00  0.00    +0.000 NA
ATOM      8  C   UNL     1       1.672   5.259  20.673  0.00  0.00    +0.000 A 
ATOM      9  N   UNL     1       2.800   5.571  20.003  0.00  0.00    +0.000 NA
ATOM     10  C   UNL     1       3.089   4.630  19.090  0.00  0.00    +0.000 A 
ATOM     11  C   UNL     1       2.359   3.486  18.810  0.00  0.00    +0.000 A 
ATOM     12  N   UNL     1       2.972   2.742  17.824  0.00  0.00    +0.000 NA
ATOM     13  C   UNL     1       4.038   3.440  17.493  0.00  0.00    +0.000 A 
ATOM     14  N   UNL     1       4.144   4.597  18.217  0.00  0.00    +0.000 N 
BRANCH   6  15
ATOM     15  N   UNL     1       0.308   2.234  19.319  0.00  0.00    +0.000 N 
ATOM     16  H   UNL     1      -0.663   2.512  19.285  0.00  0.00    +0.000 HD
ATOM     17  H   UNL     1       0.553   1.389  19.823  0.00  0.00    +0.000 HD
ENDBRANCH   6  15
ENDBRANCH   1  14
BRANCH   3  18
ATOM     18  C   UNL     1       6.816   5.006  15.228  0.00  0.00    +0.000 C 
ATOM     19  O   UNL     1       7.947   4.607  14.965  0.00  0.00    +0.000 OA
ATOM     20  N   UNL     1       5.685   4.501  14.627  0.00  0.00    +0.000 N 
ATOM     21  H   UNL     1       4.785   4.692  15.059  0.00  0.00    +0.000 HD
BRANCH  20  22
ATOM     22  C   UNL     1       5.752   3.429  13.645  0.00  0.00    +0.000 C 
BRANCH  22  23
ATOM     23  C   UNL     1       5.663   3.923  12.204  0.00  0.00    +0.000 C 
ATOM     24 CL   UNL     1       4.218   3.250  11.400  0.00  0.00    +0.000 Cl
ENDBRANCH  22  23
ENDBRANCH  20  22
ENDBRANCH   3  18
BRANCH   4  25
ATOM     25  O   UNL     1       7.618   7.326  18.083  0.00  0.00    +0.000 OA
ATOM     26  H   UNL     1       7.609   7.240  19.054  0.00  0.00    +0.000 HD
ENDBRANCH   4  25
BRANCH   5  27
ATOM     27  O   UNL     1       6.908   5.448  19.786  0.00  0.00    +0.000 OA
ATOM     28  H   UNL     1       7.244   6.369  19.821  0.00  0.00    +0.000 HD
ENDBRANCH   5  27
TORSDOF 7
ENDMDL
MODEL 3
REMARK VINA RESULT:      -7.1      1.126      1.192
REMARK  Name = 
REMARK  7 active torsions:
REMARK  status: ('A' for Active; 'I' for Inactive)
REMARK    1  A    between atoms: N_1  and  C_2
REMARK    2  A    between atoms: N_10  and  C_11
REMARK    3  A    between atoms: C_13  and  C_14
REMARK    4  A    between atoms: N_16  and  C_17
REMARK    5  A    between atoms: C_17  and  C_18
REMARK    6  A    between atoms: C_20  and  O_21
REMARK    7  A    between atoms: C_22  and  O_23
REMARK                            x       y       z     vdW  Elec       q    Type
REMARK                         _______ _______ _______ _____ _____    ______ ____
ROOT
ATOM      1  C   UNL     1       5.483   5.839  18.222  0.00  0.00    +0.000 C 
ATOM      2  O   UNL     1       4.970   5.947  16.868  0.00  0.00    +0.000 OA
ATOM      3  C   UNL     1       6.082   5.935  15.954  0.00  0.00    +0.000 C 
ATOM      4  C   UNL     1       7.338   6.166  16.784  0.00  0.00    +0.000 C 
ATOM      5  C   UNL     1       6.981   5.541  18.125  0.00  0.00    +0.000 C 
ENDROOT
BRANCH   1  14
ATOM      6  C   UNL     1       1.901   3.699  20.672  0.00  0.00    +0.000 A 
ATOM      7  N   UNL     1       1.192   4.836  20.863  0.00  0.00    +0.000 NA
ATOM      8  C   UNL     1       1.697   5.992  20.378  0.00  0.00    +0.000 A 
ATOM      9  N   UNL     1       2.846   6.190  19.701  0.00  0.00    +0.000 NA
ATOM     10  C   UNL     1       3.526   5.038  19.570  0.00  0.00    +0.000 A 
ATOM     11  C   UNL     1       3.144   3.786  20.025  0.00  0.00    +0.000 A 
ATOM     12  N   UNL     1       4.105   2.843  19.727  0.00  0.00    +0.000 NA
ATOM     13  C   UNL     1       5.037   3.508  19.077  0.00  0.00    +0.000 A 
ATOM     14  N   UNL     1       4.726   4.834  18.941  0.00  0.00    +0.000 N 
BRANCH   6  15
ATOM     15  N   UNL     1       1.359   2.502  21.119  0.00  0.00    +0.000 N 
ATOM     16  H   UNL     1       0.949   1.949  20.379  0.00  0.00    +0.000 HD
ATOM     17  H   UNL     1       0.864   2.575  22.001  0.00  0.00    +0.000 HD
ENDBRANCH   6  15
ENDBRANCH   1  14
BRANCH   3  18
ATOM     18  C   UNL     1       6.126   4.617  15.169  0.00  0.00    +0.000 C 
ATOM     19  O   UNL     1       5.802   3.536  15.651  0.00  0.00    +0.000 OA
ATOM     20  N   UNL     1       6.583   4.754  13.877  0.00  0.00    +0.000 N 
ATOM     21  H   UNL     1       6.597   5.685  13.468  0.00  0.00    +0.000 HD
BRANCH  20  22
ATOM     22  C   UNL     1       6.690   3.615  12.977  0.00  0.00    +0.000 C 
BRANCH  22  23
ATOM     23  C   UNL     1       5.418   3.355  12.175  0.00  0.00    +0.000 C 
ATOM     24 CL   UNL     1       5.517   1.784  11.334  0.00  0.00    +0.000 Cl
ENDBRANCH  22  23
ENDBRANCH  20  22
ENDBRANCH   3  18
BRANCH   4  25
ATOM     25  O   UNL     1       7.590   7.572  16.984  0.00  0.00    +0.000 OA
ATOM     26  H   UNL     1       7.578   8.031  16.125  0.00  0.00    +0.000 HD
ENDBRANCH   4  25
BRANCH   5  27
ATOM     27  O   UNL     1       7.742   6.128  19.179  0.00  0.00    +0.000 OA
ATOM     28  H   UNL     1       8.666   6.192  18.858  0.00  0.00    +0.000 HD
ENDBRANCH   5  27
TORSDOF 7
ENDMDL
MODEL 4
REMARK VINA RESULT:      -7.1      2.955      4.432
REMARK  Name = 
REMARK  7 active torsions:
REMARK  status: ('A' for Active; 'I' for Inactive)
REMARK    1  A    between atoms: N_1  and  C_2
REMARK    2  A    between atoms: N_10  and  C_11
REMARK    3  A    between atoms: C_13  and  C_14
REMARK    4  A    between atoms: N_16  and  C_17
REMARK    5  A    between atoms: C_17  and  C_18
REMARK    6  A    between atoms: C_20  and  O_21
REMARK    7  A    between atoms: C_22  and  O_23
REMARK                            x       y       z     vdW  Elec       q    Type
REMARK                         _______ _______ _______ _____ _____    ______ ____
ROOT
ATOM      1  C   UNL     1       3.119   5.710  19.432  0.00  0.00    +0.000 C 
ATOM      2  O   UNL     1       4.562   5.763  19.578  0.00  0.00    +0.000 OA
ATOM      3  C   UNL     1       5.125   4.563  19.019  0.00  0.00    +0.000 C 
ATOM      4  C   UNL     1       3.973   3.584  18.825  0.00  0.00    +0.000 C 
ATOM      5  C   UNL     1       2.790   4.500  18.554  0.00  0.00    +0.000 C 
ENDROOT
BRANCH   1  14
ATOM      6  C   UNL     1       1.081  10.092  19.197  0.00  0.00    +0.000 A 
ATOM      7  N   UNL     1       0.535  10.036  20.435  0.00  0.00    +0.000 NA
ATOM      8  C   UNL     1       0.725   8.915  21.165  0.00  0.00    +0.000 A 
ATOM      9  N   UNL     1       1.407   7.800  20.834  0.00  0.00    +0.000 NA
ATOM     10  C   UNL     1       1.897   7.894  19.586  0.00  0.00    +0.000 A 
ATOM     11  C   UNL     1       1.771   8.967  18.718  0.00  0.00    +0.000 A 
ATOM     12  N   UNL     1       2.384   8.696  17.513  0.00  0.00    +0.000 NA
ATOM     13  C   UNL     1       2.897   7.493  17.662  0.00  0.00    +0.000 A 
ATOM     14  N   UNL     1       2.645   6.973  18.902  0.00  0.00    +0.000 N 
BRANCH   6  15
ATOM     15  N   UNL     1       0.936  11.262  18.466  0.00  0.00    +0.000 N 
ATOM     16  H   UNL     1       0.186  11.852  18.801  0.00  0.00    +0.000 HD
ATOM     17  H   UNL     1       1.048  11.143  17.465  0.00  0.00    +0.000 HD
ENDBRANCH   6  15
ENDBRANCH   1  14
BRANCH   3  18
ATOM     18  C   UNL     1       5.869   4.868  17.712  0.00  0.00    +0.000 C 
ATOM     19  O   UNL     1       6.400   5.950  17.478  0.00  0.00    +0.000 OA
ATOM     20  N   UNL     1       5.868   3.824  16.814  0.00  0.00    +0.000 N 
ATOM     21  H   UNL     1       5.634   2.896  17.156  0.00  0.00    +0.000 HD
BRANCH  20  22
ATOM     22  C   UNL     1       6.527   3.925  15.520  0.00  0.00    +0.000 C 
BRANCH  22  23
ATOM     23  C   UNL     1       5.588   4.350  14.394  0.00  0.00    +0.000 C 
ATOM     24 CL   UNL     1       6.036   3.542  12.867  0.00  0.00    +0.000 Cl
ENDBRANCH  22  23
ENDBRANCH  20  22
ENDBRANCH   3  18
BRANCH   4  25
ATOM     25  O   UNL     1       3.708   2.833  20.028  0.00  0.00    +0.000 OA
ATOM     26  H   UNL     1       2.993   3.263  20.531  0.00  0.00    +0.000 HD
ENDBRANCH   4  25
BRANCH   5  27
ATOM     27  O   UNL     1       1.562   3.865  18.906  0.00  0.00    +0.000 OA
ATOM     28  H   UNL     1       0.976   3.930  18.123  0.00  0.00    +0.000 HD
ENDBRANCH   5  27
TORSDOF 7
ENDMDL
MODEL 5
REMARK VINA RESULT:      -7.0      1.227      1.227
REMARK  Name = 
REMARK  7 active torsions:
REMARK  status: ('A' for Active; 'I' for Inactive)
REMARK    1  A    between atoms: N_1  and  C_2
REMARK    2  A    between atoms: N_10  and  C_11
REMARK    3  A    between atoms: C_13  and  C_14
REMARK    4  A    between atoms: N_16  and  C_17
REMARK    5  A    between atoms: C_17  and  C_18
REMARK    6  A    between atoms: C_20  and  O_21
REMARK    7  A    between atoms: C_22  and  O_23
REMARK                            x       y       z     vdW  Elec       q    Type
REMARK                         _______ _______ _______ _____ _____    ______ ____
ROOT
ATOM      1  C   UNL     1       5.696   5.571  18.860  0.00  0.00    +0.000 C 
ATOM      2  O   UNL     1       5.554   6.021  17.487  0.00  0.00    +0.000 OA
ATOM      3  C   UNL     1       6.867   6.188  16.921  0.00  0.00    +0.000 C 
ATOM      4  C   UNL     1       7.854   6.165  18.081  0.00  0.00    +0.000 C 
ATOM      5  C   UNL     1       7.175   5.249  19.088  0.00  0.00    +0.000 C 
ENDROOT
BRANCH   1  14
ATOM      6  C   UNL     1       1.812   2.695  18.616  0.00  0.00    +0.000 A 
ATOM      7  N   UNL     1       1.041   3.593  17.960  0.00  0.00    +0.000 NA
ATOM      8  C   UNL     1       1.571   4.803  17.675  0.00  0.00    +0.000 A 
ATOM      9  N   UNL     1       2.806   5.267  17.955  0.00  0.00    +0.000 NA
ATOM     10  C   UNL     1       3.516   4.352  18.636  0.00  0.00    +0.000 A 
ATOM     11  C   UNL     1       3.103   3.083  19.011  0.00  0.00    +0.000 A 
ATOM     12  N   UNL     1       4.093   2.435  19.718  0.00  0.00    +0.000 NA
ATOM     13  C   UNL     1       5.098   3.285  19.744  0.00  0.00    +0.000 A 
ATOM     14  N   UNL     1       4.805   4.451  19.090  0.00  0.00    +0.000 N 
BRANCH   6  15
ATOM     15  N   UNL     1       1.291   1.433  18.861  0.00  0.00    +0.000 N 
ATOM     16  H   UNL     1       0.395   1.455  19.330  0.00  0.00    +0.000 HD
ATOM     17  H   UNL     1       1.978   0.751  19.163  0.00  0.00    +0.000 HD
ENDBRANCH   6  15
ENDBRANCH   1  14
BRANCH   3  18
ATOM     18  C   UNL     1       7.152   5.098  15.878  0.00  0.00    +0.000 C 
ATOM     19  O   UNL     1       7.832   4.104  16.114  0.00  0.00    +0.000 OA
ATOM     20  N   UNL     1       6.593   5.348  14.645  0.00  0.00    +0.000 N 
ATOM     21  H   UNL     1       5.853   6.043  14.584  0.00  0.00    +0.000 HD
BRANCH  20  22
ATOM     22  C   UNL     1       6.751   4.426  13.530  0.00  0.00    +0.000 C 
BRANCH  22  23
ATOM     23  C   UNL     1       5.451   3.736  13.126  0.00  0.00    +0.000 C 
ATOM     24 CL   UNL     1       5.742   2.576  11.802  0.00  0.00    +0.000 Cl
ENDBRANCH  22  23
ENDBRANCH  20  22
ENDBRANCH   3  18
BRANCH   4  25
ATOM     25  O   UNL     1       8.006   7.471  18.675  0.00  0.00    +0.000 OA
ATOM     26  H   UNL     1       8.868   7.846  18.421  0.00  0.00    +0.000 HD
ENDBRANCH   4  25
BRANCH   5  27
ATOM     27  O   UNL     1       7.615   5.534  20.414  0.00  0.00    +0.000 OA
ATOM     28  H   UNL     1       8.548   5.827  20.344  0.00  0.00    +0.000 HD
ENDBRANCH   5  27
TORSDOF 7
ENDMDL
MODEL 6
REMARK VINA RESULT:      -6.9      3.383      4.975
REMARK  Name = 
REMARK  7 active torsions:
REMARK  status: ('A' for Active; 'I' for Inactive)
REMARK    1  A    between atoms: N_1  and  C_2
REMARK    2  A    between atoms: N_10  and  C_11
REMARK    3  A    between atoms: C_13  and  C_14
REMARK    4  A    between atoms: N_16  and  C_17
REMARK    5  A    between atoms: C_17  and  C_18
REMARK    6  A    between atoms: C_20  and  O_21
REMARK    7  A    between atoms: C_22  and  O_23
REMARK                            x       y       z     vdW  Elec       q    Type
REMARK                         _______ _______ _______ _____ _____    ______ ____
ROOT
ATOM      1  C   UNL     1       2.776   5.459  19.981  0.00  0.00    +0.000 C 
ATOM      2  O   UNL     1       4.146   5.071  19.699  0.00  0.00    +0.000 OA
ATOM      3  C   UNL     1       4.167   3.670  19.368  0.00  0.00    +0.000 C 
ATOM      4  C   UNL     1       2.819   3.098  19.786  0.00  0.00    +0.000 C 
ATOM      5  C   UNL     1       1.876   4.278  19.606  0.00  0.00    +0.000 C 
ENDROOT
BRANCH   1  14
ATOM      6  C   UNL     1       1.252   9.962  19.079  0.00  0.00    +0.000 A 
ATOM      7  N   UNL     1       0.648  10.126  20.279  0.00  0.00    +0.000 NA
ATOM      8  C   UNL     1       0.678   9.096  21.154  0.00  0.00    +0.000 A 
ATOM      9  N   UNL     1       1.246   7.882  21.006  0.00  0.00    +0.000 NA
ATOM     10  C   UNL     1       1.799   7.760  19.788  0.00  0.00    +0.000 A 
ATOM     11  C   UNL     1       1.834   8.718  18.786  0.00  0.00    +0.000 A 
ATOM     12  N   UNL     1       2.467   8.229  17.663  0.00  0.00    +0.000 NA
ATOM     13  C   UNL     1       2.836   7.008  17.991  0.00  0.00    +0.000 A 
ATOM     14  N   UNL     1       2.470   6.684  19.270  0.00  0.00    +0.000 N 
BRANCH   6  15
ATOM     15  N   UNL     1       1.272  11.035  18.200  0.00  0.00    +0.000 N 
ATOM     16  H   UNL     1       1.503  11.912  18.647  0.00  0.00    +0.000 HD
ATOM     17  H   UNL     1       0.526  11.023  17.513  0.00  0.00    +0.000 HD
ENDBRANCH   6  15
ENDBRANCH   1  14
BRANCH   3  18
ATOM     18  C   UNL     1       4.459   3.469  17.875  0.00  0.00    +0.000 C 
ATOM     19  O   UNL     1       3.736   2.813  17.131  0.00  0.00    +0.000 OA
ATOM     20  N   UNL     1       5.621   4.074  17.448  0.00  0.00    +0.000 N 
ATOM     21  H   UNL     1       6.033   4.792  18.038  0.00  0.00    +0.000 HD
BRANCH  20  22
ATOM     22  C   UNL     1       6.061   3.997  16.063  0.00  0.00    +0.000 C 
BRANCH  22  23
ATOM     23  C   UNL     1       7.034   5.107  15.675  0.00  0.00    +0.000 C 
ATOM     24 CL   UNL     1       7.239   6.260  17.022  0.00  0.00    +0.000 Cl
ENDBRANCH  22  23
ENDBRANCH  20  22
ENDBRANCH   3  18
BRANCH   4  25
ATOM     25  O   UNL     1       2.814   2.711  21.176  0.00  0.00    +0.000 OA
ATOM     26  H   UNL     1       3.502   3.208  21.654  0.00  0.00    +0.000 HD
ENDBRANCH   4  25
BRANCH   5  27
ATOM     27  O   UNL     1       0.734   4.151  20.450  0.00  0.00    +0.000 OA
ATOM     28  H   UNL     1       0.603   5.021  20.882  0.00  0.00    +0.000 HD
ENDBRANCH   5  27
TORSDOF 7
ENDMDL
MODEL 7
REMARK VINA RESULT:      -6.9      0.974      1.013
REMARK  Name = 
REMARK  7 active torsions:
REMARK  status: ('A' for Active; 'I' for Inactive)
REMARK    1  A    between atoms: N_1  and  C_2
REMARK    2  A    between atoms: N_10  and  C_11
REMARK    3  A    between atoms: C_13  and  C_14
REMARK    4  A    between atoms: N_16  and  C_17
REMARK    5  A    between atoms: C_17  and  C_18
REMARK    6  A    between atoms: C_20  and  O_21
REMARK    7  A    between atoms: C_22  and  O_23
REMARK                            x       y       z     vdW  Elec       q    Type
REMARK                         _______ _______ _______ _____ _____    ______ ____
ROOT
ATOM      1  C   UNL     1       5.802   5.780  19.037  0.00  0.00    +0.000 C 
ATOM      2  O   UNL     1       5.338   6.731  18.043  0.00  0.00    +0.000 OA
ATOM      3  C   UNL     1       6.428   7.037  17.156  0.00  0.00    +0.000 C 
ATOM      4  C   UNL     1       7.697   6.520  17.821  0.00  0.00    +0.000 C 
ATOM      5  C   UNL     1       7.201   5.322  18.617  0.00  0.00    +0.000 C 
ENDROOT
BRANCH   1  14
ATOM      6  C   UNL     1       1.655   3.431  19.866  0.00  0.00    +0.000 A 
ATOM      7  N   UNL     1       1.030   4.489  20.432  0.00  0.00    +0.000 NA
ATOM      8  C   UNL     1       1.717   5.646  20.554  0.00  0.00    +0.000 A 
ATOM      9  N   UNL     1       2.984   5.916  20.177  0.00  0.00    +0.000 NA
ATOM     10  C   UNL     1       3.568   4.825  19.655  0.00  0.00    +0.000 A 
ATOM     11  C   UNL     1       2.998   3.574  19.481  0.00  0.00    +0.000 A 
ATOM     12  N   UNL     1       3.906   2.693  18.934  0.00  0.00    +0.000 NA
ATOM     13  C   UNL     1       4.998   3.407  18.754  0.00  0.00    +0.000 A 
ATOM     14  N   UNL     1       4.839   4.705  19.158  0.00  0.00    +0.000 N 
BRANCH   6  15
ATOM     15  N   UNL     1       0.934   2.259  19.688  0.00  0.00    +0.000 N 
ATOM     16  H   UNL     1       0.922   1.940  18.729  0.00  0.00    +0.000 HD
ATOM     17  H   UNL     1       0.074   2.215  20.224  0.00  0.00    +0.000 HD
ENDBRANCH   6  15
ENDBRANCH   1  14
BRANCH   3  18
ATOM     18  C   UNL     1       6.192   6.419  15.771  0.00  0.00    +0.000 C 
ATOM     19  O   UNL     1       5.179   6.623  15.108  0.00  0.00    +0.000 OA
ATOM     20  N   UNL     1       7.211   5.596  15.347  0.00  0.00    +0.000 N 
ATOM     21  H   UNL     1       8.111   5.664  15.815  0.00  0.00    +0.000 HD
BRANCH  20  22
ATOM     22  C   UNL     1       7.168   4.924  14.056  0.00  0.00    +0.000 C 
BRANCH  22  23
ATOM     23  C   UNL     1       6.208   3.738  14.024  0.00  0.00    +0.000 C 
ATOM     24 CL   UNL     1       5.788   3.316  12.342  0.00  0.00    +0.000 Cl
ENDBRANCH  22  23
ENDBRANCH  20  22
ENDBRANCH   3  18
BRANCH   4  25
ATOM     25  O   UNL     1       8.247   7.487  18.739  0.00  0.00    +0.000 OA
ATOM     26  H   UNL     1       7.767   8.331  18.650  0.00  0.00    +0.000 HD
ENDBRANCH   4  25
BRANCH   5  27
ATOM     27  O   UNL     1       8.062   5.053  19.722  0.00  0.00    +0.000 OA
ATOM     28  H   UNL     1       8.940   4.831  19.348  0.00  0.00    +0.000 HD
ENDBRANCH   5  27
TORSDOF 7
ENDMDL
MODEL 8
REMARK VINA RESULT:      -6.9      3.601      6.542
REMARK  Name = 
REMARK  7 active torsions:
REMARK  status: ('A' for Active; 'I' for Inactive)
REMARK    1  A    between atoms: N_1  and  C_2
REMARK    2  A    between atoms: N_10  and  C_11
REMARK    3  A    between atoms: C_13  and  C_14
REMARK    4  A    between atoms: N_16  and  C_17
REMARK    5  A    between atoms: C_17  and  C_18
REMARK    6  A    between atoms: C_20  and  O_21
REMARK    7  A    between atoms: C_22  and  O_23
REMARK                            x       y       z     vdW  Elec       q    Type
REMARK                         _______ _______ _______ _____ _____    ______ ____
ROOT
ATOM      1  C   UNL     1       4.457   3.620  17.578  0.00  0.00    +0.000 C 
ATOM      2  O   UNL     1       3.271   4.389  17.246  0.00  0.00    +0.000 OA
ATOM      3  C   UNL     1       2.558   4.681  18.461  0.00  0.00    +0.000 C 
ATOM      4  C   UNL     1       3.140   3.779  19.542  0.00  0.00    +0.000 C 
ATOM      5  C   UNL     1       4.587   3.610  19.103  0.00  0.00    +0.000 C 
ENDROOT
BRANCH   1  14
ATOM      6  C   UNL     1       7.421   5.009  14.014  0.00  0.00    +0.000 A 
ATOM      7  N   UNL     1       6.749   4.354  13.039  0.00  0.00    +0.000 NA
ATOM      8  C   UNL     1       5.658   3.636  13.387  0.00  0.00    +0.000 A 
ATOM      9  N   UNL     1       5.114   3.472  14.610  0.00  0.00    +0.000 NA
ATOM     10  C   UNL     1       5.837   4.113  15.543  0.00  0.00    +0.000 A 
ATOM     11  C   UNL     1       6.980   4.870  15.341  0.00  0.00    +0.000 A 
ATOM     12  N   UNL     1       7.463   5.357  16.536  0.00  0.00    +0.000 NA
ATOM     13  C   UNL     1       6.611   4.927  17.442  0.00  0.00    +0.000 A 
ATOM     14  N   UNL     1       5.601   4.185  16.890  0.00  0.00    +0.000 N 
BRANCH   6  15
ATOM     15  N   UNL     1       8.508   5.792  13.653  0.00  0.00    +0.000 N 
ATOM     16  H   UNL     1       8.264   6.551  13.032  0.00  0.00    +0.000 HD
ATOM     17  H   UNL     1       9.354   5.265  13.467  0.00  0.00    +0.000 HD
ENDBRANCH   6  15
ENDBRANCH   1  14
BRANCH   3  18
ATOM     18  C   UNL     1       2.668   6.171  18.812  0.00  0.00    +0.000 C 
ATOM     19  O   UNL     1       2.713   6.589  19.965  0.00  0.00    +0.000 OA
ATOM     20  N   UNL     1       2.690   7.001  17.713  0.00  0.00    +0.000 N 
ATOM     21  H   UNL     1       2.898   6.593  16.806  0.00  0.00    +0.000 HD
BRANCH  20  22
ATOM     22  C   UNL     1       2.795   8.447  17.846  0.00  0.00    +0.000 C 
BRANCH  22  23
ATOM     23  C   UNL     1       1.441   9.150  17.894  0.00  0.00    +0.000 C 
ATOM     24 CL   UNL     1       1.018   9.581  19.574  0.00  0.00    +0.000 Cl
ENDBRANCH  22  23
ENDBRANCH  20  22
ENDBRANCH   3  18
BRANCH   4  25
ATOM     25  O   UNL     1       2.507   2.482  19.548  0.00  0.00    +0.000 OA
ATOM     26  H   UNL     1       1.828   2.454  20.246  0.00  0.00    +0.000 HD
ENDBRANCH   4  25
BRANCH   5  27
ATOM     27  O   UNL     1       5.136   2.398  19.614  0.00  0.00    +0.000 OA
ATOM     28  H   UNL     1       4.867   2.341  20.555  0.00  0.00    +0.000 HD
ENDBRANCH   5  27
TORSDOF 7
ENDMDL
MODEL 9
REMARK VINA RESULT:      -6.8      3.163      6.449
REMARK  Name = 
REMARK  7 active torsions:
REMARK  status: ('A' for Active; 'I' for Inactive)
REMARK    1  A    between atoms: N_1  and  C_2
REMARK    2  A    between atoms: N_10  and  C_11
REMARK    3  A    between atoms: C_13  and  C_14
REMARK    4  A    between atoms: N_16  and  C_17
REMARK    5  A    between atoms: C_17  and  C_18
REMARK    6  A    between atoms: C_20  and  O_21
REMARK    7  A    between atoms: C_22  and  O_23
REMARK                            x       y       z     vdW  Elec       q    Type
REMARK                         _______ _______ _______ _____ _____    ______ ____
ROOT
ATOM      1  C   UNL     1       4.190   3.198  18.313  0.00  0.00    +0.000 C 
ATOM      2  O   UNL     1       2.882   3.723  17.961  0.00  0.00    +0.000 OA
ATOM      3  C   UNL     1       1.927   3.268  18.937  0.00  0.00    +0.000 C 
ATOM      4  C   UNL     1       2.600   2.153  19.727  0.00  0.00    +0.000 C 
ATOM      5  C   UNL     1       4.068   2.550  19.695  0.00  0.00    +0.000 C 
ENDROOT
BRANCH   1  14
ATOM      6  C   UNL     1       7.419   6.330  16.533  0.00  0.00    +0.000 A 
ATOM      7  N   UNL     1       7.493   5.745  15.315  0.00  0.00    +0.000 NA
ATOM      8  C   UNL     1       6.749   4.639  15.092  0.00  0.00    +0.000 A 
ATOM      9  N   UNL     1       5.906   4.008  15.935  0.00  0.00    +0.000 NA
ATOM     10  C   UNL     1       5.897   4.608  17.137  0.00  0.00    +0.000 A 
ATOM     11  C   UNL     1       6.614   5.732  17.516  0.00  0.00    +0.000 A 
ATOM     12  N   UNL     1       6.369   6.047  18.835  0.00  0.00    +0.000 NA
ATOM     13  C   UNL     1       5.497   5.146  19.238  0.00  0.00    +0.000 A 
ATOM     14  N   UNL     1       5.168   4.265  18.244  0.00  0.00    +0.000 N 
BRANCH   6  15
ATOM     15  N   UNL     1       8.139   7.497  16.748  0.00  0.00    +0.000 N 
ATOM     16  H   UNL     1       7.560   8.275  17.035  0.00  0.00    +0.000 HD
ATOM     17  H   UNL     1       8.871   7.664  16.067  0.00  0.00    +0.000 HD
ENDBRANCH   6  15
ENDBRANCH   1  14
BRANCH   3  18
ATOM     18  C   UNL     1       1.465   4.429  19.828  0.00  0.00    +0.000 C 
ATOM     19  O   UNL     1       0.591   4.315  20.682  0.00  0.00    +0.000 OA
ATOM     20  N   UNL     1       2.106   5.620  19.567  0.00  0.00    +0.000 N 
ATOM     21  H   UNL     1       2.972   5.594  19.035  0.00  0.00    +0.000 HD
BRANCH  20  22
ATOM     22  C   UNL     1       1.804   6.833  20.313  0.00  0.00    +0.000 C 
BRANCH  22  23
ATOM     23  C   UNL     1       1.936   8.105  19.480  0.00  0.00    +0.000 C 
ATOM     24 CL   UNL     1       2.803   7.769  17.956  0.00  0.00    +0.000 Cl
ENDBRANCH  22  23
ENDBRANCH  20  22
ENDBRANCH   3  18
BRANCH   4  25
ATOM     25  O   UNL     1       2.454   0.876  19.071  0.00  0.00    +0.000 OA
ATOM     26  H   UNL     1       3.324   0.568  18.759  0.00  0.00    +0.000 HD
ENDBRANCH   4  25
BRANCH   5  27
ATOM     27  O   UNL     1       4.908   1.410  19.858  0.00  0.00    +0.000 OA
ATOM     28  H   UNL     1       5.545   1.628  20.571  0.00  0.00    +0.000 HD
ENDBRANCH   5  27
TORSDOF 7
ENDMDL
