MODEL 1
REMARK VINA RESULT:      -6.7      0.000      0.000
REMARK  Name = 
REMARK  13 active torsions:
REMARK  status: ('A' for Active; 'I' for Inactive)
REMARK    1  A    between atoms: C_1  and  O_2
REMARK    2  A    between atoms: O_2  and  C_3
REMARK    3  A    between atoms: C_6  and  N_7
REMARK    4  A    between atoms: N_7  and  C_8
REMARK    5  A    between atoms: C_8  and  C_9
REMARK    6  A    between atoms: C_9  and  O_10
REMARK    7  A    between atoms: C_11  and  C_13
REMARK    8  A    between atoms: C_18  and  O_19
REMARK    9  A    between atoms: O_19  and  C_20
REMARK   10  A    between atoms: C_23  and  C_24
REMARK   11  A    between atoms: C_23  and  C_25
REMARK   12  A    between atoms: C_29  and  O_30
REMARK   13  A    between atoms: O_30  and  C_31
REMARK                            x       y       z     vdW  Elec       q    Type
REMARK                         _______ _______ _______ _____ _____    ______ ____
ROOT
ATOM      1  N   UNL     1      -0.580  11.540  19.543  0.00  0.00    +0.000 N 
ATOM      2  C   UNL     1       0.733  11.082  19.906  0.00  0.00    +0.000 C 
ATOM      3  O   UNL     1       1.474  11.718  20.652  0.00  0.00    +0.000 OA
ENDROOT
BRANCH   2   4
ATOM      4  C   UNL     1       1.249   9.751  19.404  0.00  0.00    +0.000 A 
ATOM      5  C   UNL     1       1.682   9.631  18.073  0.00  0.00    +0.000 A 
ATOM      6  C   UNL     1       2.357   8.496  17.639  0.00  0.00    +0.000 A 
ATOM      7  C   UNL     1       2.481   7.405  18.486  0.00  0.00    +0.000 A 
ATOM      8  C   UNL     1       1.956   7.430  19.789  0.00  0.00    +0.000 A 
ATOM      9  C   UNL     1       1.307   8.606  20.246  0.00  0.00    +0.000 A 
ATOM     10  C   UNL     1       2.213   6.242  20.612  0.00  0.00    +0.000 C 
ATOM     11  C   UNL     1       2.595   5.110  20.006  0.00  0.00    +0.000 C 
ATOM     12  C   UNL     1       2.847   5.048  18.519  0.00  0.00    +0.000 C 
ATOM     13  C   UNL     1       1.634   4.500  17.756  0.00  0.00    +0.000 C 
ATOM     14  C   UNL     1       4.065   4.157  18.242  0.00  0.00    +0.000 C 
ATOM     15  O   UNL     1       3.173   6.340  17.966  0.00  0.00    +0.000 OA
BRANCH   9  16
ATOM     16  O   UNL     1       0.826   8.715  21.533  0.00  0.00    +0.000 OA
ATOM     17  C   UNL     1      -0.564   8.402  21.684  0.00  0.00    +0.000 C 
ENDBRANCH   9  16
ENDBRANCH   2   4
BRANCH   1  21
ATOM     18  C   UNL     1      -1.799  15.280  21.197  0.00  0.00    +0.000 A 
ATOM     19  C   UNL     1      -2.162  14.065  21.788  0.00  0.00    +0.000 A 
ATOM     20  C   UNL     1      -1.790  12.850  21.203  0.00  0.00    +0.000 A 
ATOM     21  C   UNL     1      -1.009  12.822  20.043  0.00  0.00    +0.000 A 
ATOM     22  C   UNL     1      -0.644  14.050  19.449  0.00  0.00    +0.000 A 
ATOM     23  F   UNL     1       0.105  14.024  18.332  0.00  0.00    +0.000 F 
ATOM     24  C   UNL     1      -1.067  15.280  19.992  0.00  0.00    +0.000 A 
BRANCH  18  26
ATOM     25  C   UNL     1      -3.350  16.510  22.512  0.00  0.00    +0.000 C 
ATOM     26  O   UNL     1      -2.182  16.502  21.699  0.00  0.00    +0.000 OA
ENDBRANCH  18  26
BRANCH  24  27
ATOM     27  O   UNL     1      -0.810  16.530  19.480  0.00  0.00    +0.000 OA
ATOM     28  C   UNL     1       0.512  17.035  19.558  0.00  0.00    +0.000 C 
ENDBRANCH  24  27
ENDBRANCH   1  21
BRANCH   1  29
ATOM     29  C   UNL     1      -1.563  10.704  18.824  0.00  0.00    +0.000 C 
BRANCH  29  30
ATOM     30  C   UNL     1      -2.523  11.337  17.810  0.00  0.00    +0.000 C 
BRANCH  30  31
ATOM     31  O   UNL     1      -1.830  11.897  16.703  0.00  0.00    +0.000 OA
ATOM     32  H   UNL     1      -0.879  11.800  16.884  0.00  0.00    +0.000 HD
ENDBRANCH  30  31
ENDBRANCH  29  30
ENDBRANCH   1  29
TORSDOF 8
ENDMDL
MODEL 2
REMARK VINA RESULT:      -6.6      1.193      1.975
REMARK  Name = 
REMARK  13 active torsions:
REMARK  status: ('A' for Active; 'I' for Inactive)
REMARK    1  A    between atoms: C_1  and  O_2
REMARK    2  A    between atoms: O_2  and  C_3
REMARK    3  A    between atoms: C_6  and  N_7
REMARK    4  A    between atoms: N_7  and  C_8
REMARK    5  A    between atoms: C_8  and  C_9
REMARK    6  A    between atoms: C_9  and  O_10
REMARK    7  A    between atoms: C_11  and  C_13
REMARK    8  A    between atoms: C_18  and  O_19
REMARK    9  A    between atoms: O_19  and  C_20
REMARK   10  A    between atoms: C_23  and  C_24
REMARK   11  A    between atoms: C_23  and  C_25
REMARK   12  A    between atoms: C_29  and  O_30
REMARK   13  A    between atoms: O_30  and  C_31
REMARK                            x       y       z     vdW  Elec       q    Type
REMARK                         _______ _______ _______ _____ _____    ______ ____
ROOT
ATOM      1  N   UNL     1      -0.575  11.545  19.763  0.00  0.00    +0.000 N 
ATOM      2  C   UNL     1       0.725  11.049  20.123  0.00  0.00    +0.000 C 
ATOM      3  O   UNL     1       1.462  11.634  20.913  0.00  0.00    +0.000 OA
ENDROOT
BRANCH   2   4
ATOM      4  C   UNL     1       1.230   9.738  19.561  0.00  0.00    +0.000 A 
ATOM      5  C   UNL     1       1.635   9.667  18.217  0.00  0.00    +0.000 A 
ATOM      6  C   UNL     1       2.301   8.549  17.727  0.00  0.00    +0.000 A 
ATOM      7  C   UNL     1       2.443   7.428  18.530  0.00  0.00    +0.000 A 
ATOM      8  C   UNL     1       1.946   7.405  19.845  0.00  0.00    +0.000 A 
ATOM      9  C   UNL     1       1.307   8.563  20.359  0.00  0.00    +0.000 A 
ATOM     10  C   UNL     1       2.221   6.188  20.618  0.00  0.00    +0.000 C 
ATOM     11  C   UNL     1       2.590   5.080  19.962  0.00  0.00    +0.000 C 
ATOM     12  C   UNL     1       2.810   5.073  18.469  0.00  0.00    +0.000 C 
ATOM     13  C   UNL     1       1.581   4.552  17.713  0.00  0.00    +0.000 C 
ATOM     14  C   UNL     1       4.022   4.193  18.133  0.00  0.00    +0.000 C 
ATOM     15  O   UNL     1       3.124   6.384  17.957  0.00  0.00    +0.000 OA
BRANCH   9  16
ATOM     16  O   UNL     1       0.854   8.624  21.659  0.00  0.00    +0.000 OA
ATOM     17  C   UNL     1      -0.556   8.422  21.814  0.00  0.00    +0.000 C 
ENDBRANCH   9  16
ENDBRANCH   2   4
BRANCH   1  21
ATOM     18  C   UNL     1      -1.878  15.328  21.244  0.00  0.00    +0.000 A 
ATOM     19  C   UNL     1      -1.135  15.221  20.064  0.00  0.00    +0.000 A 
ATOM     20  C   UNL     1      -0.679  13.974  19.620  0.00  0.00    +0.000 A 
ATOM     21  C   UNL     1      -0.994  12.806  20.321  0.00  0.00    +0.000 A 
ATOM     22  C   UNL     1      -1.744  12.917  21.512  0.00  0.00    +0.000 A 
ATOM     23  F   UNL     1      -2.045  11.795  22.188  0.00  0.00    +0.000 F 
ATOM     24  C   UNL     1      -2.154  14.174  22.003  0.00  0.00    +0.000 A 
BRANCH  18  26
ATOM     25  C   UNL     1      -3.321  17.203  21.015  0.00  0.00    +0.000 C 
ATOM     26  O   UNL     1      -2.306  16.533  21.753  0.00  0.00    +0.000 OA
ENDBRANCH  18  26
BRANCH  24  27
ATOM     27  O   UNL     1      -2.848  14.408  23.167  0.00  0.00    +0.000 OA
ATOM     28  C   UNL     1      -4.215  14.039  23.227  0.00  0.00    +0.000 C 
ENDBRANCH  24  27
ENDBRANCH   1  21
BRANCH   1  29
ATOM     29  C   UNL     1      -1.557  10.762  18.986  0.00  0.00    +0.000 C 
BRANCH  29  30
ATOM     30  C   UNL     1      -1.906  11.165  17.549  0.00  0.00    +0.000 C 
BRANCH  30  31
ATOM     31  O   UNL     1      -3.044  12.016  17.499  0.00  0.00    +0.000 OA
ATOM     32  H   UNL     1      -3.829  11.448  17.590  0.00  0.00    +0.000 HD
ENDBRANCH  30  31
ENDBRANCH  29  30
ENDBRANCH   1  29
TORSDOF 8
ENDMDL
MODEL 3
REMARK VINA RESULT:      -6.1      2.260      8.506
REMARK  Name = 
REMARK  13 active torsions:
REMARK  status: ('A' for Active; 'I' for Inactive)
REMARK    1  A    between atoms: C_1  and  O_2
REMARK    2  A    between atoms: O_2  and  C_3
REMARK    3  A    between atoms: C_6  and  N_7
REMARK    4  A    between atoms: N_7  and  C_8
REMARK    5  A    between atoms: C_8  and  C_9
REMARK    6  A    between atoms: C_9  and  O_10
REMARK    7  A    between atoms: C_11  and  C_13
REMARK    8  A    between atoms: C_18  and  O_19
REMARK    9  A    between atoms: O_19  and  C_20
REMARK   10  A    between atoms: C_23  and  C_24
REMARK   11  A    between atoms: C_23  and  C_25
REMARK   12  A    between atoms: C_29  and  O_30
REMARK   13  A    between atoms: O_30  and  C_31
REMARK                            x       y       z     vdW  Elec       q    Type
REMARK                         _______ _______ _______ _____ _____    ______ ____
ROOT
ATOM      1  N   UNL     1       0.264  10.113  19.955  0.00  0.00    +0.000 N 
ATOM      2  C   UNL     1       0.764  10.910  21.041  0.00  0.00    +0.000 C 
ATOM      3  O   UNL     1       1.912  10.808  21.464  0.00  0.00    +0.000 OA
ENDROOT
BRANCH   2   4
ATOM      4  C   UNL     1      -0.113  11.958  21.692  0.00  0.00    +0.000 A 
ATOM      5  C   UNL     1       0.106  13.318  21.416  0.00  0.00    +0.000 A 
ATOM      6  C   UNL     1      -0.804  14.288  21.819  0.00  0.00    +0.000 A 
ATOM      7  C   UNL     1      -1.871  13.932  22.630  0.00  0.00    +0.000 A 
ATOM      8  C   UNL     1      -2.066  12.600  23.037  0.00  0.00    +0.000 A 
ATOM      9  C   UNL     1      -1.162  11.604  22.585  0.00  0.00    +0.000 A 
ATOM     10  C   UNL     1      -3.270  12.338  23.834  0.00  0.00    +0.000 C 
ATOM     11  C   UNL     1      -3.897  13.372  24.411  0.00  0.00    +0.000 C 
ATOM     12  C   UNL     1      -3.448  14.797  24.197  0.00  0.00    +0.000 C 
ATOM     13  C   UNL     1      -2.558  15.295  25.342  0.00  0.00    +0.000 C 
ATOM     14  C   UNL     1      -4.676  15.709  24.076  0.00  0.00    +0.000 C 
ATOM     15  O   UNL     1      -2.717  14.959  22.963  0.00  0.00    +0.000 OA
BRANCH   9  16
ATOM     16  O   UNL     1      -1.334  10.273  22.898  0.00  0.00    +0.000 OA
ATOM     17  C   UNL     1      -0.255   9.684  23.633  0.00  0.00    +0.000 C 
ENDBRANCH   9  16
ENDBRANCH   2   4
BRANCH   1  21
ATOM     18  C   UNL     1       2.985   7.324  18.216  0.00  0.00    +0.000 A 
ATOM     19  C   UNL     1       2.600   8.487  17.542  0.00  0.00    +0.000 A 
ATOM     20  C   UNL     1       1.671   9.365  18.112  0.00  0.00    +0.000 A 
ATOM     21  C   UNL     1       1.143   9.124  19.384  0.00  0.00    +0.000 A 
ATOM     22  C   UNL     1       1.534   7.948  20.062  0.00  0.00    +0.000 A 
ATOM     23  F   UNL     1       1.025   7.713  21.284  0.00  0.00    +0.000 F 
ATOM     24  C   UNL     1       2.419   7.023  19.471  0.00  0.00    +0.000 A 
BRANCH  18  26
ATOM     25  C   UNL     1       4.942   6.922  16.928  0.00  0.00    +0.000 C 
ATOM     26  O   UNL     1       3.853   6.400  17.681  0.00  0.00    +0.000 OA
ENDBRANCH  18  26
BRANCH  24  27
ATOM     27  O   UNL     1       2.835   5.831  20.015  0.00  0.00    +0.000 OA
ATOM     28  C   UNL     1       1.888   4.788  20.168  0.00  0.00    +0.000 C 
ENDBRANCH  24  27
ENDBRANCH   1  21
BRANCH   1  29
ATOM     29  C   UNL     1      -1.033  10.360  19.294  0.00  0.00    +0.000 C 
BRANCH  29  30
ATOM     30  C   UNL     1      -1.205  11.551  18.344  0.00  0.00    +0.000 C 
BRANCH  30  31
ATOM     31  O   UNL     1      -2.199  12.457  18.804  0.00  0.00    +0.000 OA
ATOM     32  H   UNL     1      -1.759  13.080  19.409  0.00  0.00    +0.000 HD
ENDBRANCH  30  31
ENDBRANCH  29  30
ENDBRANCH   1  29
TORSDOF 8
ENDMDL
MODEL 4
REMARK VINA RESULT:      -6.0      2.243      8.753
REMARK  Name = 
REMARK  13 active torsions:
REMARK  status: ('A' for Active; 'I' for Inactive)
REMARK    1  A    between atoms: C_1  and  O_2
REMARK    2  A    between atoms: O_2  and  C_3
REMARK    3  A    between atoms: C_6  and  N_7
REMARK    4  A    between atoms: N_7  and  C_8
REMARK    5  A    between atoms: C_8  and  C_9
REMARK    6  A    between atoms: C_9  and  O_10
REMARK    7  A    between atoms: C_11  and  C_13
REMARK    8  A    between atoms: C_18  and  O_19
REMARK    9  A    between atoms: O_19  and  C_20
REMARK   10  A    between atoms: C_23  and  C_24
REMARK   11  A    between atoms: C_23  and  C_25
REMARK   12  A    between atoms: C_29  and  O_30
REMARK   13  A    between atoms: O_30  and  C_31
REMARK                            x       y       z     vdW  Elec       q    Type
REMARK                         _______ _______ _______ _____ _____    ______ ____
ROOT
ATOM      1  N   UNL     1       0.119  10.173  20.069  0.00  0.00    +0.000 N 
ATOM      2  C   UNL     1       0.466  10.789  21.320  0.00  0.00    +0.000 C 
ATOM      3  O   UNL     1       1.503  10.524  21.923  0.00  0.00    +0.000 OA
ENDROOT
BRANCH   2   4
ATOM      4  C   UNL     1      -0.433  11.839  21.934  0.00  0.00    +0.000 A 
ATOM      5  C   UNL     1      -1.701  11.473  22.417  0.00  0.00    +0.000 A 
ATOM      6  C   UNL     1      -2.461  12.355  23.177  0.00  0.00    +0.000 A 
ATOM      7  C   UNL     1      -2.032  13.664  23.342  0.00  0.00    +0.000 A 
ATOM      8  C   UNL     1      -0.828  14.114  22.774  0.00  0.00    +0.000 A 
ATOM      9  C   UNL     1      -0.031  13.200  22.038  0.00  0.00    +0.000 A 
ATOM     10  C   UNL     1      -0.448  15.498  23.080  0.00  0.00    +0.000 C 
ATOM     11  C   UNL     1      -1.383  16.333  23.552  0.00  0.00    +0.000 C 
ATOM     12  C   UNL     1      -2.787  15.867  23.855  0.00  0.00    +0.000 C 
ATOM     13  C   UNL     1      -3.753  16.178  22.705  0.00  0.00    +0.000 C 
ATOM     14  C   UNL     1      -3.288  16.549  25.136  0.00  0.00    +0.000 C 
ATOM     15  O   UNL     1      -2.847  14.450  24.117  0.00  0.00    +0.000 OA
BRANCH   9  16
ATOM     16  O   UNL     1       1.189  13.563  21.510  0.00  0.00    +0.000 OA
ATOM     17  C   UNL     1       1.119  14.255  20.257  0.00  0.00    +0.000 C 
ENDBRANCH   9  16
ENDBRANCH   2   4
BRANCH   1  21
ATOM     18  C   UNL     1       2.880   7.342  18.466  0.00  0.00    +0.000 A 
ATOM     19  C   UNL     1       2.571   8.527  17.789  0.00  0.00    +0.000 A 
ATOM     20  C   UNL     1       1.628   9.419  18.311  0.00  0.00    +0.000 A 
ATOM     21  C   UNL     1       1.009   9.170  19.541  0.00  0.00    +0.000 A 
ATOM     22  C   UNL     1       1.324   7.974  20.221  0.00  0.00    +0.000 A 
ATOM     23  F   UNL     1       0.727   7.731  21.402  0.00  0.00    +0.000 F 
ATOM     24  C   UNL     1       2.223   7.036  19.674  0.00  0.00    +0.000 A 
BRANCH  18  26
ATOM     25  C   UNL     1       4.567   6.816  16.876  0.00  0.00    +0.000 C 
ATOM     26  O   UNL     1       3.759   6.405  17.973  0.00  0.00    +0.000 OA
ENDBRANCH  18  26
BRANCH  24  27
ATOM     27  O   UNL     1       2.571   5.824  20.223  0.00  0.00    +0.000 OA
ATOM     28  C   UNL     1       1.595   4.798  20.276  0.00  0.00    +0.000 C 
ENDBRANCH  24  27
ENDBRANCH   1  21
BRANCH   1  29
ATOM     29  C   UNL     1      -1.008  10.622  19.226  0.00  0.00    +0.000 C 
BRANCH  29  30
ATOM     30  C   UNL     1      -0.929  11.954  18.472  0.00  0.00    +0.000 C 
BRANCH  30  31
ATOM     31  O   UNL     1      -1.554  11.880  17.198  0.00  0.00    +0.000 OA
ATOM     32  H   UNL     1      -1.525  10.947  16.920  0.00  0.00    +0.000 HD
ENDBRANCH  30  31
ENDBRANCH  29  30
ENDBRANCH   1  29
TORSDOF 8
ENDMDL
MODEL 5
REMARK VINA RESULT:      -6.0      3.224      9.380
REMARK  Name = 
REMARK  13 active torsions:
REMARK  status: ('A' for Active; 'I' for Inactive)
REMARK    1  A    between atoms: C_1  and  O_2
REMARK    2  A    between atoms: O_2  and  C_3
REMARK    3  A    between atoms: C_6  and  N_7
REMARK    4  A    between atoms: N_7  and  C_8
REMARK    5  A    between atoms: C_8  and  C_9
REMARK    6  A    between atoms: C_9  and  O_10
REMARK    7  A    between atoms: C_11  and  C_13
REMARK    8  A    between atoms: C_18  and  O_19
REMARK    9  A    between atoms: O_19  and  C_20
REMARK   10  A    between atoms: C_23  and  C_24
REMARK   11  A    between atoms: C_23  and  C_25
REMARK   12  A    between atoms: C_29  and  O_30
REMARK   13  A    between atoms: O_30  and  C_31
REMARK                            x       y       z     vdW  Elec       q    Type
REMARK                         _______ _______ _______ _____ _____    ______ ____
ROOT
ATOM      1  N   UNL     1       2.361   6.338  19.671  0.00  0.00    +0.000 N 
ATOM      2  C   UNL     1       2.268   7.731  19.328  0.00  0.00    +0.000 C 
ATOM      3  O   UNL     1       2.777   8.199  18.313  0.00  0.00    +0.000 OA
ENDROOT
BRANCH   2   4
ATOM      4  C   UNL     1       1.488   8.687  20.205  0.00  0.00    +0.000 A 
ATOM      5  C   UNL     1       1.436   8.473  21.592  0.00  0.00    +0.000 A 
ATOM      6  C   UNL     1       0.917   9.438  22.448  0.00  0.00    +0.000 A 
ATOM      7  C   UNL     1       0.309  10.567  21.920  0.00  0.00    +0.000 A 
ATOM      8  C   UNL     1       0.226  10.769  20.531  0.00  0.00    +0.000 A 
ATOM      9  C   UNL     1       0.798   9.805  19.661  0.00  0.00    +0.000 A 
ATOM     10  C   UNL     1      -0.376  12.035  20.098  0.00  0.00    +0.000 C 
ATOM     11  C   UNL     1      -1.105  12.735  20.977  0.00  0.00    +0.000 C 
ATOM     12  C   UNL     1      -1.253  12.300  22.415  0.00  0.00    +0.000 C 
ATOM     13  C   UNL     1      -2.559  11.531  22.648  0.00  0.00    +0.000 C 
ATOM     14  C   UNL     1      -1.220  13.532  23.329  0.00  0.00    +0.000 C 
ATOM     15  O   UNL     1      -0.160  11.463  22.847  0.00  0.00    +0.000 OA
BRANCH   9  16
ATOM     16  O   UNL     1       0.803   9.976  18.293  0.00  0.00    +0.000 OA
ATOM     17  C   UNL     1      -0.453   9.727  17.651  0.00  0.00    +0.000 C 
ENDBRANCH   9  16
ENDBRANCH   2   4
BRANCH   1  21
ATOM     18  C   UNL     1       4.548   3.881  16.953  0.00  0.00    +0.000 A 
ATOM     19  C   UNL     1       3.168   4.068  16.822  0.00  0.00    +0.000 A 
ATOM     20  C   UNL     1       2.463   4.841  17.751  0.00  0.00    +0.000 A 
ATOM     21  C   UNL     1       3.128   5.480  18.803  0.00  0.00    +0.000 A 
ATOM     22  C   UNL     1       4.521   5.290  18.932  0.00  0.00    +0.000 A 
ATOM     23  F   UNL     1       5.161   5.901  19.945  0.00  0.00    +0.000 F 
ATOM     24  C   UNL     1       5.232   4.461  18.040  0.00  0.00    +0.000 A 
BRANCH  18  26
ATOM     25  C   UNL     1       5.840   3.738  14.962  0.00  0.00    +0.000 C 
ATOM     26  O   UNL     1       5.282   3.089  16.100  0.00  0.00    +0.000 OA
ENDBRANCH  18  26
BRANCH  24  27
ATOM     27  O   UNL     1       6.575   4.168  18.093  0.00  0.00    +0.000 OA
ATOM     28  C   UNL     1       7.505   5.219  17.901  0.00  0.00    +0.000 C 
ENDBRANCH  24  27
ENDBRANCH   1  21
BRANCH   1  29
ATOM     29  C   UNL     1       1.588   5.716  20.764  0.00  0.00    +0.000 C 
BRANCH  29  30
ATOM     30  C   UNL     1       1.808   4.243  21.128  0.00  0.00    +0.000 C 
BRANCH  30  31
ATOM     31  O   UNL     1       0.741   3.420  20.677  0.00  0.00    +0.000 OA
ATOM     32  H   UNL     1       1.107   2.529  20.539  0.00  0.00    +0.000 HD
ENDBRANCH  30  31
ENDBRANCH  29  30
ENDBRANCH   1  29
TORSDOF 8
ENDMDL
MODEL 6
REMARK VINA RESULT:      -5.9      1.908      8.618
REMARK  Name = 
REMARK  13 active torsions:
REMARK  status: ('A' for Active; 'I' for Inactive)
REMARK    1  A    between atoms: C_1  and  O_2
REMARK    2  A    between atoms: O_2  and  C_3
REMARK    3  A    between atoms: C_6  and  N_7
REMARK    4  A    between atoms: N_7  and  C_8
REMARK    5  A    between atoms: C_8  and  C_9
REMARK    6  A    between atoms: C_9  and  O_10
REMARK    7  A    between atoms: C_11  and  C_13
REMARK    8  A    between atoms: C_18  and  O_19
REMARK    9  A    between atoms: O_19  and  C_20
REMARK   10  A    between atoms: C_23  and  C_24
REMARK   11  A    between atoms: C_23  and  C_25
REMARK   12  A    between atoms: C_29  and  O_30
REMARK   13  A    between atoms: O_30  and  C_31
REMARK                            x       y       z     vdW  Elec       q    Type
REMARK                         _______ _______ _______ _____ _____    ______ ____
ROOT
ATOM      1  N   UNL     1       0.067  10.751  19.815  0.00  0.00    +0.000 N 
ATOM      2  C   UNL     1       0.685  11.809  20.566  0.00  0.00    +0.000 C 
ATOM      3  O   UNL     1       1.885  11.824  20.826  0.00  0.00    +0.000 OA
ENDROOT
BRANCH   2   4
ATOM      4  C   UNL     1      -0.131  12.992  21.041  0.00  0.00    +0.000 A 
ATOM      5  C   UNL     1      -0.314  14.097  20.192  0.00  0.00    +0.000 A 
ATOM      6  C   UNL     1      -1.226  15.098  20.505  0.00  0.00    +0.000 A 
ATOM      7  C   UNL     1      -1.862  15.086  21.737  0.00  0.00    +0.000 A 
ATOM      8  C   UNL     1      -1.621  14.066  22.673  0.00  0.00    +0.000 A 
ATOM      9  C   UNL     1      -0.724  13.020  22.334  0.00  0.00    +0.000 A 
ATOM     10  C   UNL     1      -2.408  14.125  23.910  0.00  0.00    +0.000 C 
ATOM     11  C   UNL     1      -3.016  15.275  24.231  0.00  0.00    +0.000 C 
ATOM     12  C   UNL     1      -2.980  16.477  23.319  0.00  0.00    +0.000 C 
ATOM     13  C   UNL     1      -1.892  17.476  23.731  0.00  0.00    +0.000 C 
ATOM     14  C   UNL     1      -4.346  17.178  23.341  0.00  0.00    +0.000 C 
ATOM     15  O   UNL     1      -2.751  16.111  21.943  0.00  0.00    +0.000 OA
BRANCH   9  16
ATOM     16  O   UNL     1      -0.493  11.959  23.183  0.00  0.00    +0.000 OA
ATOM     17  C   UNL     1      -1.461  10.905  23.106  0.00  0.00    +0.000 C 
ENDBRANCH   9  16
ENDBRANCH   2   4
BRANCH   1  21
ATOM     18  C   UNL     1       2.644   7.605  18.524  0.00  0.00    +0.000 A 
ATOM     19  C   UNL     1       2.336   8.685  17.692  0.00  0.00    +0.000 A 
ATOM     20  C   UNL     1       1.452   9.683  18.119  0.00  0.00    +0.000 A 
ATOM     21  C   UNL     1       0.895   9.646  19.401  0.00  0.00    +0.000 A 
ATOM     22  C   UNL     1       1.209   8.554  20.239  0.00  0.00    +0.000 A 
ATOM     23  F   UNL     1       0.672   8.516  21.472  0.00  0.00    +0.000 F 
ATOM     24  C   UNL     1       2.047   7.510  19.797  0.00  0.00    +0.000 A 
BRANCH  18  26
ATOM     25  C   UNL     1       4.456   6.883  17.165  0.00  0.00    +0.000 C 
ATOM     26  O   UNL     1       3.465   6.570  18.136  0.00  0.00    +0.000 OA
ENDBRANCH  18  26
BRANCH  24  27
ATOM     27  O   UNL     1       2.387   6.381  20.505  0.00  0.00    +0.000 OA
ATOM     28  C   UNL     1       1.447   5.324  20.587  0.00  0.00    +0.000 C 
ENDBRANCH  24  27
ENDBRANCH   1  21
BRANCH   1  29
ATOM     29  C   UNL     1      -1.320  10.812  19.312  0.00  0.00    +0.000 C 
BRANCH  29  30
ATOM     30  C   UNL     1      -1.638  11.544  18.003  0.00  0.00    +0.000 C 
BRANCH  30  31
ATOM     31  O   UNL     1      -1.652  10.658  16.891  0.00  0.00    +0.000 OA
ATOM     32  H   UNL     1      -1.101   9.893  17.130  0.00  0.00    +0.000 HD
ENDBRANCH  30  31
ENDBRANCH  29  30
ENDBRANCH   1  29
TORSDOF 8
ENDMDL
MODEL 7
REMARK VINA RESULT:      -5.9      1.419      1.841
REMARK  Name = 
REMARK  13 active torsions:
REMARK  status: ('A' for Active; 'I' for Inactive)
REMARK    1  A    between atoms: C_1  and  O_2
REMARK    2  A    between atoms: O_2  and  C_3
REMARK    3  A    between atoms: C_6  and  N_7
REMARK    4  A    between atoms: N_7  and  C_8
REMARK    5  A    between atoms: C_8  and  C_9
REMARK    6  A    between atoms: C_9  and  O_10
REMARK    7  A    between atoms: C_11  and  C_13
REMARK    8  A    between atoms: C_18  and  O_19
REMARK    9  A    between atoms: O_19  and  C_20
REMARK   10  A    between atoms: C_23  and  C_24
REMARK   11  A    between atoms: C_23  and  C_25
REMARK   12  A    between atoms: C_29  and  O_30
REMARK   13  A    between atoms: O_30  and  C_31
REMARK                            x       y       z     vdW  Elec       q    Type
REMARK                         _______ _______ _______ _____ _____    ______ ____
ROOT
ATOM      1  N   UNL     1       0.761  12.457  20.164  0.00  0.00    +0.000 N 
ATOM      2  C   UNL     1      -0.010  11.286  19.848  0.00  0.00    +0.000 C 
ATOM      3  O   UNL     1      -1.235  11.256  19.932  0.00  0.00    +0.000 OA
ENDROOT
BRANCH   2   4
ATOM      4  C   UNL     1       0.671  10.029  19.350  0.00  0.00    +0.000 A 
ATOM      5  C   UNL     1       0.981   9.900  17.986  0.00  0.00    +0.000 A 
ATOM      6  C   UNL     1       1.791   8.867  17.529  0.00  0.00    +0.000 A 
ATOM      7  C   UNL     1       2.184   7.865  18.404  0.00  0.00    +0.000 A 
ATOM      8  C   UNL     1       1.798   7.884  19.755  0.00  0.00    +0.000 A 
ATOM      9  C   UNL     1       1.009   8.964  20.230  0.00  0.00    +0.000 A 
ATOM     10  C   UNL     1       2.336   6.808  20.596  0.00  0.00    +0.000 C 
ATOM     11  C   UNL     1       2.841   5.719  20.001  0.00  0.00    +0.000 C 
ATOM     12  C   UNL     1       2.947   5.608  18.499  0.00  0.00    +0.000 C 
ATOM     13  C   UNL     1       1.774   4.822  17.900  0.00  0.00    +0.000 C 
ATOM     14  C   UNL     1       4.265   4.914  18.128  0.00  0.00    +0.000 C 
ATOM     15  O   UNL     1       2.991   6.899  17.858  0.00  0.00    +0.000 OA
BRANCH   9  16
ATOM     16  O   UNL     1       0.650   9.071  21.556  0.00  0.00    +0.000 OA
ATOM     17  C   UNL     1      -0.599   8.455  21.893  0.00  0.00    +0.000 C 
ENDBRANCH   9  16
ENDBRANCH   2   4
BRANCH   1  21
ATOM     18  C   UNL     1      -1.179  15.931  21.704  0.00  0.00    +0.000 A 
ATOM     19  C   UNL     1      -0.578  14.994  22.550  0.00  0.00    +0.000 A 
ATOM     20  C   UNL     1       0.013  13.838  22.026  0.00  0.00    +0.000 A 
ATOM     21  C   UNL     1       0.056  13.618  20.645  0.00  0.00    +0.000 A 
ATOM     22  C   UNL     1      -0.552  14.567  19.794  0.00  0.00    +0.000 A 
ATOM     23  F   UNL     1      -0.514  14.355  18.466  0.00  0.00    +0.000 F 
ATOM     24  C   UNL     1      -1.207  15.702  20.313  0.00  0.00    +0.000 A 
BRANCH  18  26
ATOM     25  C   UNL     1      -2.909  16.840  23.058  0.00  0.00    +0.000 C 
ATOM     26  O   UNL     1      -1.820  17.057  22.168  0.00  0.00    +0.000 OA
ENDBRANCH  18  26
BRANCH  24  27
ATOM     27  O   UNL     1      -1.867  16.666  19.588  0.00  0.00    +0.000 OA
ATOM     28  C   UNL     1      -1.107  17.535  18.766  0.00  0.00    +0.000 C 
ENDBRANCH  24  27
ENDBRANCH   1  21
BRANCH   1  29
ATOM     29  C   UNL     1       2.203  12.584  19.873  0.00  0.00    +0.000 C 
BRANCH  29  30
ATOM     30  C   UNL     1       2.684  13.445  18.700  0.00  0.00    +0.000 C 
BRANCH  30  31
ATOM     31  O   UNL     1       2.264  12.917  17.448  0.00  0.00    +0.000 OA
ATOM     32  H   UNL     1       2.362  11.950  17.500  0.00  0.00    +0.000 HD
ENDBRANCH  30  31
ENDBRANCH  29  30
ENDBRANCH   1  29
TORSDOF 8
ENDMDL
MODEL 8
REMARK VINA RESULT:      -5.8      1.940      8.808
REMARK  Name = 
REMARK  13 active torsions:
REMARK  status: ('A' for Active; 'I' for Inactive)
REMARK    1  A    between atoms: C_1  and  O_2
REMARK    2  A    between atoms: O_2  and  C_3
REMARK    3  A    between atoms: C_6  and  N_7
REMARK    4  A    between atoms: N_7  and  C_8
REMARK    5  A    between atoms: C_8  and  C_9
REMARK    6  A    between atoms: C_9  and  O_10
REMARK    7  A    between atoms: C_11  and  C_13
REMARK    8  A    between atoms: C_18  and  O_19
REMARK    9  A    between atoms: O_19  and  C_20
REMARK   10  A    between atoms: C_23  and  C_24
REMARK   11  A    between atoms: C_23  and  C_25
REMARK   12  A    between atoms: C_29  and  O_30
REMARK   13  A    between atoms: O_30  and  C_31
REMARK                            x       y       z     vdW  Elec       q    Type
REMARK                         _______ _______ _______ _____ _____    ______ ____
ROOT
ATOM      1  N   UNL     1       0.044  10.380  19.920  0.00  0.00    +0.000 N 
ATOM      2  C   UNL     1       0.588  11.407  20.765  0.00  0.00    +0.000 C 
ATOM      3  O   UNL     1       1.778  11.455  21.067  0.00  0.00    +0.000 OA
ENDROOT
BRANCH   2   4
ATOM      4  C   UNL     1      -0.296  12.515  21.294  0.00  0.00    +0.000 A 
ATOM      5  C   UNL     1      -0.888  12.387  22.562  0.00  0.00    +0.000 A 
ATOM      6  C   UNL     1      -1.524  13.463  23.169  0.00  0.00    +0.000 A 
ATOM      7  C   UNL     1      -1.707  14.641  22.459  0.00  0.00    +0.000 A 
ATOM      8  C   UNL     1      -1.240  14.778  21.141  0.00  0.00    +0.000 A 
ATOM      9  C   UNL     1      -0.550  13.693  20.539  0.00  0.00    +0.000 A 
ATOM     10  C   UNL     1      -1.430  16.095  20.522  0.00  0.00    +0.000 C 
ATOM     11  C   UNL     1      -2.310  16.942  21.071  0.00  0.00    +0.000 C 
ATOM     12  C   UNL     1      -3.043  16.613  22.349  0.00  0.00    +0.000 C 
ATOM     13  C   UNL     1      -4.448  16.062  22.075  0.00  0.00    +0.000 C 
ATOM     14  C   UNL     1      -3.153  17.873  23.217  0.00  0.00    +0.000 C 
ATOM     15  O   UNL     1      -2.335  15.646  23.151  0.00  0.00    +0.000 OA
BRANCH   9  16
ATOM     16  O   UNL     1      -0.014  13.787  19.273  0.00  0.00    +0.000 OA
ATOM     17  C   UNL     1       1.254  14.449  19.204  0.00  0.00    +0.000 C 
ENDBRANCH   9  16
ENDBRANCH   2   4
BRANCH   1  21
ATOM     18  C   UNL     1       2.801   7.451  18.497  0.00  0.00    +0.000 A 
ATOM     19  C   UNL     1       2.458   8.567  17.727  0.00  0.00    +0.000 A 
ATOM     20  C   UNL     1       1.517   9.491  18.194  0.00  0.00    +0.000 A 
ATOM     21  C   UNL     1       0.934   9.345  19.458  0.00  0.00    +0.000 A 
ATOM     22  C   UNL     1       1.284   8.217  20.232  0.00  0.00    +0.000 A 
ATOM     23  F   UNL     1       0.722   8.073  21.446  0.00  0.00    +0.000 F 
ATOM     24  C   UNL     1       2.181   7.245  19.746  0.00  0.00    +0.000 A 
BRANCH  18  26
ATOM     25  C   UNL     1       4.569   6.863  17.019  0.00  0.00    +0.000 C 
ATOM     26  O   UNL     1       3.680   6.484  18.065  0.00  0.00    +0.000 OA
ENDBRANCH  18  26
BRANCH  24  27
ATOM     27  O   UNL     1       2.561   6.090  20.389  0.00  0.00    +0.000 OA
ATOM     28  C   UNL     1       1.608   5.051  20.535  0.00  0.00    +0.000 C 
ENDBRANCH  24  27
ENDBRANCH   1  21
BRANCH   1  29
ATOM     29  C   UNL     1      -1.328  10.417  19.375  0.00  0.00    +0.000 C 
BRANCH  29  30
ATOM     30  C   UNL     1      -1.563  10.678  17.883  0.00  0.00    +0.000 C 
BRANCH  30  31
ATOM     31  O   UNL     1      -1.159  11.988  17.505  0.00  0.00    +0.000 OA
ATOM     32  H   UNL     1      -0.262  12.122  17.856  0.00  0.00    +0.000 HD
ENDBRANCH  30  31
ENDBRANCH  29  30
ENDBRANCH   1  29
TORSDOF 8
ENDMDL
MODEL 9
REMARK VINA RESULT:      -5.8      1.814      2.731
REMARK  Name = 
REMARK  13 active torsions:
REMARK  status: ('A' for Active; 'I' for Inactive)
REMARK    1  A    between atoms: C_1  and  O_2
REMARK    2  A    between atoms: O_2  and  C_3
REMARK    3  A    between atoms: C_6  and  N_7
REMARK    4  A    between atoms: N_7  and  C_8
REMARK    5  A    between atoms: C_8  and  C_9
REMARK    6  A    between atoms: C_9  and  O_10
REMARK    7  A    between atoms: C_11  and  C_13
REMARK    8  A    between atoms: C_18  and  O_19
REMARK    9  A    between atoms: O_19  and  C_20
REMARK   10  A    between atoms: C_23  and  C_24
REMARK   11  A    between atoms: C_23  and  C_25
REMARK   12  A    between atoms: C_29  and  O_30
REMARK   13  A    between atoms: O_30  and  C_31
REMARK                            x       y       z     vdW  Elec       q    Type
REMARK                         _______ _______ _______ _____ _____    ______ ____
ROOT
ATOM      1  N   UNL     1       0.271  12.348  20.615  0.00  0.00    +0.000 N 
ATOM      2  C   UNL     1      -0.363  11.238  19.958  0.00  0.00    +0.000 C 
ATOM      3  O   UNL     1      -1.566  11.212  19.711  0.00  0.00    +0.000 OA
ENDROOT
BRANCH   2   4
ATOM      4  C   UNL     1       0.454  10.049  19.500  0.00  0.00    +0.000 A 
ATOM      5  C   UNL     1       1.052  10.065  18.229  0.00  0.00    +0.000 A 
ATOM      6  C   UNL     1       1.978   9.096  17.860  0.00  0.00    +0.000 A 
ATOM      7  C   UNL     1       2.211   8.016  18.697  0.00  0.00    +0.000 A 
ATOM      8  C   UNL     1       1.545   7.890  19.928  0.00  0.00    +0.000 A 
ATOM      9  C   UNL     1       0.634   8.904  20.324  0.00  0.00    +0.000 A 
ATOM     10  C   UNL     1       1.930   6.741  20.756  0.00  0.00    +0.000 C 
ATOM     11  C   UNL     1       2.589   5.727  20.182  0.00  0.00    +0.000 C 
ATOM     12  C   UNL     1       3.017   5.772  18.735  0.00  0.00    +0.000 C 
ATOM     13  C   UNL     1       2.029   5.035  17.823  0.00  0.00    +0.000 C 
ATOM     14  C   UNL     1       4.408   5.138  18.591  0.00  0.00    +0.000 C 
ATOM     15  O   UNL     1       3.151   7.123  18.247  0.00  0.00    +0.000 OA
BRANCH   9  16
ATOM     16  O   UNL     1      -0.004   8.869  21.545  0.00  0.00    +0.000 OA
ATOM     17  C   UNL     1       0.778   9.351  22.645  0.00  0.00    +0.000 C 
ENDBRANCH   9  16
ENDBRANCH   2   4
BRANCH   1  21
ATOM     18  C   UNL     1      -2.294  15.577  21.710  0.00  0.00    +0.000 A 
ATOM     19  C   UNL     1      -1.729  15.493  20.434  0.00  0.00    +0.000 A 
ATOM     20  C   UNL     1      -0.854  14.450  20.111  0.00  0.00    +0.000 A 
ATOM     21  C   UNL     1      -0.562  13.445  21.040  0.00  0.00    +0.000 A 
ATOM     22  C   UNL     1      -1.135  13.533  22.327  0.00  0.00    +0.000 A 
ATOM     23  F   UNL     1      -0.854  12.570  23.222  0.00  0.00    +0.000 F 
ATOM     24  C   UNL     1      -1.967  14.614  22.685  0.00  0.00    +0.000 A 
BRANCH  18  26
ATOM     25  C   UNL     1      -2.552  17.914  22.063  0.00  0.00    +0.000 C 
ATOM     26  O   UNL     1      -3.118  16.609  22.098  0.00  0.00    +0.000 OA
ENDBRANCH  18  26
BRANCH  24  27
ATOM     27  O   UNL     1      -2.543  14.827  23.915  0.00  0.00    +0.000 OA
ATOM     28  C   UNL     1      -3.551  13.933  24.356  0.00  0.00    +0.000 C 
ENDBRANCH  24  27
ENDBRANCH   1  21
BRANCH   1  29
ATOM     29  C   UNL     1       1.735  12.495  20.735  0.00  0.00    +0.000 C 
BRANCH  29  30
ATOM     30  C   UNL     1       2.494  13.466  19.823  0.00  0.00    +0.000 C 
BRANCH  30  31
ATOM     31  O   UNL     1       2.090  13.344  18.466  0.00  0.00    +0.000 OA
ATOM     32  H   UNL     1       2.236  12.417  18.208  0.00  0.00    +0.000 HD
ENDBRANCH  30  31
ENDBRANCH  29  30
ENDBRANCH   1  29
TORSDOF 8
ENDMDL
