MODEL 1
REMARK VINA RESULT:      -6.6      0.000      0.000
REMARK  Name = 
REMARK  8 active torsions:
REMARK  status: ('A' for Active; 'I' for Inactive)
REMARK    1  A    between atoms: C_1  and  N_2
REMARK    2  A    between atoms: C_3  and  C_5
REMARK    3  A    between atoms: C_5  and  C_6
REMARK    4  A    between atoms: C_6  and  N_7
REMARK    5  A    between atoms: N_7  and  C_8
REMARK    6  A    between atoms: N_7  and  C_9
REMARK    7  A    between atoms: C_9  and  C_10
REMARK    8  A    between atoms: C_13  and  C_14
REMARK                            x       y       z     vdW  Elec       q    Type
REMARK                         _______ _______ _______ _____ _____    ______ ____
ROOT
ATOM      1  C   UNL     1       5.454   6.695  16.642  0.00  0.00    +0.000 C 
ENDROOT
BRANCH   1   2
ATOM      2  C   UNL     1       4.268   6.589  17.564  0.00  0.00    +0.000 A 
ATOM      3  C   UNL     1       3.260   7.514  17.744  0.00  0.00    +0.000 A 
ATOM      4  C   UNL     1       2.222   7.020  18.575  0.00  0.00    +0.000 A 
ATOM      5  C   UNL     1       2.473   5.745  19.042  0.00  0.00    +0.000 A 
ATOM      6  S   UNL     1       3.979   5.163  18.472  0.00  0.00    +0.000 S 
BRANCH   5   7
ATOM      7  C   UNL     1       1.613   4.910  19.951  0.00  0.00    +0.000 C 
ATOM      8  C   UNL     1       1.216   3.589  19.292  0.00  0.00    +0.000 C 
ATOM      9  C   UNL     1       0.838   2.683  20.454  0.00  0.00    +0.000 C 
ATOM     10  C   UNL     1       1.659   3.163  21.647  0.00  0.00    +0.000 C 
ATOM     11  C   UNL     1       2.351   4.453  21.214  0.00  0.00    +0.000 C 
ENDBRANCH   5   7
ENDBRANCH   1   2
BRANCH   1  12
ATOM     12  N   UNL     1       6.706   6.344  17.348  0.00  0.00    +0.000 NA
ATOM     13  C   UNL     1       7.613   7.494  17.463  0.00  0.00    +0.000 C 
BRANCH  12  14
ATOM     14  C   UNL     1       7.365   5.182  16.704  0.00  0.00    +0.000 C 
BRANCH  14  15
ATOM     15  C   UNL     1       6.426   4.348  15.820  0.00  0.00    +0.000 C 
BRANCH  15  18
ATOM     16  C   UNL     1       8.100   5.623  12.649  0.00  0.00    +0.000 C 
ATOM     17  N   UNL     1       7.682   5.382  14.001  0.00  0.00    +0.000 N 
ATOM     18  C   UNL     1       6.722   4.463  14.329  0.00  0.00    +0.000 C 
ATOM     19  O   UNL     1       6.086   3.822  13.498  0.00  0.00    +0.000 OA
ATOM     20  H   UNL     1       8.153   5.870  14.760  0.00  0.00    +0.000 HD
ENDBRANCH  15  18
ENDBRANCH  14  15
ENDBRANCH  12  14
ENDBRANCH   1  12
TORSDOF 6
ENDMDL
MODEL 2
REMARK VINA RESULT:      -6.6      2.744      6.654
REMARK  Name = 
REMARK  8 active torsions:
REMARK  status: ('A' for Active; 'I' for Inactive)
REMARK    1  A    between atoms: C_1  and  N_2
REMARK    2  A    between atoms: C_3  and  C_5
REMARK    3  A    between atoms: C_5  and  C_6
REMARK    4  A    between atoms: C_6  and  N_7
REMARK    5  A    between atoms: N_7  and  C_8
REMARK    6  A    between atoms: N_7  and  C_9
REMARK    7  A    between atoms: C_9  and  C_10
REMARK    8  A    between atoms: C_13  and  C_14
REMARK                            x       y       z     vdW  Elec       q    Type
REMARK                         _______ _______ _______ _____ _____    ______ ____
ROOT
ATOM      1  C   UNL     1       4.552   5.738  19.263  0.00  0.00    +0.000 C 
ENDROOT
BRANCH   1   2
ATOM      2  C   UNL     1       5.332   5.624  17.979  0.00  0.00    +0.000 A 
ATOM      3  C   UNL     1       6.440   6.355  17.603  0.00  0.00    +0.000 A 
ATOM      4  C   UNL     1       7.011   5.879  16.395  0.00  0.00    +0.000 A 
ATOM      5  C   UNL     1       6.307   4.822  15.852  0.00  0.00    +0.000 A 
ATOM      6  S   UNL     1       4.949   4.423  16.816  0.00  0.00    +0.000 S 
BRANCH   5   7
ATOM      7  C   UNL     1       6.601   4.074  14.582  0.00  0.00    +0.000 C 
ATOM      8  C   UNL     1       5.325   3.778  13.794  0.00  0.00    +0.000 C 
ATOM      9  C   UNL     1       5.804   3.524  12.374  0.00  0.00    +0.000 C 
ATOM     10  C   UNL     1       7.084   4.337  12.208  0.00  0.00    +0.000 C 
ATOM     11  C   UNL     1       7.433   4.892  13.587  0.00  0.00    +0.000 C 
ENDBRANCH   5   7
ENDBRANCH   1   2
BRANCH   1  12
ATOM     12  N   UNL     1       3.104   5.561  19.021  0.00  0.00    +0.000 NA
ATOM     13  C   UNL     1       2.496   6.760  18.426  0.00  0.00    +0.000 C 
BRANCH  12  14
ATOM     14  C   UNL     1       2.408   5.148  20.263  0.00  0.00    +0.000 C 
BRANCH  14  15
ATOM     15  C   UNL     1       1.226   4.197  20.024  0.00  0.00    +0.000 C 
BRANCH  15  18
ATOM     16  C   UNL     1       3.376   1.475  18.460  0.00  0.00    +0.000 C 
ATOM     17  N   UNL     1       2.872   2.591  19.209  0.00  0.00    +0.000 N 
ATOM     18  C   UNL     1       1.566   2.999  19.145  0.00  0.00    +0.000 C 
ATOM     19  O   UNL     1       0.736   2.499  18.393  0.00  0.00    +0.000 OA
ATOM     20  H   UNL     1       3.490   3.070  19.860  0.00  0.00    +0.000 HD
ENDBRANCH  15  18
ENDBRANCH  14  15
ENDBRANCH  12  14
ENDBRANCH   1  12
TORSDOF 6
ENDMDL
MODEL 3
REMARK VINA RESULT:      -6.6      1.525      1.697
REMARK  Name = 
REMARK  8 active torsions:
REMARK  status: ('A' for Active; 'I' for Inactive)
REMARK    1  A    between atoms: C_1  and  N_2
REMARK    2  A    between atoms: C_3  and  C_5
REMARK    3  A    between atoms: C_5  and  C_6
REMARK    4  A    between atoms: C_6  and  N_7
REMARK    5  A    between atoms: N_7  and  C_8
REMARK    6  A    between atoms: N_7  and  C_9
REMARK    7  A    between atoms: C_9  and  C_10
REMARK    8  A    between atoms: C_13  and  C_14
REMARK                            x       y       z     vdW  Elec       q    Type
REMARK                         _______ _______ _______ _____ _____    ______ ____
ROOT
ATOM      1  C   UNL     1       5.111   6.512  15.976  0.00  0.00    +0.000 C 
ENDROOT
BRANCH   1   2
ATOM      2  C   UNL     1       4.146   6.440  17.131  0.00  0.00    +0.000 A 
ATOM      3  C   UNL     1       3.457   7.484  17.715  0.00  0.00    +0.000 A 
ATOM      4  C   UNL     1       2.518   7.033  18.677  0.00  0.00    +0.000 A 
ATOM      5  C   UNL     1       2.534   5.661  18.838  0.00  0.00    +0.000 A 
ATOM      6  S   UNL     1       3.702   4.933  17.819  0.00  0.00    +0.000 S 
BRANCH   5   7
ATOM      7  C   UNL     1       1.695   4.832  19.771  0.00  0.00    +0.000 C 
ATOM      8  C   UNL     1       1.415   3.445  19.193  0.00  0.00    +0.000 C 
ATOM      9  C   UNL     1       1.050   2.596  20.401  0.00  0.00    +0.000 C 
ATOM     10  C   UNL     1       1.787   3.212  21.587  0.00  0.00    +0.000 C 
ATOM     11  C   UNL     1       2.409   4.515  21.090  0.00  0.00    +0.000 C 
ENDBRANCH   5   7
ENDBRANCH   1   2
BRANCH   1  12
ATOM     12  N   UNL     1       6.250   5.590  16.181  0.00  0.00    +0.000 NA
ATOM     13  C   UNL     1       7.284   6.178  17.043  0.00  0.00    +0.000 C 
BRANCH  12  14
ATOM     14  C   UNL     1       6.804   5.141  14.881  0.00  0.00    +0.000 C 
BRANCH  14  15
ATOM     15  C   UNL     1       6.270   3.778  14.417  0.00  0.00    +0.000 C 
BRANCH  15  18
ATOM     16  C   UNL     1       4.275   3.260  11.218  0.00  0.00    +0.000 C 
ATOM     17  N   UNL     1       4.717   3.373  12.579  0.00  0.00    +0.000 N 
ATOM     18  C   UNL     1       6.003   3.698  12.918  0.00  0.00    +0.000 C 
ATOM     19  O   UNL     1       6.902   3.847  12.098  0.00  0.00    +0.000 OA
ATOM     20  H   UNL     1       4.039   3.264  13.331  0.00  0.00    +0.000 HD
ENDBRANCH  15  18
ENDBRANCH  14  15
ENDBRANCH  12  14
ENDBRANCH   1  12
TORSDOF 6
ENDMDL
MODEL 4
REMARK VINA RESULT:      -6.3      3.848      5.973
REMARK  Name = 
REMARK  8 active torsions:
REMARK  status: ('A' for Active; 'I' for Inactive)
REMARK    1  A    between atoms: C_1  and  N_2
REMARK    2  A    between atoms: C_3  and  C_5
REMARK    3  A    between atoms: C_5  and  C_6
REMARK    4  A    between atoms: C_6  and  N_7
REMARK    5  A    between atoms: N_7  and  C_8
REMARK    6  A    between atoms: N_7  and  C_9
REMARK    7  A    between atoms: C_9  and  C_10
REMARK    8  A    between atoms: C_13  and  C_14
REMARK                            x       y       z     vdW  Elec       q    Type
REMARK                         _______ _______ _______ _____ _____    ______ ____
ROOT
ATOM      1  C   UNL     1       3.714   6.585  17.837  0.00  0.00    +0.000 C 
ENDROOT
BRANCH   1   2
ATOM      2  C   UNL     1       2.764   7.599  18.418  0.00  0.00    +0.000 A 
ATOM      3  C   UNL     1       2.293   8.749  17.818  0.00  0.00    +0.000 A 
ATOM      4  C   UNL     1       1.295   9.388  18.596  0.00  0.00    +0.000 A 
ATOM      5  C   UNL     1       1.050   8.739  19.790  0.00  0.00    +0.000 A 
ATOM      6  S   UNL     1       2.047   7.357  19.958  0.00  0.00    +0.000 S 
BRANCH   5   7
ATOM      7  C   UNL     1       0.077   9.128  20.869  0.00  0.00    +0.000 C 
ATOM      8  C   UNL     1       0.673   8.925  22.262  0.00  0.00    +0.000 C 
ATOM      9  C   UNL     1      -0.165   9.816  23.167  0.00  0.00    +0.000 C 
ATOM     10  C   UNL     1      -0.655  10.965  22.291  0.00  0.00    +0.000 C 
ATOM     11  C   UNL     1      -0.260  10.623  20.856  0.00  0.00    +0.000 C 
ENDBRANCH   5   7
ENDBRANCH   1   2
BRANCH   1  12
ATOM     12  N   UNL     1       3.486   5.247  18.425  0.00  0.00    +0.000 NA
ATOM     13  C   UNL     1       4.739   4.617  18.861  0.00  0.00    +0.000 C 
BRANCH  12  14
ATOM     14  C   UNL     1       2.728   4.382  17.490  0.00  0.00    +0.000 C 
BRANCH  14  15
ATOM     15  C   UNL     1       1.399   3.865  18.061  0.00  0.00    +0.000 C 
BRANCH  15  18
ATOM     16  C   UNL     1       1.580   2.910  21.740  0.00  0.00    +0.000 C 
ATOM     17  N   UNL     1       1.463   3.598  20.486  0.00  0.00    +0.000 N 
ATOM     18  C   UNL     1       1.562   2.961  19.277  0.00  0.00    +0.000 C 
ATOM     19  O   UNL     1       1.833   1.770  19.160  0.00  0.00    +0.000 OA
ATOM     20  H   UNL     1       1.240   4.591  20.484  0.00  0.00    +0.000 HD
ENDBRANCH  15  18
ENDBRANCH  14  15
ENDBRANCH  12  14
ENDBRANCH   1  12
TORSDOF 6
ENDMDL
MODEL 5
REMARK VINA RESULT:      -6.3      0.985      1.131
REMARK  Name = 
REMARK  8 active torsions:
REMARK  status: ('A' for Active; 'I' for Inactive)
REMARK    1  A    between atoms: C_1  and  N_2
REMARK    2  A    between atoms: C_3  and  C_5
REMARK    3  A    between atoms: C_5  and  C_6
REMARK    4  A    between atoms: C_6  and  N_7
REMARK    5  A    between atoms: N_7  and  C_8
REMARK    6  A    between atoms: N_7  and  C_9
REMARK    7  A    between atoms: C_9  and  C_10
REMARK    8  A    between atoms: C_13  and  C_14
REMARK                            x       y       z     vdW  Elec       q    Type
REMARK                         _______ _______ _______ _____ _____    ______ ____
ROOT
ATOM      1  C   UNL     1       5.557   6.588  16.647  0.00  0.00    +0.000 C 
ENDROOT
BRANCH   1   2
ATOM      2  C   UNL     1       4.357   6.498  17.552  0.00  0.00    +0.000 A 
ATOM      3  C   UNL     1       3.342   7.422  17.695  0.00  0.00    +0.000 A 
ATOM      4  C   UNL     1       2.293   6.943  18.520  0.00  0.00    +0.000 A 
ATOM      5  C   UNL     1       2.542   5.680  19.022  0.00  0.00    +0.000 A 
ATOM      6  S   UNL     1       4.060   5.093  18.490  0.00  0.00    +0.000 S 
BRANCH   5   7
ATOM      7  C   UNL     1       1.672   4.863  19.937  0.00  0.00    +0.000 C 
ATOM      8  C   UNL     1       1.258   3.543  19.287  0.00  0.00    +0.000 C 
ATOM      9  C   UNL     1       0.868   2.650  20.455  0.00  0.00    +0.000 C 
ATOM     10  C   UNL     1       1.696   3.127  21.645  0.00  0.00    +0.000 C 
ATOM     11  C   UNL     1       2.404   4.405  21.203  0.00  0.00    +0.000 C 
ENDBRANCH   5   7
ENDBRANCH   1   2
BRANCH   1  12
ATOM     12  N   UNL     1       6.720   5.891  17.240  0.00  0.00    +0.000 NA
ATOM     13  C   UNL     1       7.809   6.821  17.569  0.00  0.00    +0.000 C 
BRANCH  12  14
ATOM     14  C   UNL     1       7.180   4.792  16.358  0.00  0.00    +0.000 C 
BRANCH  14  15
ATOM     15  C   UNL     1       7.075   5.113  14.860  0.00  0.00    +0.000 C 
BRANCH  15  18
ATOM     16  C   UNL     1       5.828   2.833  12.081  0.00  0.00    +0.000 C 
ATOM     17  N   UNL     1       6.591   3.707  12.925  0.00  0.00    +0.000 N 
ATOM     18  C   UNL     1       6.107   4.211  14.103  0.00  0.00    +0.000 C 
ATOM     19  O   UNL     1       4.962   4.022  14.501  0.00  0.00    +0.000 OA
ATOM     20  H   UNL     1       7.553   3.923  12.674  0.00  0.00    +0.000 HD
ENDBRANCH  15  18
ENDBRANCH  14  15
ENDBRANCH  12  14
ENDBRANCH   1  12
TORSDOF 6
ENDMDL
MODEL 6
REMARK VINA RESULT:      -6.2      2.876      4.232
REMARK  Name = 
REMARK  8 active torsions:
REMARK  status: ('A' for Active; 'I' for Inactive)
REMARK    1  A    between atoms: C_1  and  N_2
REMARK    2  A    between atoms: C_3  and  C_5
REMARK    3  A    between atoms: C_5  and  C_6
REMARK    4  A    between atoms: C_6  and  N_7
REMARK    5  A    between atoms: N_7  and  C_8
REMARK    6  A    between atoms: N_7  and  C_9
REMARK    7  A    between atoms: C_9  and  C_10
REMARK    8  A    between atoms: C_13  and  C_14
REMARK                            x       y       z     vdW  Elec       q    Type
REMARK                         _______ _______ _______ _____ _____    ______ ____
ROOT
ATOM      1  C   UNL     1       6.137   6.477  16.197  0.00  0.00    +0.000 C 
ENDROOT
BRANCH   1   2
ATOM      2  C   UNL     1       4.867   6.291  16.986  0.00  0.00    +0.000 A 
ATOM      3  C   UNL     1       4.068   7.273  17.534  0.00  0.00    +0.000 A 
ATOM      4  C   UNL     1       2.869   6.746  18.079  0.00  0.00    +0.000 A 
ATOM      5  C   UNL     1       2.793   5.371  17.971  0.00  0.00    +0.000 A 
ATOM      6  S   UNL     1       4.189   4.731  17.214  0.00  0.00    +0.000 S 
BRANCH   5   7
ATOM      7  C   UNL     1       1.686   4.469  18.444  0.00  0.00    +0.000 C 
ATOM      8  C   UNL     1       1.926   3.018  18.027  0.00  0.00    +0.000 C 
ATOM      9  C   UNL     1       1.069   2.201  18.981  0.00  0.00    +0.000 C 
ATOM     10  C   UNL     1       0.972   3.018  20.266  0.00  0.00    +0.000 C 
ATOM     11  C   UNL     1       1.607   4.375  19.972  0.00  0.00    +0.000 C 
ENDBRANCH   5   7
ENDBRANCH   1   2
BRANCH   1  12
ATOM     12  N   UNL     1       7.296   6.662  17.096  0.00  0.00    +0.000 NA
ATOM     13  C   UNL     1       7.172   5.866  18.325  0.00  0.00    +0.000 C 
BRANCH  12  14
ATOM     14  C   UNL     1       7.511   8.100  17.388  0.00  0.00    +0.000 C 
BRANCH  14  15
ATOM     15  C   UNL     1       8.530   8.359  18.509  0.00  0.00    +0.000 C 
BRANCH  15  18
ATOM     16  C   UNL     1       9.802  11.463  20.304  0.00  0.00    +0.000 C 
ATOM     17  N   UNL     1       9.424  10.131  19.928  0.00  0.00    +0.000 N 
ATOM     18  C   UNL     1       8.848   9.835  18.722  0.00  0.00    +0.000 C 
ATOM     19  O   UNL     1       8.538  10.684  17.893  0.00  0.00    +0.000 OA
ATOM     20  H   UNL     1       9.640   9.359  20.555  0.00  0.00    +0.000 HD
ENDBRANCH  15  18
ENDBRANCH  14  15
ENDBRANCH  12  14
ENDBRANCH   1  12
TORSDOF 6
ENDMDL
MODEL 7
REMARK VINA RESULT:      -6.2      2.178      2.814
REMARK  Name = 
REMARK  8 active torsions:
REMARK  status: ('A' for Active; 'I' for Inactive)
REMARK    1  A    between atoms: C_1  and  N_2
REMARK    2  A    between atoms: C_3  and  C_5
REMARK    3  A    between atoms: C_5  and  C_6
REMARK    4  A    between atoms: C_6  and  N_7
REMARK    5  A    between atoms: N_7  and  C_8
REMARK    6  A    between atoms: N_7  and  C_9
REMARK    7  A    between atoms: C_9  and  C_10
REMARK    8  A    between atoms: C_13  and  C_14
REMARK                            x       y       z     vdW  Elec       q    Type
REMARK                         _______ _______ _______ _____ _____    ______ ____
ROOT
ATOM      1  C   UNL     1       7.265   4.806  16.382  0.00  0.00    +0.000 C 
ENDROOT
BRANCH   1   2
ATOM      2  C   UNL     1       6.194   4.681  17.434  0.00  0.00    +0.000 A 
ATOM      3  C   UNL     1       6.050   5.438  18.579  0.00  0.00    +0.000 A 
ATOM      4  C   UNL     1       4.842   5.149  19.263  0.00  0.00    +0.000 A 
ATOM      5  C   UNL     1       4.106   4.153  18.651  0.00  0.00    +0.000 A 
ATOM      6  S   UNL     1       4.900   3.570  17.250  0.00  0.00    +0.000 S 
BRANCH   5   7
ATOM      7  C   UNL     1       2.790   3.575  19.092  0.00  0.00    +0.000 C 
ATOM      8  C   UNL     1       2.931   2.780  20.390  0.00  0.00    +0.000 C 
ATOM      9  C   UNL     1       1.522   2.727  20.959  0.00  0.00    +0.000 C 
ATOM     10  C   UNL     1       0.819   3.988  20.463  0.00  0.00    +0.000 C 
ATOM     11  C   UNL     1       1.762   4.650  19.461  0.00  0.00    +0.000 C 
ENDBRANCH   5   7
ENDBRANCH   1   2
BRANCH   1  12
ATOM     12  N   UNL     1       6.700   5.304  15.109  0.00  0.00    +0.000 NA
ATOM     13  C   UNL     1       5.396   5.953  15.302  0.00  0.00    +0.000 C 
BRANCH  12  14
ATOM     14  C   UNL     1       6.632   4.217  14.103  0.00  0.00    +0.000 C 
BRANCH  14  15
ATOM     15  C   UNL     1       5.284   4.132  13.372  0.00  0.00    +0.000 C 
BRANCH  15  18
ATOM     16  C   UNL     1       6.588   1.428  11.033  0.00  0.00    +0.000 C 
ATOM     17  N   UNL     1       6.412   2.399  12.075  0.00  0.00    +0.000 N 
ATOM     18  C   UNL     1       5.283   3.166  12.192  0.00  0.00    +0.000 C 
ATOM     19  O   UNL     1       4.363   3.144  11.381  0.00  0.00    +0.000 OA
ATOM     20  H   UNL     1       7.126   2.489  12.794  0.00  0.00    +0.000 HD
ENDBRANCH  15  18
ENDBRANCH  14  15
ENDBRANCH  12  14
ENDBRANCH   1  12
TORSDOF 6
ENDMDL
MODEL 8
REMARK VINA RESULT:      -6.1      3.791      5.963
REMARK  Name = 
REMARK  8 active torsions:
REMARK  status: ('A' for Active; 'I' for Inactive)
REMARK    1  A    between atoms: C_1  and  N_2
REMARK    2  A    between atoms: C_3  and  C_5
REMARK    3  A    between atoms: C_5  and  C_6
REMARK    4  A    between atoms: C_6  and  N_7
REMARK    5  A    between atoms: N_7  and  C_8
REMARK    6  A    between atoms: N_7  and  C_9
REMARK    7  A    between atoms: C_9  and  C_10
REMARK    8  A    between atoms: C_13  and  C_14
REMARK                            x       y       z     vdW  Elec       q    Type
REMARK                         _______ _______ _______ _____ _____    ______ ____
ROOT
ATOM      1  C   UNL     1       3.768   5.936  17.658  0.00  0.00    +0.000 C 
ENDROOT
BRANCH   1   2
ATOM      2  C   UNL     1       2.868   6.772  18.530  0.00  0.00    +0.000 A 
ATOM      3  C   UNL     1       2.393   6.461  19.787  0.00  0.00    +0.000 A 
ATOM      4  C   UNL     1       1.697   7.545  20.380  0.00  0.00    +0.000 A 
ATOM      5  C   UNL     1       1.620   8.648  19.551  0.00  0.00    +0.000 A 
ATOM      6  S   UNL     1       2.391   8.348  18.051  0.00  0.00    +0.000 S 
BRANCH   5   7
ATOM      7  C   UNL     1       0.953   9.966  19.830  0.00  0.00    +0.000 C 
ATOM      8  C   UNL     1      -0.342  10.120  19.032  0.00  0.00    +0.000 C 
ATOM      9  C   UNL     1      -1.127  11.185  19.782  0.00  0.00    +0.000 C 
ATOM     10  C   UNL     1      -0.689  11.083  21.241  0.00  0.00    +0.000 C 
ATOM     11  C   UNL     1       0.477  10.098  21.281  0.00  0.00    +0.000 C 
ENDBRANCH   5   7
ENDBRANCH   1   2
BRANCH   1  12
ATOM     12  N   UNL     1       3.741   4.517  18.076  0.00  0.00    +0.000 NA
ATOM     13  C   UNL     1       5.085   4.007  18.379  0.00  0.00    +0.000 C 
BRANCH  12  14
ATOM     14  C   UNL     1       3.048   3.683  17.065  0.00  0.00    +0.000 C 
BRANCH  14  15
ATOM     15  C   UNL     1       2.640   2.295  17.580  0.00  0.00    +0.000 C 
BRANCH  15  18
ATOM     16  C   UNL     1       1.408   2.647  21.163  0.00  0.00    +0.000 C 
ATOM     17  N   UNL     1       2.191   2.567  19.964  0.00  0.00    +0.000 N 
ATOM     18  C   UNL     1       1.641   2.335  18.731  0.00  0.00    +0.000 C 
ATOM     19  O   UNL     1       0.449   2.104  18.555  0.00  0.00    +0.000 OA
ATOM     20  H   UNL     1       3.192   2.743  20.012  0.00  0.00    +0.000 HD
ENDBRANCH  15  18
ENDBRANCH  14  15
ENDBRANCH  12  14
ENDBRANCH   1  12
TORSDOF 6
ENDMDL
MODEL 9
REMARK VINA RESULT:      -6.1      1.964      2.436
REMARK  Name = 
REMARK  8 active torsions:
REMARK  status: ('A' for Active; 'I' for Inactive)
REMARK    1  A    between atoms: C_1  and  N_2
REMARK    2  A    between atoms: C_3  and  C_5
REMARK    3  A    between atoms: C_5  and  C_6
REMARK    4  A    between atoms: C_6  and  N_7
REMARK    5  A    between atoms: N_7  and  C_8
REMARK    6  A    between atoms: N_7  and  C_9
REMARK    7  A    between atoms: C_9  and  C_10
REMARK    8  A    between atoms: C_13  and  C_14
REMARK                            x       y       z     vdW  Elec       q    Type
REMARK                         _______ _______ _______ _____ _____    ______ ____
ROOT
ATOM      1  C   UNL     1       7.237   4.514  16.793  0.00  0.00    +0.000 C 
ENDROOT
BRANCH   1   2
ATOM      2  C   UNL     1       6.082   4.567  17.759  0.00  0.00    +0.000 A 
ATOM      3  C   UNL     1       6.049   5.183  18.993  0.00  0.00    +0.000 A 
ATOM      4  C   UNL     1       4.751   5.167  19.565  0.00  0.00    +0.000 A 
ATOM      5  C   UNL     1       3.828   4.508  18.776  0.00  0.00    +0.000 A 
ATOM      6  S   UNL     1       4.555   3.905  17.347  0.00  0.00    +0.000 S 
BRANCH   5   7
ATOM      7  C   UNL     1       2.369   4.279  19.060  0.00  0.00    +0.000 C 
ATOM      8  C   UNL     1       1.845   3.036  18.340  0.00  0.00    +0.000 C 
ATOM      9  C   UNL     1       0.589   2.654  19.109  0.00  0.00    +0.000 C 
ATOM     10  C   UNL     1       0.806   3.139  20.539  0.00  0.00    +0.000 C 
ATOM     11  C   UNL     1       2.091   3.964  20.533  0.00  0.00    +0.000 C 
ENDBRANCH   5   7
ENDBRANCH   1   2
BRANCH   1  12
ATOM     12  N   UNL     1       7.196   5.658  15.856  0.00  0.00    +0.000 NA
ATOM     13  C   UNL     1       6.732   6.888  16.510  0.00  0.00    +0.000 C 
BRANCH  12  14
ATOM     14  C   UNL     1       6.386   5.329  14.658  0.00  0.00    +0.000 C 
BRANCH  14  15
ATOM     15  C   UNL     1       6.500   3.862  14.217  0.00  0.00    +0.000 C 
BRANCH  15  18
ATOM     16  C   UNL     1       4.179   3.247  11.264  0.00  0.00    +0.000 C 
ATOM     17  N   UNL     1       4.749   3.471  12.562  0.00  0.00    +0.000 N 
ATOM     18  C   UNL     1       6.094   3.623  12.767  0.00  0.00    +0.000 C 
ATOM     19  O   UNL     1       6.931   3.507  11.877  0.00  0.00    +0.000 OA
ATOM     20  H   UNL     1       4.130   3.579  13.363  0.00  0.00    +0.000 HD
ENDBRANCH  15  18
ENDBRANCH  14  15
ENDBRANCH  12  14
ENDBRANCH   1  12
TORSDOF 6
ENDMDL
