MODEL 1
REMARK VINA RESULT:      -7.6      0.000      0.000
REMARK  Name = 
REMARK  7 active torsions:
REMARK  status: ('A' for Active; 'I' for Inactive)
REMARK    1  A    between atoms: C_1  and  C_2
REMARK    2  A    between atoms: C_5  and  C_6
REMARK    3  A    between atoms: C_6  and  O_7
REMARK    4  A    between atoms: O_7  and  C_8
REMARK    5  A    between atoms: C_10  and  C_11
REMARK    6  A    between atoms: N_16  and  C_17
REMARK    7  A    between atoms: C_23  and  O_24
REMARK                            x       y       z     vdW  Elec       q    Type
REMARK                         _______ _______ _______ _____ _____    ______ ____
ROOT
ATOM      1  C   UNL     1       3.870   3.651  17.671  0.00  0.00    +0.000 A 
ATOM      2  C   UNL     1       3.403   4.771  18.393  0.00  0.00    +0.000 A 
ATOM      3  C   UNL     1       2.774   4.652  19.646  0.00  0.00    +0.000 A 
ATOM      4  C   UNL     1       2.665   3.351  20.176  0.00  0.00    +0.000 A 
ATOM      5 BR   UNL     1       1.900   3.020  21.886  0.00  0.00    +0.000 Br
ATOM      6  C   UNL     1       3.144   2.226  19.472  0.00  0.00    +0.000 A 
ATOM      7  C   UNL     1       3.739   2.377  18.220  0.00  0.00    +0.000 A 
ENDROOT
BRANCH   3   8
ATOM      8  C   UNL     1       2.249   5.877  20.323  0.00  0.00    +0.000 C 
ATOM      9  C   UNL     1       1.786   7.001  19.742  0.00  0.00    +0.000 C 
ATOM     10  S   UNL     1       1.714   7.307  18.051  0.00  0.00    +0.000 S 
ATOM     11  C   UNL     1       1.795   9.040  18.322  0.00  0.00    +0.000 C 
ATOM     12  O   UNL     1       2.237   9.811  17.491  0.00  0.00    +0.000 OA
ATOM     13  N   UNL     1       1.373   9.318  19.594  0.00  0.00    +0.000 N 
ATOM     14  C   UNL     1       1.067  10.678  19.975  0.00  0.00    +0.000 C 
ATOM     15  C   UNL     1       1.402   8.261  20.485  0.00  0.00    +0.000 C 
ATOM     16  O   UNL     1       1.197   8.320  21.695  0.00  0.00    +0.000 OA
ENDBRANCH   3   8
BRANCH   7  17
ATOM     17  O   UNL     1       4.225   1.282  17.560  0.00  0.00    +0.000 OA
ATOM     18  H   UNL     1       3.490   0.735  17.234  0.00  0.00    +0.000 HD
ENDBRANCH   7  17
BRANCH   1  19
ATOM     19  O   UNL     1       4.483   3.970  16.488  0.00  0.00    +0.000 OA
BRANCH  19  20
ATOM     20  C   UNL     1       5.903   3.823  16.429  0.00  0.00    +0.000 C 
BRANCH  20  25
ATOM     21  C   UNL     1       8.276   8.672  18.301  0.00  0.00    +0.000 C 
ATOM     22  C   UNL     1       7.657   7.402  17.805  0.00  0.00    +0.000 A 
ATOM     23  N   UNL     1       7.963   6.262  18.450  0.00  0.00    +0.000 NA
ATOM     24  C   UNL     1       7.382   5.138  17.984  0.00  0.00    +0.000 A 
ATOM     25  C   UNL     1       6.522   5.101  16.908  0.00  0.00    +0.000 A 
ATOM     26  C   UNL     1       6.287   6.324  16.317  0.00  0.00    +0.000 A 
ATOM     27  N   UNL     1       6.837   7.482  16.739  0.00  0.00    +0.000 NA
ENDBRANCH  20  25
ENDBRANCH  19  20
ENDBRANCH   1  19
TORSDOF 5
ENDMDL
MODEL 2
REMARK VINA RESULT:      -7.5      2.666      7.532
REMARK  Name = 
REMARK  7 active torsions:
REMARK  status: ('A' for Active; 'I' for Inactive)
REMARK    1  A    between atoms: C_1  and  C_2
REMARK    2  A    between atoms: C_5  and  C_6
REMARK    3  A    between atoms: C_6  and  O_7
REMARK    4  A    between atoms: O_7  and  C_8
REMARK    5  A    between atoms: C_10  and  C_11
REMARK    6  A    between atoms: N_16  and  C_17
REMARK    7  A    between atoms: C_23  and  O_24
REMARK                            x       y       z     vdW  Elec       q    Type
REMARK                         _______ _______ _______ _____ _____    ______ ____
ROOT
ATOM      1  C   UNL     1       1.721   8.229  19.636  0.00  0.00    +0.000 A 
ATOM      2  C   UNL     1       2.285   7.447  18.604  0.00  0.00    +0.000 A 
ATOM      3  C   UNL     1       2.568   6.078  18.765  0.00  0.00    +0.000 A 
ATOM      4  C   UNL     1       2.220   5.503  20.003  0.00  0.00    +0.000 A 
ATOM      5 BR   UNL     1       2.475   3.653  20.361  0.00  0.00    +0.000 Br
ATOM      6  C   UNL     1       1.638   6.270  21.034  0.00  0.00    +0.000 A 
ATOM      7  C   UNL     1       1.395   7.632  20.852  0.00  0.00    +0.000 A 
ENDROOT
BRANCH   3   8
ATOM      8  C   UNL     1       3.224   5.329  17.650  0.00  0.00    +0.000 C 
ATOM      9  C   UNL     1       4.540   5.268  17.365  0.00  0.00    +0.000 C 
ATOM     10  S   UNL     1       5.796   6.076  18.218  0.00  0.00    +0.000 S 
ATOM     11  C   UNL     1       6.820   6.073  16.791  0.00  0.00    +0.000 C 
ATOM     12  O   UNL     1       7.689   6.905  16.610  0.00  0.00    +0.000 OA
ATOM     13  N   UNL     1       6.414   5.074  15.947  0.00  0.00    +0.000 N 
ATOM     14  C   UNL     1       7.258   4.670  14.846  0.00  0.00    +0.000 C 
ATOM     15  C   UNL     1       5.127   4.608  16.137  0.00  0.00    +0.000 C 
ATOM     16  O   UNL     1       4.521   3.820  15.414  0.00  0.00    +0.000 OA
ENDBRANCH   3   8
BRANCH   7  17
ATOM     17  O   UNL     1       0.806   8.359  21.849  0.00  0.00    +0.000 OA
ATOM     18  H   UNL     1       0.283   9.084  21.468  0.00  0.00    +0.000 HD
ENDBRANCH   7  17
BRANCH   1  19
ATOM     19  O   UNL     1       1.488   9.532  19.279  0.00  0.00    +0.000 OA
BRANCH  19  20
ATOM     20  C   UNL     1       0.967   9.767  17.970  0.00  0.00    +0.000 C 
BRANCH  20  25
ATOM     21  C   UNL     1      -4.361  11.742  18.563  0.00  0.00    +0.000 C 
ATOM     22  C   UNL     1      -2.965  11.227  18.401  0.00  0.00    +0.000 A 
ATOM     23  N   UNL     1      -2.007  11.757  19.181  0.00  0.00    +0.000 NA
ATOM     24  C   UNL     1      -0.762  11.266  19.017  0.00  0.00    +0.000 A 
ATOM     25  C   UNL     1      -0.433  10.280  18.113  0.00  0.00    +0.000 A 
ATOM     26  C   UNL     1      -1.491   9.815  17.359  0.00  0.00    +0.000 A 
ATOM     27  N   UNL     1      -2.756  10.267  17.480  0.00  0.00    +0.000 NA
ENDBRANCH  20  25
ENDBRANCH  19  20
ENDBRANCH   1  19
TORSDOF 5
ENDMDL
MODEL 3
REMARK VINA RESULT:      -7.5      0.902      1.344
REMARK  Name = 
REMARK  7 active torsions:
REMARK  status: ('A' for Active; 'I' for Inactive)
REMARK    1  A    between atoms: C_1  and  C_2
REMARK    2  A    between atoms: C_5  and  C_6
REMARK    3  A    between atoms: C_6  and  O_7
REMARK    4  A    between atoms: O_7  and  C_8
REMARK    5  A    between atoms: C_10  and  C_11
REMARK    6  A    between atoms: N_16  and  C_17
REMARK    7  A    between atoms: C_23  and  O_24
REMARK                            x       y       z     vdW  Elec       q    Type
REMARK                         _______ _______ _______ _____ _____    ______ ____
ROOT
ATOM      1  C   UNL     1       4.477   4.135  17.787  0.00  0.00    +0.000 A 
ATOM      2  C   UNL     1       3.959   5.188  18.573  0.00  0.00    +0.000 A 
ATOM      3  C   UNL     1       2.833   5.026  19.401  0.00  0.00    +0.000 A 
ATOM      4  C   UNL     1       2.262   3.739  19.445  0.00  0.00    +0.000 A 
ATOM      5 BR   UNL     1       0.776   3.333  20.562  0.00  0.00    +0.000 Br
ATOM      6  C   UNL     1       2.783   2.675  18.679  0.00  0.00    +0.000 A 
ATOM      7  C   UNL     1       3.884   2.876  17.847  0.00  0.00    +0.000 A 
ENDROOT
BRANCH   3   8
ATOM      8  C   UNL     1       2.301   6.202  20.155  0.00  0.00    +0.000 C 
ATOM      9  C   UNL     1       1.792   7.341  19.646  0.00  0.00    +0.000 C 
ATOM     10  S   UNL     1       1.655   7.729  17.976  0.00  0.00    +0.000 S 
ATOM     11  C   UNL     1       1.703   9.448  18.331  0.00  0.00    +0.000 C 
ATOM     12  O   UNL     1       2.098  10.270  17.526  0.00  0.00    +0.000 OA
ATOM     13  N   UNL     1       1.318   9.652  19.630  0.00  0.00    +0.000 N 
ATOM     14  C   UNL     1       0.994  10.983  20.088  0.00  0.00    +0.000 C 
ATOM     15  C   UNL     1       1.404   8.553  20.464  0.00  0.00    +0.000 C 
ATOM     16  O   UNL     1       1.239   8.547  21.682  0.00  0.00    +0.000 OA
ENDBRANCH   3   8
BRANCH   7  17
ATOM     17  O   UNL     1       4.398   1.830  17.131  0.00  0.00    +0.000 OA
ATOM     18  H   UNL     1       3.989   1.798  16.249  0.00  0.00    +0.000 HD
ENDBRANCH   7  17
BRANCH   1  19
ATOM     19  O   UNL     1       5.596   4.477  17.072  0.00  0.00    +0.000 OA
BRANCH  19  20
ATOM     20  C   UNL     1       6.842   4.478  17.773  0.00  0.00    +0.000 C 
BRANCH  20  25
ATOM     21  C   UNL     1       8.627   9.895  18.118  0.00  0.00    +0.000 C 
ATOM     22  C   UNL     1       8.156   8.477  18.033  0.00  0.00    +0.000 A 
ATOM     23  N   UNL     1       7.347   8.144  17.012  0.00  0.00    +0.000 NA
ATOM     24  C   UNL     1       6.947   6.857  16.959  0.00  0.00    +0.000 A 
ATOM     25  C   UNL     1       7.313   5.897  17.876  0.00  0.00    +0.000 A 
ATOM     26  C   UNL     1       8.138   6.349  18.886  0.00  0.00    +0.000 A 
ATOM     27  N   UNL     1       8.570   7.623  18.989  0.00  0.00    +0.000 NA
ENDBRANCH  20  25
ENDBRANCH  19  20
ENDBRANCH   1  19
TORSDOF 5
ENDMDL
MODEL 4
REMARK VINA RESULT:      -7.4      2.635      3.919
REMARK  Name = 
REMARK  7 active torsions:
REMARK  status: ('A' for Active; 'I' for Inactive)
REMARK    1  A    between atoms: C_1  and  C_2
REMARK    2  A    between atoms: C_5  and  C_6
REMARK    3  A    between atoms: C_6  and  O_7
REMARK    4  A    between atoms: O_7  and  C_8
REMARK    5  A    between atoms: C_10  and  C_11
REMARK    6  A    between atoms: N_16  and  C_17
REMARK    7  A    between atoms: C_23  and  O_24
REMARK                            x       y       z     vdW  Elec       q    Type
REMARK                         _______ _______ _______ _____ _____    ______ ____
ROOT
ATOM      1  C   UNL     1       6.636   6.662  16.947  0.00  0.00    +0.000 A 
ATOM      2  C   UNL     1       5.642   6.869  17.929  0.00  0.00    +0.000 A 
ATOM      3  C   UNL     1       4.514   6.036  18.046  0.00  0.00    +0.000 A 
ATOM      4  C   UNL     1       4.439   4.946  17.157  0.00  0.00    +0.000 A 
ATOM      5 BR   UNL     1       3.015   3.687  17.223  0.00  0.00    +0.000 Br
ATOM      6  C   UNL     1       5.436   4.718  16.184  0.00  0.00    +0.000 A 
ATOM      7  C   UNL     1       6.528   5.579  16.077  0.00  0.00    +0.000 A 
ENDROOT
BRANCH   3   8
ATOM      8  C   UNL     1       3.470   6.353  19.069  0.00  0.00    +0.000 C 
ATOM      9  C   UNL     1       2.524   7.310  19.004  0.00  0.00    +0.000 C 
ATOM     10  S   UNL     1       2.305   8.430  17.717  0.00  0.00    +0.000 S 
ATOM     11  C   UNL     1       1.548   9.586  18.800  0.00  0.00    +0.000 C 
ATOM     12  O   UNL     1       1.564  10.785  18.590  0.00  0.00    +0.000 OA
ATOM     13  N   UNL     1       1.052   8.925  19.892  0.00  0.00    +0.000 N 
ATOM     14  C   UNL     1       0.135   9.592  20.788  0.00  0.00    +0.000 C 
ATOM     15  C   UNL     1       1.588   7.674  20.136  0.00  0.00    +0.000 C 
ATOM     16  O   UNL     1       1.386   6.973  21.125  0.00  0.00    +0.000 OA
ENDBRANCH   3   8
BRANCH   7  17
ATOM     17  O   UNL     1       7.502   5.332  15.149  0.00  0.00    +0.000 OA
ATOM     18  H   UNL     1       7.280   5.769  14.309  0.00  0.00    +0.000 HD
ENDBRANCH   7  17
BRANCH   1  19
ATOM     19  O   UNL     1       7.673   7.556  17.012  0.00  0.00    +0.000 OA
BRANCH  19  20
ATOM     20  C   UNL     1       8.205   7.846  18.306  0.00  0.00    +0.000 C 
BRANCH  20  25
ATOM     21  C   UNL     1       9.375  13.436  18.470  0.00  0.00    +0.000 C 
ATOM     22  C   UNL     1       9.066  11.972  18.433  0.00  0.00    +0.000 A 
ATOM     23  N   UNL     1       8.183  11.540  17.515  0.00  0.00    +0.000 NA
ATOM     24  C   UNL     1       7.933  10.215  17.502  0.00  0.00    +0.000 A 
ATOM     25  C   UNL     1       8.517   9.310  18.362  0.00  0.00    +0.000 A 
ATOM     26  C   UNL     1       9.400   9.863  19.266  0.00  0.00    +0.000 A 
ATOM     27  N   UNL     1       9.690  11.179  19.326  0.00  0.00    +0.000 NA
ENDBRANCH  20  25
ENDBRANCH  19  20
ENDBRANCH   1  19
TORSDOF 5
ENDMDL
MODEL 5
REMARK VINA RESULT:      -7.4      2.555      7.630
REMARK  Name = 
REMARK  7 active torsions:
REMARK  status: ('A' for Active; 'I' for Inactive)
REMARK    1  A    between atoms: C_1  and  C_2
REMARK    2  A    between atoms: C_5  and  C_6
REMARK    3  A    between atoms: C_6  and  O_7
REMARK    4  A    between atoms: O_7  and  C_8
REMARK    5  A    between atoms: C_10  and  C_11
REMARK    6  A    between atoms: N_16  and  C_17
REMARK    7  A    between atoms: C_23  and  O_24
REMARK                            x       y       z     vdW  Elec       q    Type
REMARK                         _______ _______ _______ _____ _____    ______ ____
ROOT
ATOM      1  C   UNL     1       1.800   8.232  19.556  0.00  0.00    +0.000 A 
ATOM      2  C   UNL     1       2.372   7.441  18.536  0.00  0.00    +0.000 A 
ATOM      3  C   UNL     1       2.626   6.067  18.700  0.00  0.00    +0.000 A 
ATOM      4  C   UNL     1       2.239   5.496  19.929  0.00  0.00    +0.000 A 
ATOM      5 BR   UNL     1       2.451   3.641  20.290  0.00  0.00    +0.000 Br
ATOM      6  C   UNL     1       1.649   6.273  20.949  0.00  0.00    +0.000 A 
ATOM      7  C   UNL     1       1.436   7.639  20.763  0.00  0.00    +0.000 A 
ENDROOT
BRANCH   3   8
ATOM      8  C   UNL     1       3.293   5.307  17.599  0.00  0.00    +0.000 C 
ATOM      9  C   UNL     1       4.608   5.268  17.310  0.00  0.00    +0.000 C 
ATOM     10  S   UNL     1       5.851   6.120  18.140  0.00  0.00    +0.000 S 
ATOM     11  C   UNL     1       6.869   6.108  16.709  0.00  0.00    +0.000 C 
ATOM     12  O   UNL     1       7.720   6.953  16.505  0.00  0.00    +0.000 OA
ATOM     13  N   UNL     1       6.481   5.082  15.888  0.00  0.00    +0.000 N 
ATOM     14  C   UNL     1       7.329   4.671  14.792  0.00  0.00    +0.000 C 
ATOM     15  C   UNL     1       5.204   4.593  16.094  0.00  0.00    +0.000 C 
ATOM     16  O   UNL     1       4.613   3.777  15.391  0.00  0.00    +0.000 OA
ENDBRANCH   3   8
BRANCH   7  17
ATOM     17  O   UNL     1       0.837   8.375  21.748  0.00  0.00    +0.000 OA
ATOM     18  H   UNL     1       1.506   8.702  22.374  0.00  0.00    +0.000 HD
ENDBRANCH   7  17
BRANCH   1  19
ATOM     19  O   UNL     1       1.600   9.540  19.198  0.00  0.00    +0.000 OA
BRANCH  19  20
ATOM     20  C   UNL     1       0.660   9.793  18.151  0.00  0.00    +0.000 C 
BRANCH  20  25
ATOM     21  C   UNL     1      -3.645  12.889  20.280  0.00  0.00    +0.000 C 
ATOM     22  C   UNL     1      -2.517  12.074  19.727  0.00  0.00    +0.000 A 
ATOM     23  N   UNL     1      -2.682  11.517  18.514  0.00  0.00    +0.000 NA
ATOM     24  C   UNL     1      -1.645  10.797  18.040  0.00  0.00    +0.000 A 
ATOM     25  C   UNL     1      -0.463  10.604  18.722  0.00  0.00    +0.000 A 
ATOM     26  C   UNL     1      -0.406  11.212  19.959  0.00  0.00    +0.000 A 
ATOM     27  N   UNL     1      -1.410  11.945  20.483  0.00  0.00    +0.000 NA
ENDBRANCH  20  25
ENDBRANCH  19  20
ENDBRANCH   1  19
TORSDOF 5
ENDMDL
MODEL 6
REMARK VINA RESULT:      -7.3      1.029      1.171
REMARK  Name = 
REMARK  7 active torsions:
REMARK  status: ('A' for Active; 'I' for Inactive)
REMARK    1  A    between atoms: C_1  and  C_2
REMARK    2  A    between atoms: C_5  and  C_6
REMARK    3  A    between atoms: C_6  and  O_7
REMARK    4  A    between atoms: O_7  and  C_8
REMARK    5  A    between atoms: C_10  and  C_11
REMARK    6  A    between atoms: N_16  and  C_17
REMARK    7  A    between atoms: C_23  and  O_24
REMARK                            x       y       z     vdW  Elec       q    Type
REMARK                         _______ _______ _______ _____ _____    ______ ____
ROOT
ATOM      1  C   UNL     1       4.401   4.638  17.595  0.00  0.00    +0.000 A 
ATOM      2  C   UNL     1       3.823   5.671  18.365  0.00  0.00    +0.000 A 
ATOM      3  C   UNL     1       2.806   5.430  19.307  0.00  0.00    +0.000 A 
ATOM      4  C   UNL     1       2.412   4.089  19.482  0.00  0.00    +0.000 A 
ATOM      5 BR   UNL     1       1.098   3.583  20.760  0.00  0.00    +0.000 Br
ATOM      6  C   UNL     1       2.996   3.046  18.732  0.00  0.00    +0.000 A 
ATOM      7  C   UNL     1       3.983   3.322  17.786  0.00  0.00    +0.000 A 
ENDROOT
BRANCH   3   8
ATOM      8  C   UNL     1       2.198   6.582  20.040  0.00  0.00    +0.000 C 
ATOM      9  C   UNL     1       1.762   7.746  19.521  0.00  0.00    +0.000 C 
ATOM     10  S   UNL     1       1.828   8.201  17.864  0.00  0.00    +0.000 S 
ATOM     11  C   UNL     1       1.847   9.904  18.292  0.00  0.00    +0.000 C 
ATOM     12  O   UNL     1       2.342  10.753  17.574  0.00  0.00    +0.000 OA
ATOM     13  N   UNL     1       1.311  10.062  19.542  0.00  0.00    +0.000 N 
ATOM     14  C   UNL     1       0.944  11.378  20.012  0.00  0.00    +0.000 C 
ATOM     15  C   UNL     1       1.288   8.930  20.336  0.00  0.00    +0.000 C 
ATOM     16  O   UNL     1       0.978   8.878  21.524  0.00  0.00    +0.000 OA
ENDBRANCH   3   8
BRANCH   7  17
ATOM     17  O   UNL     1       4.560   2.300  17.085  0.00  0.00    +0.000 OA
ATOM     18  H   UNL     1       5.529   2.369  17.130  0.00  0.00    +0.000 HD
ENDBRANCH   7  17
BRANCH   1  19
ATOM     19  O   UNL     1       5.398   5.063  16.755  0.00  0.00    +0.000 OA
BRANCH  19  20
ATOM     20  C   UNL     1       6.744   4.863  17.189  0.00  0.00    +0.000 C 
BRANCH  20  25
ATOM     21  C   UNL     1       8.897   9.919  18.753  0.00  0.00    +0.000 C 
ATOM     22  C   UNL     1       8.336   8.595  18.337  0.00  0.00    +0.000 A 
ATOM     23  N   UNL     1       8.605   7.529  19.113  0.00  0.00    +0.000 NA
ATOM     24  C   UNL     1       8.079   6.353  18.716  0.00  0.00    +0.000 A 
ATOM     25  C   UNL     1       7.306   6.193  17.586  0.00  0.00    +0.000 A 
ATOM     26  C   UNL     1       7.101   7.349  16.862  0.00  0.00    +0.000 A 
ATOM     27  N   UNL     1       7.601   8.553  17.209  0.00  0.00    +0.000 NA
ENDBRANCH  20  25
ENDBRANCH  19  20
ENDBRANCH   1  19
TORSDOF 5
ENDMDL
MODEL 7
REMARK VINA RESULT:      -7.3      1.654      2.452
REMARK  Name = 
REMARK  7 active torsions:
REMARK  status: ('A' for Active; 'I' for Inactive)
REMARK    1  A    between atoms: C_1  and  C_2
REMARK    2  A    between atoms: C_5  and  C_6
REMARK    3  A    between atoms: C_6  and  O_7
REMARK    4  A    between atoms: O_7  and  C_8
REMARK    5  A    between atoms: C_10  and  C_11
REMARK    6  A    between atoms: N_16  and  C_17
REMARK    7  A    between atoms: C_23  and  O_24
REMARK                            x       y       z     vdW  Elec       q    Type
REMARK                         _______ _______ _______ _____ _____    ______ ____
ROOT
ATOM      1  C   UNL     1       5.194   4.190  19.170  0.00  0.00    +0.000 A 
ATOM      2  C   UNL     1       4.517   5.391  18.867  0.00  0.00    +0.000 A 
ATOM      3  C   UNL     1       3.134   5.550  19.074  0.00  0.00    +0.000 A 
ATOM      4  C   UNL     1       2.452   4.458  19.645  0.00  0.00    +0.000 A 
ATOM      5 BR   UNL     1       0.595   4.529  20.050  0.00  0.00    +0.000 Br
ATOM      6  C   UNL     1       3.122   3.259  19.970  0.00  0.00    +0.000 A 
ATOM      7  C   UNL     1       4.488   3.125  19.727  0.00  0.00    +0.000 A 
ENDROOT
BRANCH   3   8
ATOM      8  C   UNL     1       2.473   6.829  18.669  0.00  0.00    +0.000 C 
ATOM      9  C   UNL     1       1.954   7.775  19.476  0.00  0.00    +0.000 C 
ATOM     10  S   UNL     1       1.904   7.720  21.194  0.00  0.00    +0.000 S 
ATOM     11  C   UNL     1       0.502   8.777  21.226  0.00  0.00    +0.000 C 
ATOM     12  O   UNL     1      -0.302   8.767  22.139  0.00  0.00    +0.000 OA
ATOM     13  N   UNL     1       0.453   9.497  20.062  0.00  0.00    +0.000 N 
ATOM     14  C   UNL     1      -0.426  10.638  19.953  0.00  0.00    +0.000 C 
ATOM     15  C   UNL     1       1.171   8.979  19.001  0.00  0.00    +0.000 C 
ATOM     16  O   UNL     1       1.157   9.386  17.841  0.00  0.00    +0.000 OA
ENDBRANCH   3   8
BRANCH   7  17
ATOM     17  O   UNL     1       5.132   1.968  20.072  0.00  0.00    +0.000 OA
ATOM     18  H   UNL     1       4.789   1.635  20.919  0.00  0.00    +0.000 HD
ENDBRANCH   7  17
BRANCH   1  19
ATOM     19  O   UNL     1       6.543   4.238  18.931  0.00  0.00    +0.000 OA
BRANCH  19  20
ATOM     20  C   UNL     1       6.961   4.721  17.652  0.00  0.00    +0.000 C 
BRANCH  20  25
ATOM     21  C   UNL     1       8.702  10.131  18.237  0.00  0.00    +0.000 C 
ATOM     22  C   UNL     1       8.243   8.714  18.090  0.00  0.00    +0.000 A 
ATOM     23  N   UNL     1       7.456   8.416  17.041  0.00  0.00    +0.000 NA
ATOM     24  C   UNL     1       7.067   7.129  16.931  0.00  0.00    +0.000 A 
ATOM     25  C   UNL     1       7.421   6.137  17.819  0.00  0.00    +0.000 A 
ATOM     26  C   UNL     1       8.222   6.556  18.861  0.00  0.00    +0.000 A 
ATOM     27  N   UNL     1       8.644   7.827  19.021  0.00  0.00    +0.000 NA
ENDBRANCH  20  25
ENDBRANCH  19  20
ENDBRANCH   1  19
TORSDOF 5
ENDMDL
MODEL 8
REMARK VINA RESULT:      -7.2      2.535      6.591
REMARK  Name = 
REMARK  7 active torsions:
REMARK  status: ('A' for Active; 'I' for Inactive)
REMARK    1  A    between atoms: C_1  and  C_2
REMARK    2  A    between atoms: C_5  and  C_6
REMARK    3  A    between atoms: C_6  and  O_7
REMARK    4  A    between atoms: O_7  and  C_8
REMARK    5  A    between atoms: C_10  and  C_11
REMARK    6  A    between atoms: N_16  and  C_17
REMARK    7  A    between atoms: C_23  and  O_24
REMARK                            x       y       z     vdW  Elec       q    Type
REMARK                         _______ _______ _______ _____ _____    ______ ____
ROOT
ATOM      1  C   UNL     1       2.350   4.961  20.256  0.00  0.00    +0.000 A 
ATOM      2  C   UNL     1       2.808   4.940  18.920  0.00  0.00    +0.000 A 
ATOM      3  C   UNL     1       3.365   3.790  18.332  0.00  0.00    +0.000 A 
ATOM      4  C   UNL     1       3.408   2.630  19.131  0.00  0.00    +0.000 A 
ATOM      5 BR   UNL     1       4.070   0.975  18.469  0.00  0.00    +0.000 Br
ATOM      6  C   UNL     1       2.936   2.634  20.460  0.00  0.00    +0.000 A 
ATOM      7  C   UNL     1       2.414   3.798  21.022  0.00  0.00    +0.000 A 
ENDROOT
BRANCH   3   8
ATOM      8  C   UNL     1       3.887   3.861  16.933  0.00  0.00    +0.000 C 
ATOM      9  C   UNL     1       5.128   4.205  16.537  0.00  0.00    +0.000 C 
ATOM     10  S   UNL     1       6.422   4.678  17.567  0.00  0.00    +0.000 S 
ATOM     11  C   UNL     1       7.165   5.603  16.273  0.00  0.00    +0.000 C 
ATOM     12  O   UNL     1       7.892   6.556  16.485  0.00  0.00    +0.000 OA
ATOM     13  N   UNL     1       6.725   5.126  15.067  0.00  0.00    +0.000 N 
ATOM     14  C   UNL     1       7.396   5.514  13.847  0.00  0.00    +0.000 C 
ATOM     15  C   UNL     1       5.553   4.396  15.097  0.00  0.00    +0.000 C 
ATOM     16  O   UNL     1       4.916   3.994  14.126  0.00  0.00    +0.000 OA
ENDBRANCH   3   8
BRANCH   7  17
ATOM     17  O   UNL     1       1.934   3.782  22.303  0.00  0.00    +0.000 OA
ATOM     18  H   UNL     1       2.458   4.380  22.863  0.00  0.00    +0.000 HD
ENDBRANCH   7  17
BRANCH   1  19
ATOM     19  O   UNL     1       1.811   6.161  20.639  0.00  0.00    +0.000 OA
BRANCH  19  20
ATOM     20  C   UNL     1       2.124   7.302  19.838  0.00  0.00    +0.000 C 
BRANCH  20  25
ATOM     21  C   UNL     1      -0.504  11.812  22.161  0.00  0.00    +0.000 C 
ATOM     22  C   UNL     1       0.189  10.634  21.549  0.00  0.00    +0.000 A 
ATOM     23  N   UNL     1       0.721   9.720  22.379  0.00  0.00    +0.000 NA
ATOM     24  C   UNL     1       1.331   8.667  21.797  0.00  0.00    +0.000 A 
ATOM     25  C   UNL     1       1.436   8.492  20.435  0.00  0.00    +0.000 A 
ATOM     26  C   UNL     1       0.862   9.493  19.679  0.00  0.00    +0.000 A 
ATOM     27  N   UNL     1       0.239  10.568  20.205  0.00  0.00    +0.000 NA
ENDBRANCH  20  25
ENDBRANCH  19  20
ENDBRANCH   1  19
TORSDOF 5
ENDMDL
MODEL 9
REMARK VINA RESULT:      -7.2      1.947      2.668
REMARK  Name = 
REMARK  7 active torsions:
REMARK  status: ('A' for Active; 'I' for Inactive)
REMARK    1  A    between atoms: C_1  and  C_2
REMARK    2  A    between atoms: C_5  and  C_6
REMARK    3  A    between atoms: C_6  and  O_7
REMARK    4  A    between atoms: O_7  and  C_8
REMARK    5  A    between atoms: C_10  and  C_11
REMARK    6  A    between atoms: N_16  and  C_17
REMARK    7  A    between atoms: C_23  and  O_24
REMARK                            x       y       z     vdW  Elec       q    Type
REMARK                         _______ _______ _______ _____ _____    ______ ____
ROOT
ATOM      1  C   UNL     1       5.099   5.245  19.189  0.00  0.00    +0.000 A 
ATOM      2  C   UNL     1       4.175   6.246  19.564  0.00  0.00    +0.000 A 
ATOM      3  C   UNL     1       2.840   5.952  19.896  0.00  0.00    +0.000 A 
ATOM      4  C   UNL     1       2.469   4.593  19.880  0.00  0.00    +0.000 A 
ATOM      5 BR   UNL     1       0.723   4.018  20.366  0.00  0.00    +0.000 Br
ATOM      6  C   UNL     1       3.389   3.583  19.526  0.00  0.00    +0.000 A 
ATOM      7  C   UNL     1       4.698   3.910  19.175  0.00  0.00    +0.000 A 
ENDROOT
BRANCH   3   8
ATOM      8  C   UNL     1       1.902   7.070  20.221  0.00  0.00    +0.000 C 
ATOM      9  C   UNL     1       1.597   8.134  19.454  0.00  0.00    +0.000 C 
ATOM     10  S   UNL     1       2.249   8.479  17.900  0.00  0.00    +0.000 S 
ATOM     11  C   UNL     1       1.957  10.197  18.116  0.00  0.00    +0.000 C 
ATOM     12  O   UNL     1       2.613  11.048  17.544  0.00  0.00    +0.000 OA
ATOM     13  N   UNL     1       0.975  10.374  19.054  0.00  0.00    +0.000 N 
ATOM     14  C   UNL     1       0.346  11.666  19.208  0.00  0.00    +0.000 C 
ATOM     15  C   UNL     1       0.750   9.306  19.901  0.00  0.00    +0.000 C 
ATOM     16  O   UNL     1       0.018   9.298  20.888  0.00  0.00    +0.000 OA
ENDBRANCH   3   8
BRANCH   7  17
ATOM     17  O   UNL     1       5.588   2.921  18.861  0.00  0.00    +0.000 OA
ATOM     18  H   UNL     1       5.591   2.241  19.556  0.00  0.00    +0.000 HD
ENDBRANCH   7  17
BRANCH   1  19
ATOM     19  O   UNL     1       6.358   5.722  18.933  0.00  0.00    +0.000 OA
BRANCH  19  20
ATOM     20  C   UNL     1       6.502   6.634  17.843  0.00  0.00    +0.000 C 
BRANCH  20  25
ATOM     21  C   UNL     1       6.150   3.643  12.987  0.00  0.00    +0.000 C 
ATOM     22  C   UNL     1       6.236   4.424  14.261  0.00  0.00    +0.000 A 
ATOM     23  N   UNL     1       7.284   4.189  15.070  0.00  0.00    +0.000 NA
ATOM     24  C   UNL     1       7.338   4.915  16.206  0.00  0.00    +0.000 A 
ATOM     25  C   UNL     1       6.396   5.853  16.568  0.00  0.00    +0.000 A 
ATOM     26  C   UNL     1       5.361   6.006  15.670  0.00  0.00    +0.000 A 
ATOM     27  N   UNL     1       5.255   5.310  14.519  0.00  0.00    +0.000 NA
ENDBRANCH  20  25
ENDBRANCH  19  20
ENDBRANCH   1  19
TORSDOF 5
ENDMDL
