MODEL 1
REMARK VINA RESULT:      -7.9      0.000      0.000
REMARK  Name = 
REMARK  13 active torsions:
REMARK  status: ('A' for Active; 'I' for Inactive)
REMARK    1  A    between atoms: C_2  and  C_3
REMARK    2  A    between atoms: C_6  and  C_7
REMARK    3  A    between atoms: C_7  and  O_9
REMARK    4  A    between atoms: O_9  and  C_10
REMARK    5  A    between atoms: C_10  and  C_11
REMARK    6  A    between atoms: C_11  and  C_12
REMARK    7  A    between atoms: C_18  and  C_19
REMARK    8  A    between atoms: C_20  and  C_21
REMARK    9  A    between atoms: C_26  and  C_27
REMARK   10  A    between atoms: C_27  and  C_28
REMARK   11  A    between atoms: C_27  and  C_29
REMARK   12  A    between atoms: C_30  and  C_31
REMARK   13  A    between atoms: C_31  and  O_33
REMARK                            x       y       z     vdW  Elec       q    Type
REMARK                         _______ _______ _______ _____ _____    ______ ____
ROOT
ATOM      1  C   UNL     1      -0.852  10.716  19.754  0.00  0.00    +0.000 C 
ATOM      2  C   UNL     1      -1.846  10.119  18.766  0.00  0.00    +0.000 C 
ATOM      3  C   UNL     1      -2.287  11.090  17.656  0.00  0.00    +0.000 C 
ATOM      4  C   UNL     1      -2.995  12.336  18.262  0.00  0.00    +0.000 C 
ATOM      5  C   UNL     1      -4.485  11.961  17.935  0.00  0.00    +0.000 C 
ATOM      6  C   UNL     1      -4.436  11.318  16.562  0.00  0.00    +0.000 C 
ATOM      7  C   UNL     1      -3.270  10.359  16.718  0.00  0.00    +0.000 C 
ATOM      8  C   UNL     1      -2.652   9.929  15.399  0.00  0.00    +0.000 C 
ATOM      9  C   UNL     1      -2.491  12.433  19.708  0.00  0.00    +0.000 C 
ATOM     10  C   UNL     1      -2.251  13.113  20.952  0.00  0.00    +0.000 C 
ATOM     11  C   UNL     1      -1.551  11.638  21.336  0.00  0.00    +0.000 C 
ATOM     12  C   UNL     1      -0.494  12.155  22.267  0.00  0.00    +0.000 C 
ATOM     13  C   UNL     1       0.252  11.582  21.356  0.00  0.00    +0.000 C 
ATOM     14  C   UNL     1      -0.675  12.107  19.815  0.00  0.00    +0.000 C 
ENDROOT
BRANCH  13  15
ATOM     15  C   UNL     1       0.284   9.931  21.924  0.00  0.00    +0.000 C 
ATOM     16  C   UNL     1       1.693   9.369  22.010  0.00  0.00    +0.000 C 
ATOM     17  C   UNL     1      -0.397   9.623  23.322  0.00  0.00    +0.000 C 
ENDBRANCH  13  15
BRANCH   9  18
ATOM     18  C   UNL     1      -3.805  11.753  20.406  0.00  0.00    +0.000 C 
ATOM     19  O   UNL     1      -4.609  12.383  21.094  0.00  0.00    +0.000 OA
ENDBRANCH   9  18
BRANCH  14  20
ATOM     20  C   UNL     1       0.163  13.117  19.037  0.00  0.00    +0.000 C 
ATOM     21  O   UNL     1       0.543  14.175  19.501  0.00  0.00    +0.000 OA
BRANCH  20  22
ATOM     22  O   UNL     1       0.549  12.740  17.787  0.00  0.00    +0.000 OA
ATOM     23  H   UNL     1       0.580  11.779  17.621  0.00  0.00    +0.000 HD
ENDBRANCH  20  22
ENDBRANCH  14  20
BRANCH   1  24
ATOM     24  C   UNL     1       0.732  10.296  19.049  0.00  0.00    +0.000 C 
BRANCH  24  25
ATOM     25  C   UNL     1       1.024   8.816  18.445  0.00  0.00    +0.000 C 
BRANCH  25  26
ATOM     26  O   UNL     1       2.106   8.696  17.412  0.00  0.00    +0.000 OA
BRANCH  26  27
ATOM     27  C   UNL     1       3.016   7.666  17.618  0.00  0.00    +0.000 C 
ATOM     28  O   UNL     1       4.147   7.680  17.137  0.00  0.00    +0.000 OA
BRANCH  27  32
ATOM     29  C   UNL     1       1.802   3.971  19.749  0.00  0.00    +0.000 A 
ATOM     30  C   UNL     1       1.558   4.184  18.398  0.00  0.00    +0.000 A 
ATOM     31  C   UNL     1       1.959   5.383  17.758  0.00  0.00    +0.000 A 
ATOM     32  C   UNL     1       2.610   6.439  18.439  0.00  0.00    +0.000 A 
ATOM     33  C   UNL     1       2.886   6.219  19.792  0.00  0.00    +0.000 A 
ATOM     34  C   UNL     1       2.484   5.006  20.435  0.00  0.00    +0.000 A 
BRANCH  29  36
ATOM     35  C   UNL     1       1.256   2.622  21.812  0.00  0.00    +0.000 C 
ATOM     36  C   UNL     1       1.328   2.784  20.482  0.00  0.00    +0.000 C 
ENDBRANCH  29  36
ENDBRANCH  27  32
ENDBRANCH  26  27
ENDBRANCH  25  26
ENDBRANCH  24  25
ENDBRANCH   1  24
TORSDOF 10
ENDMDL
MODEL 2
REMARK VINA RESULT:      -7.8      1.764      2.582
REMARK  Name = 
REMARK  13 active torsions:
REMARK  status: ('A' for Active; 'I' for Inactive)
REMARK    1  A    between atoms: C_2  and  C_3
REMARK    2  A    between atoms: C_6  and  C_7
REMARK    3  A    between atoms: C_7  and  O_9
REMARK    4  A    between atoms: O_9  and  C_10
REMARK    5  A    between atoms: C_10  and  C_11
REMARK    6  A    between atoms: C_11  and  C_12
REMARK    7  A    between atoms: C_18  and  C_19
REMARK    8  A    between atoms: C_20  and  C_21
REMARK    9  A    between atoms: C_26  and  C_27
REMARK   10  A    between atoms: C_27  and  C_28
REMARK   11  A    between atoms: C_27  and  C_29
REMARK   12  A    between atoms: C_30  and  C_31
REMARK   13  A    between atoms: C_31  and  O_33
REMARK                            x       y       z     vdW  Elec       q    Type
REMARK                         _______ _______ _______ _____ _____    ______ ____
ROOT
ATOM      1  C   UNL     1      -0.942  10.790  19.659  0.00  0.00    +0.000 C 
ATOM      2  C   UNL     1      -1.967  10.160  18.725  0.00  0.00    +0.000 C 
ATOM      3  C   UNL     1      -2.479  11.108  17.625  0.00  0.00    +0.000 C 
ATOM      4  C   UNL     1      -3.184  12.346  18.248  0.00  0.00    +0.000 C 
ATOM      5  C   UNL     1      -4.680  11.937  17.995  0.00  0.00    +0.000 C 
ATOM      6  C   UNL     1      -4.681  11.277  16.629  0.00  0.00    +0.000 C 
ATOM      7  C   UNL     1      -3.489  10.344  16.743  0.00  0.00    +0.000 C 
ATOM      8  C   UNL     1      -2.923   9.910  15.402  0.00  0.00    +0.000 C 
ATOM      9  C   UNL     1      -2.617  12.473  19.668  0.00  0.00    +0.000 C 
ATOM     10  C   UNL     1      -2.333  13.173  20.891  0.00  0.00    +0.000 C 
ATOM     11  C   UNL     1      -1.587  11.718  21.260  0.00  0.00    +0.000 C 
ATOM     12  C   UNL     1      -0.498  12.268  22.135  0.00  0.00    +0.000 C 
ATOM     13  C   UNL     1       0.217  11.699  21.197  0.00  0.00    +0.000 C 
ATOM     14  C   UNL     1      -0.791  12.185  19.695  0.00  0.00    +0.000 C 
ENDROOT
BRANCH  13  15
ATOM     15  C   UNL     1       0.310  10.056  21.783  0.00  0.00    +0.000 C 
ATOM     16  C   UNL     1       1.739   9.557  21.901  0.00  0.00    +0.000 C 
ATOM     17  C   UNL     1      -0.384   9.733  23.171  0.00  0.00    +0.000 C 
ENDBRANCH  13  15
BRANCH   9  18
ATOM     18  C   UNL     1      -3.882  11.775  20.434  0.00  0.00    +0.000 C 
ATOM     19  O   UNL     1      -4.701  12.407  21.103  0.00  0.00    +0.000 OA
ENDBRANCH   9  18
BRANCH  14  20
ATOM     20  C   UNL     1      -0.011  13.202  18.866  0.00  0.00    +0.000 C 
ATOM     21  O   UNL     1       0.932  13.838  19.297  0.00  0.00    +0.000 OA
BRANCH  20  22
ATOM     22  O   UNL     1      -0.374  13.315  17.559  0.00  0.00    +0.000 OA
ATOM     23  H   UNL     1      -0.257  12.515  17.012  0.00  0.00    +0.000 HD
ENDBRANCH  20  22
ENDBRANCH  14  20
BRANCH   1  24
ATOM     24  C   UNL     1       0.617  10.393  18.886  0.00  0.00    +0.000 C 
BRANCH  24  25
ATOM     25  C   UNL     1       0.961   8.881  18.403  0.00  0.00    +0.000 C 
BRANCH  25  26
ATOM     26  O   UNL     1       2.385   8.425  18.532  0.00  0.00    +0.000 OA
BRANCH  26  27
ATOM     27  C   UNL     1       2.555   7.083  18.851  0.00  0.00    +0.000 C 
ATOM     28  O   UNL     1       2.077   6.582  19.866  0.00  0.00    +0.000 OA
BRANCH  27  32
ATOM     29  C   UNL     1       5.171   4.691  16.185  0.00  0.00    +0.000 A 
ATOM     30  C   UNL     1       5.231   6.077  16.265  0.00  0.00    +0.000 A 
ATOM     31  C   UNL     1       4.372   6.803  17.127  0.00  0.00    +0.000 A 
ATOM     32  C   UNL     1       3.395   6.181  17.942  0.00  0.00    +0.000 A 
ATOM     33  C   UNL     1       3.350   4.785  17.890  0.00  0.00    +0.000 A 
ATOM     34  C   UNL     1       4.221   4.054  17.022  0.00  0.00    +0.000 A 
BRANCH  29  36
ATOM     35  C   UNL     1       6.058   4.048  13.911  0.00  0.00    +0.000 C 
ATOM     36  C   UNL     1       5.976   3.897  15.242  0.00  0.00    +0.000 C 
ENDBRANCH  29  36
ENDBRANCH  27  32
ENDBRANCH  26  27
ENDBRANCH  25  26
ENDBRANCH  24  25
ENDBRANCH   1  24
TORSDOF 10
ENDMDL
MODEL 3
REMARK VINA RESULT:      -7.3      1.893      2.772
REMARK  Name = 
REMARK  13 active torsions:
REMARK  status: ('A' for Active; 'I' for Inactive)
REMARK    1  A    between atoms: C_2  and  C_3
REMARK    2  A    between atoms: C_6  and  C_7
REMARK    3  A    between atoms: C_7  and  O_9
REMARK    4  A    between atoms: O_9  and  C_10
REMARK    5  A    between atoms: C_10  and  C_11
REMARK    6  A    between atoms: C_11  and  C_12
REMARK    7  A    between atoms: C_18  and  C_19
REMARK    8  A    between atoms: C_20  and  C_21
REMARK    9  A    between atoms: C_26  and  C_27
REMARK   10  A    between atoms: C_27  and  C_28
REMARK   11  A    between atoms: C_27  and  C_29
REMARK   12  A    between atoms: C_30  and  C_31
REMARK   13  A    between atoms: C_31  and  O_33
REMARK                            x       y       z     vdW  Elec       q    Type
REMARK                         _______ _______ _______ _____ _____    ______ ____
ROOT
ATOM      1  C   UNL     1      -0.876  10.662  19.865  0.00  0.00    +0.000 C 
ATOM      2  C   UNL     1      -1.869  10.049  18.885  0.00  0.00    +0.000 C 
ATOM      3  C   UNL     1      -2.247  10.974  17.714  0.00  0.00    +0.000 C 
ATOM      4  C   UNL     1      -2.920  12.277  18.233  0.00  0.00    +0.000 C 
ATOM      5  C   UNL     1      -4.415  11.940  17.891  0.00  0.00    +0.000 C 
ATOM      6  C   UNL     1      -4.360  11.221  16.555  0.00  0.00    +0.000 C 
ATOM      7  C   UNL     1      -3.235  10.229  16.793  0.00  0.00    +0.000 C 
ATOM      8  C   UNL     1      -2.604   9.705  15.515  0.00  0.00    +0.000 C 
ATOM      9  C   UNL     1      -2.446  12.435  19.685  0.00  0.00    +0.000 C 
ATOM     10  C   UNL     1      -2.208  13.172  20.896  0.00  0.00    +0.000 C 
ATOM     11  C   UNL     1      -1.576  11.696  21.376  0.00  0.00    +0.000 C 
ATOM     12  C   UNL     1      -0.520  12.223  22.304  0.00  0.00    +0.000 C 
ATOM     13  C   UNL     1       0.223  11.573  21.444  0.00  0.00    +0.000 C 
ATOM     14  C   UNL     1      -0.647  12.047  19.855  0.00  0.00    +0.000 C 
ENDROOT
BRANCH  13  15
ATOM     15  C   UNL     1       0.179   9.956  22.102  0.00  0.00    +0.000 C 
ATOM     16  C   UNL     1       1.561   9.420  22.431  0.00  0.00    +0.000 C 
ATOM     17  C   UNL     1      -0.705   9.714  23.395  0.00  0.00    +0.000 C 
ENDBRANCH  13  15
BRANCH   9  18
ATOM     18  C   UNL     1      -3.801  11.843  20.385  0.00  0.00    +0.000 C 
ATOM     19  O   UNL     1      -4.568  12.529  21.062  0.00  0.00    +0.000 OA
ENDBRANCH   9  18
BRANCH  14  20
ATOM     20  C   UNL     1       0.247  12.981  19.044  0.00  0.00    +0.000 C 
ATOM     21  O   UNL     1       0.466  12.838  17.856  0.00  0.00    +0.000 OA
BRANCH  20  22
ATOM     22  O   UNL     1       0.743  14.062  19.706  0.00  0.00    +0.000 OA
ATOM     23  H   UNL     1       1.519  14.493  19.300  0.00  0.00    +0.000 HD
ENDBRANCH  20  22
ENDBRANCH  14  20
BRANCH   1  24
ATOM     24  C   UNL     1       0.707  10.146  19.223  0.00  0.00    +0.000 C 
BRANCH  24  25
ATOM     25  C   UNL     1       1.147   8.582  19.216  0.00  0.00    +0.000 C 
BRANCH  25  26
ATOM     26  O   UNL     1       2.463   8.241  18.580  0.00  0.00    +0.000 OA
BRANCH  26  27
ATOM     27  C   UNL     1       2.895   6.934  18.768  0.00  0.00    +0.000 C 
ATOM     28  O   UNL     1       2.645   6.298  19.791  0.00  0.00    +0.000 OA
BRANCH  27  32
ATOM     29  C   UNL     1       5.195   4.717  15.692  0.00  0.00    +0.000 A 
ATOM     30  C   UNL     1       4.325   4.099  16.582  0.00  0.00    +0.000 A 
ATOM     31  C   UNL     1       3.613   4.846  17.553  0.00  0.00    +0.000 A 
ATOM     32  C   UNL     1       3.748   6.248  17.698  0.00  0.00    +0.000 A 
ATOM     33  C   UNL     1       4.598   6.880  16.785  0.00  0.00    +0.000 A 
ATOM     34  C   UNL     1       5.312   6.125  15.803  0.00  0.00    +0.000 A 
BRANCH  29  36
ATOM     35  C   UNL     1       6.927   4.486  13.870  0.00  0.00    +0.000 C 
ATOM     36  C   UNL     1       6.025   3.979  14.724  0.00  0.00    +0.000 C 
ENDBRANCH  29  36
ENDBRANCH  27  32
ENDBRANCH  26  27
ENDBRANCH  25  26
ENDBRANCH  24  25
ENDBRANCH   1  24
TORSDOF 10
ENDMDL
MODEL 4
REMARK VINA RESULT:      -7.3      1.963      4.223
REMARK  Name = 
REMARK  13 active torsions:
REMARK  status: ('A' for Active; 'I' for Inactive)
REMARK    1  A    between atoms: C_2  and  C_3
REMARK    2  A    between atoms: C_6  and  C_7
REMARK    3  A    between atoms: C_7  and  O_9
REMARK    4  A    between atoms: O_9  and  C_10
REMARK    5  A    between atoms: C_10  and  C_11
REMARK    6  A    between atoms: C_11  and  C_12
REMARK    7  A    between atoms: C_18  and  C_19
REMARK    8  A    between atoms: C_20  and  C_21
REMARK    9  A    between atoms: C_26  and  C_27
REMARK   10  A    between atoms: C_27  and  C_28
REMARK   11  A    between atoms: C_27  and  C_29
REMARK   12  A    between atoms: C_30  and  C_31
REMARK   13  A    between atoms: C_31  and  O_33
REMARK                            x       y       z     vdW  Elec       q    Type
REMARK                         _______ _______ _______ _____ _____    ______ ____
ROOT
ATOM      1  C   UNL     1      -0.191  12.417  18.979  0.00  0.00    +0.000 C 
ATOM      2  C   UNL     1       0.902  13.231  18.298  0.00  0.00    +0.000 C 
ATOM      3  C   UNL     1       1.975  13.769  19.261  0.00  0.00    +0.000 C 
ATOM      4  C   UNL     1       1.343  14.719  20.318  0.00  0.00    +0.000 C 
ATOM      5  C   UNL     1       1.797  16.099  19.720  0.00  0.00    +0.000 C 
ATOM      6  C   UNL     1       3.203  15.857  19.200  0.00  0.00    +0.000 C 
ATOM      7  C   UNL     1       3.026  14.552  18.445  0.00  0.00    +0.000 C 
ATOM      8  C   UNL     1       4.323  13.791  18.229  0.00  0.00    +0.000 C 
ATOM      9  C   UNL     1      -0.139  14.327  20.390  0.00  0.00    +0.000 C 
ATOM     10  C   UNL     1      -1.438  14.283  21.005  0.00  0.00    +0.000 C 
ATOM     11  C   UNL     1      -1.775  13.359  19.646  0.00  0.00    +0.000 C 
ATOM     12  C   UNL     1      -2.810  12.465  20.264  0.00  0.00    +0.000 C 
ATOM     13  C   UNL     1      -1.920  11.579  19.897  0.00  0.00    +0.000 C 
ATOM     14  C   UNL     1      -0.354  12.490  20.372  0.00  0.00    +0.000 C 
ENDROOT
BRANCH  13  15
ATOM     15  C   UNL     1      -2.381  11.290  18.238  0.00  0.00    +0.000 C 
ATOM     16  C   UNL     1      -2.209   9.839  17.826  0.00  0.00    +0.000 C 
ATOM     17  C   UNL     1      -3.850  11.699  17.804  0.00  0.00    +0.000 C 
ENDBRANCH  13  15
BRANCH   9  18
ATOM     18  C   UNL     1      -0.696  15.539  19.445  0.00  0.00    +0.000 C 
ATOM     19  O   UNL     1      -1.242  16.550  19.891  0.00  0.00    +0.000 OA
ENDBRANCH   9  18
BRANCH  14  20
ATOM     20  C   UNL     1       0.296  11.799  21.566  0.00  0.00    +0.000 C 
ATOM     21  O   UNL     1       1.430  11.360  21.553  0.00  0.00    +0.000 OA
BRANCH  20  22
ATOM     22  O   UNL     1      -0.439  11.761  22.712  0.00  0.00    +0.000 OA
ATOM     23  H   UNL     1      -1.369  12.047  22.632  0.00  0.00    +0.000 HD
ENDBRANCH  20  22
ENDBRANCH  14  20
BRANCH   1  24
ATOM     24  C   UNL     1       0.425  10.745  18.891  0.00  0.00    +0.000 C 
BRANCH  24  25
ATOM     25  C   UNL     1       1.799  10.391  18.099  0.00  0.00    +0.000 C 
BRANCH  25  26
ATOM     26  O   UNL     1       1.839   9.098  17.338  0.00  0.00    +0.000 OA
BRANCH  26  27
ATOM     27  C   UNL     1       2.818   8.198  17.743  0.00  0.00    +0.000 C 
ATOM     28  O   UNL     1       4.011   8.370  17.503  0.00  0.00    +0.000 OA
BRANCH  27  32
ATOM     29  C   UNL     1       1.558   4.657  20.097  0.00  0.00    +0.000 A 
ATOM     30  C   UNL     1       1.656   5.934  20.638  0.00  0.00    +0.000 A 
ATOM     31  C   UNL     1       2.067   7.037  19.850  0.00  0.00    +0.000 A 
ATOM     32  C   UNL     1       2.421   6.919  18.484  0.00  0.00    +0.000 A 
ATOM     33  C   UNL     1       2.295   5.643  17.926  0.00  0.00    +0.000 A 
ATOM     34  C   UNL     1       1.875   4.531  18.722  0.00  0.00    +0.000 A 
BRANCH  29  36
ATOM     35  C   UNL     1       2.031   2.777  21.715  0.00  0.00    +0.000 C 
ATOM     36  C   UNL     1       1.222   3.463  20.892  0.00  0.00    +0.000 C 
ENDBRANCH  29  36
ENDBRANCH  27  32
ENDBRANCH  26  27
ENDBRANCH  25  26
ENDBRANCH  24  25
ENDBRANCH   1  24
TORSDOF 10
ENDMDL
MODEL 5
REMARK VINA RESULT:      -7.3      1.835      3.858
REMARK  Name = 
REMARK  13 active torsions:
REMARK  status: ('A' for Active; 'I' for Inactive)
REMARK    1  A    between atoms: C_2  and  C_3
REMARK    2  A    between atoms: C_6  and  C_7
REMARK    3  A    between atoms: C_7  and  O_9
REMARK    4  A    between atoms: O_9  and  C_10
REMARK    5  A    between atoms: C_10  and  C_11
REMARK    6  A    between atoms: C_11  and  C_12
REMARK    7  A    between atoms: C_18  and  C_19
REMARK    8  A    between atoms: C_20  and  C_21
REMARK    9  A    between atoms: C_26  and  C_27
REMARK   10  A    between atoms: C_27  and  C_28
REMARK   11  A    between atoms: C_27  and  C_29
REMARK   12  A    between atoms: C_30  and  C_31
REMARK   13  A    between atoms: C_31  and  O_33
REMARK                            x       y       z     vdW  Elec       q    Type
REMARK                         _______ _______ _______ _____ _____    ______ ____
ROOT
ATOM      1  C   UNL     1       0.869  12.462  19.749  0.00  0.00    +0.000 C 
ATOM      2  C   UNL     1       1.195  11.424  20.815  0.00  0.00    +0.000 C 
ATOM      3  C   UNL     1       0.057  10.424  21.085  0.00  0.00    +0.000 C 
ATOM      4  C   UNL     1      -1.216  11.159  21.592  0.00  0.00    +0.000 C 
ATOM      5  C   UNL     1      -1.119  10.807  23.119  0.00  0.00    +0.000 C 
ATOM      6  C   UNL     1      -0.621   9.374  23.161  0.00  0.00    +0.000 C 
ATOM      7  C   UNL     1       0.522   9.422  22.163  0.00  0.00    +0.000 C 
ATOM      8  C   UNL     1       0.907   8.061  21.609  0.00  0.00    +0.000 C 
ATOM      9  C   UNL     1      -1.083  12.605  21.093  0.00  0.00    +0.000 C 
ATOM     10  C   UNL     1      -1.584  13.910  20.760  0.00  0.00    +0.000 C 
ATOM     11  C   UNL     1       0.015  14.135  20.307  0.00  0.00    +0.000 C 
ATOM     12  C   UNL     1      -0.227  15.107  19.190  0.00  0.00    +0.000 C 
ATOM     13  C   UNL     1       0.360  14.136  18.536  0.00  0.00    +0.000 C 
ATOM     14  C   UNL     1      -0.462  12.665  19.353  0.00  0.00    +0.000 C 
ENDROOT
BRANCH  13  15
ATOM     15  C   UNL     1       2.045  14.531  18.772  0.00  0.00    +0.000 C 
ATOM     16  C   UNL     1       2.776  14.780  17.465  0.00  0.00    +0.000 C 
ATOM     17  C   UNL     1       2.384  15.765  19.708  0.00  0.00    +0.000 C 
ENDBRANCH  13  15
BRANCH   9  18
ATOM     18  C   UNL     1      -0.552  13.237  22.505  0.00  0.00    +0.000 C 
ATOM     19  O   UNL     1      -1.230  13.988  23.208  0.00  0.00    +0.000 OA
ENDBRANCH   9  18
BRANCH  14  20
ATOM     20  C   UNL     1      -1.401  11.989  18.358  0.00  0.00    +0.000 C 
ATOM     21  O   UNL     1      -2.107  11.039  18.638  0.00  0.00    +0.000 OA
BRANCH  20  22
ATOM     22  O   UNL     1      -1.479  12.559  17.124  0.00  0.00    +0.000 OA
ATOM     23  H   UNL     1      -0.676  13.019  16.814  0.00  0.00    +0.000 HD
ENDBRANCH  20  22
ENDBRANCH  14  20
BRANCH   1  24
ATOM     24  C   UNL     1       1.461  11.705  18.244  0.00  0.00    +0.000 C 
BRANCH  24  25
ATOM     25  C   UNL     1       2.417  10.393  18.277  0.00  0.00    +0.000 C 
BRANCH  25  26
ATOM     26  O   UNL     1       1.757   9.057  18.103  0.00  0.00    +0.000 OA
BRANCH  26  27
ATOM     27  C   UNL     1       2.603   8.016  17.739  0.00  0.00    +0.000 C 
ATOM     28  O   UNL     1       3.408   8.114  16.815  0.00  0.00    +0.000 OA
BRANCH  27  32
ATOM     29  C   UNL     1       2.252   4.021  19.634  0.00  0.00    +0.000 A 
ATOM     30  C   UNL     1       1.520   4.399  18.514  0.00  0.00    +0.000 A 
ATOM     31  C   UNL     1       1.660   5.688  17.944  0.00  0.00    +0.000 A 
ATOM     32  C   UNL     1       2.526   6.675  18.473  0.00  0.00    +0.000 A 
ATOM     33  C   UNL     1       3.289   6.291  19.581  0.00  0.00    +0.000 A 
ATOM     34  C   UNL     1       3.149   4.988  20.153  0.00  0.00    +0.000 A 
BRANCH  29  36
ATOM     35  C   UNL     1       1.525   2.510  21.521  0.00  0.00    +0.000 C 
ATOM     36  C   UNL     1       2.080   2.729  20.318  0.00  0.00    +0.000 C 
ENDBRANCH  29  36
ENDBRANCH  27  32
ENDBRANCH  26  27
ENDBRANCH  25  26
ENDBRANCH  24  25
ENDBRANCH   1  24
TORSDOF 10
ENDMDL
MODEL 6
REMARK VINA RESULT:      -7.2      2.381      4.699
REMARK  Name = 
REMARK  13 active torsions:
REMARK  status: ('A' for Active; 'I' for Inactive)
REMARK    1  A    between atoms: C_2  and  C_3
REMARK    2  A    between atoms: C_6  and  C_7
REMARK    3  A    between atoms: C_7  and  O_9
REMARK    4  A    between atoms: O_9  and  C_10
REMARK    5  A    between atoms: C_10  and  C_11
REMARK    6  A    between atoms: C_11  and  C_12
REMARK    7  A    between atoms: C_18  and  C_19
REMARK    8  A    between atoms: C_20  and  C_21
REMARK    9  A    between atoms: C_26  and  C_27
REMARK   10  A    between atoms: C_27  and  C_28
REMARK   11  A    between atoms: C_27  and  C_29
REMARK   12  A    between atoms: C_30  and  C_31
REMARK   13  A    between atoms: C_31  and  O_33
REMARK                            x       y       z     vdW  Elec       q    Type
REMARK                         _______ _______ _______ _____ _____    ______ ____
ROOT
ATOM      1  C   UNL     1      -0.560  12.506  19.096  0.00  0.00    +0.000 C 
ATOM      2  C   UNL     1       0.522  13.357  18.443  0.00  0.00    +0.000 C 
ATOM      3  C   UNL     1       1.625  13.821  19.412  0.00  0.00    +0.000 C 
ATOM      4  C   UNL     1       1.028  14.700  20.548  0.00  0.00    +0.000 C 
ATOM      5  C   UNL     1       1.479  16.114  20.033  0.00  0.00    +0.000 C 
ATOM      6  C   UNL     1       2.868  15.900  19.461  0.00  0.00    +0.000 C 
ATOM      7  C   UNL     1       2.660  14.651  18.624  0.00  0.00    +0.000 C 
ATOM      8  C   UNL     1       3.944  13.898  18.321  0.00  0.00    +0.000 C 
ATOM      9  C   UNL     1      -0.455  14.314  20.632  0.00  0.00    +0.000 C 
ATOM     10  C   UNL     1      -1.738  14.236  21.277  0.00  0.00    +0.000 C 
ATOM     11  C   UNL     1      -2.118  13.411  19.868  0.00  0.00    +0.000 C 
ATOM     12  C   UNL     1      -3.144  12.483  20.450  0.00  0.00    +0.000 C 
ATOM     13  C   UNL     1      -2.271  11.618  20.000  0.00  0.00    +0.000 C 
ATOM     14  C   UNL     1      -0.686  12.485  20.494  0.00  0.00    +0.000 C 
ENDROOT
BRANCH  13  15
ATOM     15  C   UNL     1      -2.778  11.447  18.338  0.00  0.00    +0.000 C 
ATOM     16  C   UNL     1      -2.615  10.029  17.818  0.00  0.00    +0.000 C 
ATOM     17  C   UNL     1      -4.259  11.880  17.976  0.00  0.00    +0.000 C 
ENDBRANCH  13  15
BRANCH   9  18
ATOM     18  C   UNL     1      -1.026  15.592  19.787  0.00  0.00    +0.000 C 
ATOM     19  O   UNL     1      -1.730  16.473  20.284  0.00  0.00    +0.000 OA
ENDBRANCH   9  18
BRANCH  14  20
ATOM     20  C   UNL     1      -0.010  11.708  21.621  0.00  0.00    +0.000 C 
ATOM     21  O   UNL     1       1.170  11.415  21.621  0.00  0.00    +0.000 OA
BRANCH  20  22
ATOM     22  O   UNL     1      -0.788  11.415  22.699  0.00  0.00    +0.000 OA
ATOM     23  H   UNL     1      -1.389  10.652  22.597  0.00  0.00    +0.000 HD
ENDBRANCH  20  22
ENDBRANCH  14  20
BRANCH   1  24
ATOM     24  C   UNL     1       0.040  10.840  18.877  0.00  0.00    +0.000 C 
BRANCH  24  25
ATOM     25  C   UNL     1       1.537  10.546  18.319  0.00  0.00    +0.000 C 
BRANCH  25  26
ATOM     26  O   UNL     1       1.767   9.237  17.623  0.00  0.00    +0.000 OA
BRANCH  26  27
ATOM     27  C   UNL     1       2.180   8.191  18.440  0.00  0.00    +0.000 C 
ATOM     28  O   UNL     1       1.944   8.165  19.646  0.00  0.00    +0.000 OA
BRANCH  27  32
ATOM     29  C   UNL     1       4.754   5.020  16.713  0.00  0.00    +0.000 A 
ATOM     30  C   UNL     1       5.062   6.373  16.639  0.00  0.00    +0.000 A 
ATOM     31  C   UNL     1       4.208   7.354  17.201  0.00  0.00    +0.000 A 
ATOM     32  C   UNL     1       2.991   7.035  17.851  0.00  0.00    +0.000 A 
ATOM     33  C   UNL     1       2.691   5.673  17.956  0.00  0.00    +0.000 A 
ATOM     34  C   UNL     1       3.556   4.684  17.392  0.00  0.00    +0.000 A 
BRANCH  29  36
ATOM     35  C   UNL     1       5.983   3.928  14.796  0.00  0.00    +0.000 C 
ATOM     36  C   UNL     1       5.560   3.968  16.069  0.00  0.00    +0.000 C 
ENDBRANCH  29  36
ENDBRANCH  27  32
ENDBRANCH  26  27
ENDBRANCH  25  26
ENDBRANCH  24  25
ENDBRANCH   1  24
TORSDOF 10
ENDMDL
MODEL 7
REMARK VINA RESULT:      -7.2      2.414      4.647
REMARK  Name = 
REMARK  13 active torsions:
REMARK  status: ('A' for Active; 'I' for Inactive)
REMARK    1  A    between atoms: C_2  and  C_3
REMARK    2  A    between atoms: C_6  and  C_7
REMARK    3  A    between atoms: C_7  and  O_9
REMARK    4  A    between atoms: O_9  and  C_10
REMARK    5  A    between atoms: C_10  and  C_11
REMARK    6  A    between atoms: C_11  and  C_12
REMARK    7  A    between atoms: C_18  and  C_19
REMARK    8  A    between atoms: C_20  and  C_21
REMARK    9  A    between atoms: C_26  and  C_27
REMARK   10  A    between atoms: C_27  and  C_28
REMARK   11  A    between atoms: C_27  and  C_29
REMARK   12  A    between atoms: C_30  and  C_31
REMARK   13  A    between atoms: C_31  and  O_33
REMARK                            x       y       z     vdW  Elec       q    Type
REMARK                         _______ _______ _______ _____ _____    ______ ____
ROOT
ATOM      1  C   UNL     1       1.193  12.291  19.720  0.00  0.00    +0.000 C 
ATOM      2  C   UNL     1       1.313  11.305  20.875  0.00  0.00    +0.000 C 
ATOM      3  C   UNL     1       0.028  10.505  21.153  0.00  0.00    +0.000 C 
ATOM      4  C   UNL     1      -1.143  11.455  21.534  0.00  0.00    +0.000 C 
ATOM      5  C   UNL     1      -1.167  11.215  23.086  0.00  0.00    +0.000 C 
ATOM      6  C   UNL     1      -0.891   9.733  23.258  0.00  0.00    +0.000 C 
ATOM      7  C   UNL     1       0.290   9.535  22.324  0.00  0.00    +0.000 C 
ATOM      8  C   UNL     1       0.492   8.093  21.892  0.00  0.00    +0.000 C 
ATOM      9  C   UNL     1      -0.774  12.822  20.940  0.00  0.00    +0.000 C 
ATOM     10  C   UNL     1      -1.059  14.156  20.486  0.00  0.00    +0.000 C 
ATOM     11  C   UNL     1       0.574  14.110  20.109  0.00  0.00    +0.000 C 
ATOM     12  C   UNL     1       0.529  15.014  18.912  0.00  0.00    +0.000 C 
ATOM     13  C   UNL     1       0.993  13.920  18.364  0.00  0.00    +0.000 C 
ATOM     14  C   UNL     1      -0.074  12.653  19.237  0.00  0.00    +0.000 C 
ENDROOT
BRANCH  13  15
ATOM     15  C   UNL     1       2.706  14.083  18.664  0.00  0.00    +0.000 C 
ATOM     16  C   UNL     1       3.459  14.641  17.469  0.00  0.00    +0.000 C 
ATOM     17  C   UNL     1       3.151  14.956  19.910  0.00  0.00    +0.000 C 
ENDBRANCH  13  15
BRANCH   9  18
ATOM     18  C   UNL     1      -0.218  13.481  22.330  0.00  0.00    +0.000 C 
ATOM     19  O   UNL     1      -0.637  14.544  22.791  0.00  0.00    +0.000 OA
ENDBRANCH   9  18
BRANCH  14  20
ATOM     20  C   UNL     1      -1.058  12.043  18.243  0.00  0.00    +0.000 C 
ATOM     21  O   UNL     1      -1.637  10.990  18.430  0.00  0.00    +0.000 OA
BRANCH  20  22
ATOM     22  O   UNL     1      -1.332  12.788  17.136  0.00  0.00    +0.000 OA
ATOM     23  H   UNL     1      -2.145  12.549  16.651  0.00  0.00    +0.000 HD
ENDBRANCH  20  22
ENDBRANCH  14  20
BRANCH   1  24
ATOM     24  C   UNL     1       1.732  11.340  18.310  0.00  0.00    +0.000 C 
BRANCH  24  25
ATOM     25  C   UNL     1       1.601   9.721  18.282  0.00  0.00    +0.000 C 
BRANCH  25  26
ATOM     26  O   UNL     1       2.870   8.931  18.150  0.00  0.00    +0.000 OA
BRANCH  26  27
ATOM     27  C   UNL     1       2.764   7.577  18.449  0.00  0.00    +0.000 C 
ATOM     28  O   UNL     1       2.081   7.161  19.382  0.00  0.00    +0.000 OA
BRANCH  27  32
ATOM     29  C   UNL     1       5.199   4.811  15.981  0.00  0.00    +0.000 A 
ATOM     30  C   UNL     1       5.223   6.192  15.824  0.00  0.00    +0.000 A 
ATOM     31  C   UNL     1       4.425   7.039  16.632  0.00  0.00    +0.000 A 
ATOM     32  C   UNL     1       3.546   6.549  17.628  0.00  0.00    +0.000 A 
ATOM     33  C   UNL     1       3.539   5.163  17.813  0.00  0.00    +0.000 A 
ATOM     34  C   UNL     1       4.349   4.310  16.999  0.00  0.00    +0.000 A 
BRANCH  29  36
ATOM     35  C   UNL     1       6.727   4.192  14.070  0.00  0.00    +0.000 C 
ATOM     36  C   UNL     1       5.939   3.882  15.111  0.00  0.00    +0.000 C 
ENDBRANCH  29  36
ENDBRANCH  27  32
ENDBRANCH  26  27
ENDBRANCH  25  26
ENDBRANCH  24  25
ENDBRANCH   1  24
TORSDOF 10
ENDMDL
MODEL 8
REMARK VINA RESULT:      -7.1      2.193      4.243
REMARK  Name = 
REMARK  13 active torsions:
REMARK  status: ('A' for Active; 'I' for Inactive)
REMARK    1  A    between atoms: C_2  and  C_3
REMARK    2  A    between atoms: C_6  and  C_7
REMARK    3  A    between atoms: C_7  and  O_9
REMARK    4  A    between atoms: O_9  and  C_10
REMARK    5  A    between atoms: C_10  and  C_11
REMARK    6  A    between atoms: C_11  and  C_12
REMARK    7  A    between atoms: C_18  and  C_19
REMARK    8  A    between atoms: C_20  and  C_21
REMARK    9  A    between atoms: C_26  and  C_27
REMARK   10  A    between atoms: C_27  and  C_28
REMARK   11  A    between atoms: C_27  and  C_29
REMARK   12  A    between atoms: C_30  and  C_31
REMARK   13  A    between atoms: C_31  and  O_33
REMARK                            x       y       z     vdW  Elec       q    Type
REMARK                         _______ _______ _______ _____ _____    ______ ____
ROOT
ATOM      1  C   UNL     1       0.554  12.892  20.028  0.00  0.00    +0.000 C 
ATOM      2  C   UNL     1       1.068  11.816  20.976  0.00  0.00    +0.000 C 
ATOM      3  C   UNL     1       0.111  10.622  21.147  0.00  0.00    +0.000 C 
ATOM      4  C   UNL     1      -1.251  11.087  21.739  0.00  0.00    +0.000 C 
ATOM      5  C   UNL     1      -1.061  10.599  23.219  0.00  0.00    +0.000 C 
ATOM      6  C   UNL     1      -0.341   9.268  23.105  0.00  0.00    +0.000 C 
ATOM      7  C   UNL     1       0.756   9.604  22.110  0.00  0.00    +0.000 C 
ATOM      8  C   UNL     1       1.339   8.387  21.412  0.00  0.00    +0.000 C 
ATOM      9  C   UNL     1      -1.362  12.579  21.394  0.00  0.00    +0.000 C 
ATOM     10  C   UNL     1      -2.073  13.814  21.204  0.00  0.00    +0.000 C 
ATOM     11  C   UNL     1      -0.542  14.339  20.767  0.00  0.00    +0.000 C 
ATOM     12  C   UNL     1      -0.964  15.369  19.760  0.00  0.00    +0.000 C 
ATOM     13  C   UNL     1      -0.245  14.578  19.003  0.00  0.00    +0.000 C 
ATOM     14  C   UNL     1      -0.802  12.917  19.665  0.00  0.00    +0.000 C 
ENDROOT
BRANCH  13  15
ATOM     15  C   UNL     1       1.360  15.213  19.267  0.00  0.00    +0.000 C 
ATOM     16  C   UNL     1       2.136  15.399  17.975  0.00  0.00    +0.000 C 
ATOM     17  C   UNL     1       1.486  16.582  20.055  0.00  0.00    +0.000 C 
ENDBRANCH  13  15
BRANCH   9  18
ATOM     18  C   UNL     1      -0.905  13.139  22.861  0.00  0.00    +0.000 C 
ATOM     19  O   UNL     1      -1.679  13.684  23.649  0.00  0.00    +0.000 OA
ENDBRANCH   9  18
BRANCH  14  20
ATOM     20  C   UNL     1      -1.645  12.205  18.611  0.00  0.00    +0.000 C 
ATOM     21  O   UNL     1      -2.837  12.392  18.466  0.00  0.00    +0.000 OA
BRANCH  20  22
ATOM     22  O   UNL     1      -0.972  11.383  17.760  0.00  0.00    +0.000 OA
ATOM     23  H   UNL     1      -0.551  11.814  16.992  0.00  0.00    +0.000 HD
ENDBRANCH  20  22
ENDBRANCH  14  20
BRANCH   1  24
ATOM     24  C   UNL     1       1.222  12.400  18.448  0.00  0.00    +0.000 C 
BRANCH  24  25
ATOM     25  C   UNL     1       2.564  11.491  18.343  0.00  0.00    +0.000 C 
BRANCH  25  26
ATOM     26  O   UNL     1       2.549  10.354  17.363  0.00  0.00    +0.000 OA
BRANCH  26  27
ATOM     27  C   UNL     1       1.880   9.211  17.786  0.00  0.00    +0.000 C 
ATOM     28  O   UNL     1       0.725   9.242  18.207  0.00  0.00    +0.000 OA
BRANCH  27  32
ATOM     29  C   UNL     1       3.692   5.163  17.759  0.00  0.00    +0.000 A 
ATOM     30  C   UNL     1       2.379   5.406  18.146  0.00  0.00    +0.000 A 
ATOM     31  C   UNL     1       1.842   6.717  18.144  0.00  0.00    +0.000 A 
ATOM     32  C   UNL     1       2.594   7.857  17.772  0.00  0.00    +0.000 A 
ATOM     33  C   UNL     1       3.906   7.616  17.352  0.00  0.00    +0.000 A 
ATOM     34  C   UNL     1       4.445   6.292  17.351  0.00  0.00    +0.000 A 
BRANCH  29  36
ATOM     35  C   UNL     1       3.788   2.698  18.294  0.00  0.00    +0.000 C 
ATOM     36  C   UNL     1       4.326   3.835  17.827  0.00  0.00    +0.000 C 
ENDBRANCH  29  36
ENDBRANCH  27  32
ENDBRANCH  26  27
ENDBRANCH  25  26
ENDBRANCH  24  25
ENDBRANCH   1  24
TORSDOF 10
ENDMDL
MODEL 9
REMARK VINA RESULT:      -7.0      3.579      6.651
REMARK  Name = 
REMARK  13 active torsions:
REMARK  status: ('A' for Active; 'I' for Inactive)
REMARK    1  A    between atoms: C_2  and  C_3
REMARK    2  A    between atoms: C_6  and  C_7
REMARK    3  A    between atoms: C_7  and  O_9
REMARK    4  A    between atoms: O_9  and  C_10
REMARK    5  A    between atoms: C_10  and  C_11
REMARK    6  A    between atoms: C_11  and  C_12
REMARK    7  A    between atoms: C_18  and  C_19
REMARK    8  A    between atoms: C_20  and  C_21
REMARK    9  A    between atoms: C_26  and  C_27
REMARK   10  A    between atoms: C_27  and  C_28
REMARK   11  A    between atoms: C_27  and  C_29
REMARK   12  A    between atoms: C_30  and  C_31
REMARK   13  A    between atoms: C_31  and  O_33
REMARK                            x       y       z     vdW  Elec       q    Type
REMARK                         _______ _______ _______ _____ _____    ______ ____
ROOT
ATOM      1  C   UNL     1       1.753  14.645  20.197  0.00  0.00    +0.000 C 
ATOM      2  C   UNL     1       1.165  13.799  21.319  0.00  0.00    +0.000 C 
ATOM      3  C   UNL     1      -0.322  14.077  21.601  0.00  0.00    +0.000 C 
ATOM      4  C   UNL     1      -0.535  15.556  22.035  0.00  0.00    +0.000 C 
ATOM      5  C   UNL     1      -0.723  15.339  23.579  0.00  0.00    +0.000 C 
ATOM      6  C   UNL     1      -1.530  14.060  23.701  0.00  0.00    +0.000 C 
ATOM      7  C   UNL     1      -0.795  13.146  22.737  0.00  0.00    +0.000 C 
ATOM      8  C   UNL     1      -1.626  11.969  22.257  0.00  0.00    +0.000 C 
ATOM      9  C   UNL     1       0.668  16.327  21.475  0.00  0.00    +0.000 C 
ATOM     10  C   UNL     1       1.368  17.514  21.067  0.00  0.00    +0.000 C 
ATOM     11  C   UNL     1       2.535  16.384  20.653  0.00  0.00    +0.000 C 
ATOM     12  C   UNL     1       3.123  17.121  19.485  0.00  0.00    +0.000 C 
ATOM     13  C   UNL     1       2.721  16.024  18.895  0.00  0.00    +0.000 C 
ATOM     14  C   UNL     1       1.073  15.790  19.753  0.00  0.00    +0.000 C 
ENDROOT
BRANCH  13  15
ATOM     15  C   UNL     1       4.086  14.968  19.163  0.00  0.00    +0.000 C 
ATOM     16  C   UNL     1       4.770  14.555  17.870  0.00  0.00    +0.000 C 
ATOM     17  C   UNL     1       5.237  15.486  20.122  0.00  0.00    +0.000 C 
ENDBRANCH  13  15
BRANCH   9  18
ATOM     18  C   UNL     1       1.518  16.380  22.871  0.00  0.00    +0.000 C 
ATOM     19  O   UNL     1       1.701  17.416  23.513  0.00  0.00    +0.000 OA
ENDBRANCH   9  18
BRANCH  14  20
ATOM     20  C   UNL     1      -0.058  16.050  18.762  0.00  0.00    +0.000 C 
ATOM     21  O   UNL     1      -0.157  17.069  18.107  0.00  0.00    +0.000 OA
BRANCH  20  22
ATOM     22  O   UNL     1      -0.938  15.028  18.575  0.00  0.00    +0.000 OA
ATOM     23  H   UNL     1      -1.447  15.049  17.742  0.00  0.00    +0.000 HD
ENDBRANCH  20  22
ENDBRANCH  14  20
BRANCH   1  24
ATOM     24  C   UNL     1       1.507  13.634  18.747  0.00  0.00    +0.000 C 
BRANCH  24  25
ATOM     25  C   UNL     1       2.094  12.122  18.661  0.00  0.00    +0.000 C 
BRANCH  25  26
ATOM     26  O   UNL     1       1.286  11.033  19.302  0.00  0.00    +0.000 OA
BRANCH  26  27
ATOM     27  C   UNL     1       0.517  10.269  18.432  0.00  0.00    +0.000 C 
ATOM     28  O   UNL     1       0.990   9.344  17.774  0.00  0.00    +0.000 OA
BRANCH  27  32
ATOM     29  C   UNL     1      -3.812  10.947  17.747  0.00  0.00    +0.000 A 
ATOM     30  C   UNL     1      -3.087   9.951  17.103  0.00  0.00    +0.000 A 
ATOM     31  C   UNL     1      -1.703   9.773  17.348  0.00  0.00    +0.000 A 
ATOM     32  C   UNL     1      -0.966  10.593  18.237  0.00  0.00    +0.000 A 
ATOM     33  C   UNL     1      -1.696  11.577  18.911  0.00  0.00    +0.000 A 
ATOM     34  C   UNL     1      -3.093  11.752  18.666  0.00  0.00    +0.000 A 
BRANCH  29  36
ATOM     35  C   UNL     1      -5.775  12.419  17.155  0.00  0.00    +0.000 C 
ATOM     36  C   UNL     1      -5.228  11.233  17.462  0.00  0.00    +0.000 C 
ENDBRANCH  29  36
ENDBRANCH  27  32
ENDBRANCH  26  27
ENDBRANCH  25  26
ENDBRANCH  24  25
ENDBRANCH   1  24
TORSDOF 10
ENDMDL
