MODEL 1
REMARK VINA RESULT:      -9.4      0.000      0.000
REMARK  Name = 
REMARK  10 active torsions:
REMARK  status: ('A' for Active; 'I' for Inactive)
REMARK    1  A    between atoms: C_1  and  C_2
REMARK    2  A    between atoms: C_6  and  N_7
REMARK    3  A    between atoms: N_7  and  C_8
REMARK    4  A    between atoms: C_8  and  C_9
REMARK    5  A    between atoms: N_11  and  C_12
REMARK    6  A    between atoms: C_12  and  C_13
REMARK    7  A    between atoms: C_18  and  C_20
REMARK    8  A    between atoms: C_20  and  C_21
REMARK    9  A    between atoms: C_21  and  C_22
REMARK   10  A    between atoms: C_27  and  C_28
REMARK                            x       y       z     vdW  Elec       q    Type
REMARK                         _______ _______ _______ _____ _____    ______ ____
ROOT
ATOM      1  N   UNL     1       6.183   4.974  15.994  0.00  0.00    +0.000 N 
ATOM      2  C   UNL     1       7.163   4.813  16.977  0.00  0.00    +0.000 C 
ATOM      3  O   UNL     1       8.227   4.211  16.785  0.00  0.00    +0.000 OA
ENDROOT
BRANCH   1   9
ATOM      4  C   UNL     1       5.338   2.429  11.763  0.00  0.00    +0.000 C 
ATOM      5  C   UNL     1       6.073   3.486  12.538  0.00  0.00    +0.000 A 
ATOM      6  C   UNL     1       7.085   4.233  11.925  0.00  0.00    +0.000 A 
ATOM      7  C   UNL     1       7.836   5.145  12.667  0.00  0.00    +0.000 A 
ATOM      8  C   UNL     1       7.579   5.333  14.026  0.00  0.00    +0.000 A 
ATOM      9  C   UNL     1       6.521   4.656  14.639  0.00  0.00    +0.000 A 
ATOM     10  C   UNL     1       5.783   3.719  13.893  0.00  0.00    +0.000 A 
ENDBRANCH   1   9
BRANCH   1  11
ATOM     11  C   UNL     1       5.011   5.858  16.175  0.00  0.00    +0.000 C 
BRANCH  11  12
ATOM     12  C   UNL     1       3.887   5.316  17.072  0.00  0.00    +0.000 C 
ATOM     13  O   UNL     1       3.186   6.073  17.742  0.00  0.00    +0.000 OA
ATOM     14  N   UNL     1       3.655   3.963  17.014  0.00  0.00    +0.000 N 
ATOM     15  H   UNL     1       4.012   3.451  16.215  0.00  0.00    +0.000 HD
BRANCH  14  16
ATOM     16  C   UNL     1       2.548   3.369  17.757  0.00  0.00    +0.000 C 
BRANCH  16  17
ATOM     17  C   UNL     1       2.618   3.640  19.261  0.00  0.00    +0.000 C 
ATOM     18  C   UNL     1       3.381   2.596  20.062  0.00  0.00    +0.000 C 
ATOM     19  C   UNL     1       2.705   2.668  21.408  0.00  0.00    +0.000 C 
ATOM     20  C   UNL     1       1.267   2.954  21.038  0.00  0.00    +0.000 C 
ATOM     21  O   UNL     1       1.285   3.684  19.806  0.00  0.00    +0.000 OA
ENDBRANCH  16  17
ENDBRANCH  14  16
ENDBRANCH  11  12
ENDBRANCH   1  11
BRANCH   2  22
ATOM     22  C   UNL     1       6.848   5.310  18.383  0.00  0.00    +0.000 C 
BRANCH  22  23
ATOM     23  C   UNL     1       8.015   6.088  18.981  0.00  0.00    +0.000 C 
BRANCH  23  24
ATOM     24  C   UNL     1       8.082   7.476  18.379  0.00  0.00    +0.000 C 
ATOM     25  O   UNL     1       7.603   7.684  17.266  0.00  0.00    +0.000 OA
ATOM     26  N   UNL     1       8.761   8.375  19.173  0.00  0.00    +0.000 N 
ATOM     27  C   UNL     1       8.954   9.705  18.859  0.00  0.00    +0.000 A 
ATOM     28  C   UNL     1       9.645  10.625  19.687  0.00  0.00    +0.000 A 
ATOM     29  C   UNL     1       9.555  11.825  19.023  0.00  0.00    +0.000 A 
ATOM     30  C   UNL     1       9.982  13.208  19.298  0.00  0.00    +0.000 C 
ATOM     31  O   UNL     1       8.887  11.633  17.856  0.00  0.00    +0.000 OA
ATOM     32  N   UNL     1       8.511  10.312  17.759  0.00  0.00    +0.000 NA
ATOM     33  H   UNL     1       9.230   8.025  20.005  0.00  0.00    +0.000 HD
ENDBRANCH  23  24
ENDBRANCH  22  23
ENDBRANCH   2  22
TORSDOF 8
ENDMDL
MODEL 2
REMARK VINA RESULT:      -9.4      3.488      4.707
REMARK  Name = 
REMARK  10 active torsions:
REMARK  status: ('A' for Active; 'I' for Inactive)
REMARK    1  A    between atoms: C_1  and  C_2
REMARK    2  A    between atoms: C_6  and  N_7
REMARK    3  A    between atoms: N_7  and  C_8
REMARK    4  A    between atoms: C_8  and  C_9
REMARK    5  A    between atoms: N_11  and  C_12
REMARK    6  A    between atoms: C_12  and  C_13
REMARK    7  A    between atoms: C_18  and  C_20
REMARK    8  A    between atoms: C_20  and  C_21
REMARK    9  A    between atoms: C_21  and  C_22
REMARK   10  A    between atoms: C_27  and  C_28
REMARK                            x       y       z     vdW  Elec       q    Type
REMARK                         _______ _______ _______ _____ _____    ______ ____
ROOT
ATOM      1  N   UNL     1       6.206   5.414  15.946  0.00  0.00    +0.000 N 
ATOM      2  C   UNL     1       5.223   6.400  16.055  0.00  0.00    +0.000 C 
ATOM      3  O   UNL     1       4.814   7.062  15.092  0.00  0.00    +0.000 OA
ENDROOT
BRANCH   1   9
ATOM      4  C   UNL     1       5.383   2.585  11.896  0.00  0.00    +0.000 C 
ATOM      5  C   UNL     1       6.149   3.657  12.617  0.00  0.00    +0.000 A 
ATOM      6  C   UNL     1       7.229   4.292  11.995  0.00  0.00    +0.000 A 
ATOM      7  C   UNL     1       8.004   5.215  12.696  0.00  0.00    +0.000 A 
ATOM      8  C   UNL     1       7.703   5.529  14.023  0.00  0.00    +0.000 A 
ATOM      9  C   UNL     1       6.580   4.968  14.638  0.00  0.00    +0.000 A 
ATOM     10  C   UNL     1       5.818   4.018  13.935  0.00  0.00    +0.000 A 
ENDBRANCH   1   9
BRANCH   1  11
ATOM     11  C   UNL     1       6.544   4.500  17.059  0.00  0.00    +0.000 C 
BRANCH  11  12
ATOM     12  C   UNL     1       5.387   3.654  17.614  0.00  0.00    +0.000 C 
ATOM     13  O   UNL     1       4.539   3.168  16.868  0.00  0.00    +0.000 OA
ATOM     14  N   UNL     1       5.405   3.402  18.965  0.00  0.00    +0.000 N 
ATOM     15  H   UNL     1       6.280   3.526  19.462  0.00  0.00    +0.000 HD
BRANCH  14  16
ATOM     16  C   UNL     1       4.402   2.531  19.569  0.00  0.00    +0.000 C 
BRANCH  16  17
ATOM     17  C   UNL     1       3.195   3.293  20.118  0.00  0.00    +0.000 C 
ATOM     18  C   UNL     1       2.598   2.710  21.390  0.00  0.00    +0.000 C 
ATOM     19  C   UNL     1       1.150   3.116  21.280  0.00  0.00    +0.000 C 
ATOM     20  C   UNL     1       0.897   3.029  19.792  0.00  0.00    +0.000 C 
ATOM     21  O   UNL     1       2.140   3.301  19.135  0.00  0.00    +0.000 OA
ENDBRANCH  16  17
ENDBRANCH  14  16
ENDBRANCH  11  12
ENDBRANCH   1  11
BRANCH   2  22
ATOM     22  C   UNL     1       4.714   6.746  17.449  0.00  0.00    +0.000 C 
BRANCH  22  23
ATOM     23  C   UNL     1       3.283   6.266  17.663  0.00  0.00    +0.000 C 
BRANCH  23  24
ATOM     24  C   UNL     1       2.602   7.106  18.724  0.00  0.00    +0.000 C 
ATOM     25  O   UNL     1       2.538   6.695  19.881  0.00  0.00    +0.000 OA
ATOM     26  N   UNL     1       2.059   8.270  18.223  0.00  0.00    +0.000 N 
ATOM     27  C   UNL     1       1.396   9.212  18.983  0.00  0.00    +0.000 A 
ATOM     28  C   UNL     1       0.848  10.411  18.460  0.00  0.00    +0.000 A 
ATOM     29  C   UNL     1       0.335  11.064  19.556  0.00  0.00    +0.000 A 
ATOM     30  C   UNL     1      -0.322  12.362  19.787  0.00  0.00    +0.000 C 
ATOM     31  O   UNL     1       0.528  10.294  20.657  0.00  0.00    +0.000 OA
ATOM     32  N   UNL     1       1.192   9.142  20.298  0.00  0.00    +0.000 NA
ATOM     33  H   UNL     1       2.064   8.409  17.217  0.00  0.00    +0.000 HD
ENDBRANCH  23  24
ENDBRANCH  22  23
ENDBRANCH   2  22
TORSDOF 8
ENDMDL
MODEL 3
REMARK VINA RESULT:      -8.9      3.911      5.936
REMARK  Name = 
REMARK  10 active torsions:
REMARK  status: ('A' for Active; 'I' for Inactive)
REMARK    1  A    between atoms: C_1  and  C_2
REMARK    2  A    between atoms: C_6  and  N_7
REMARK    3  A    between atoms: N_7  and  C_8
REMARK    4  A    between atoms: C_8  and  C_9
REMARK    5  A    between atoms: N_11  and  C_12
REMARK    6  A    between atoms: C_12  and  C_13
REMARK    7  A    between atoms: C_18  and  C_20
REMARK    8  A    between atoms: C_20  and  C_21
REMARK    9  A    between atoms: C_21  and  C_22
REMARK   10  A    between atoms: C_27  and  C_28
REMARK                            x       y       z     vdW  Elec       q    Type
REMARK                         _______ _______ _______ _____ _____    ______ ____
ROOT
ATOM      1  N   UNL     1       3.253   6.194  18.382  0.00  0.00    +0.000 N 
ATOM      2  C   UNL     1       4.602   5.962  18.106  0.00  0.00    +0.000 C 
ATOM      3  O   UNL     1       5.273   5.092  18.677  0.00  0.00    +0.000 OA
ENDROOT
BRANCH   1   9
ATOM      4  C   UNL     1       0.513   2.016  18.740  0.00  0.00    +0.000 C 
ATOM      5  C   UNL     1       1.277   3.146  19.371  0.00  0.00    +0.000 A 
ATOM      6  C   UNL     1       1.357   3.252  20.764  0.00  0.00    +0.000 A 
ATOM      7  C   UNL     1       1.979   4.353  21.352  0.00  0.00    +0.000 A 
ATOM      8  C   UNL     1       2.542   5.355  20.560  0.00  0.00    +0.000 A 
ATOM      9  C   UNL     1       2.543   5.230  19.168  0.00  0.00    +0.000 A 
ATOM     10  C   UNL     1       1.892   4.131  18.579  0.00  0.00    +0.000 A 
ENDBRANCH   1   9
BRANCH   1  11
ATOM     11  C   UNL     1       2.416   7.096  17.561  0.00  0.00    +0.000 C 
BRANCH  11  12
ATOM     12  C   UNL     1       2.146   8.490  18.148  0.00  0.00    +0.000 C 
ATOM     13  O   UNL     1       2.480   9.510  17.547  0.00  0.00    +0.000 OA
ATOM     14  N   UNL     1       1.438   8.532  19.326  0.00  0.00    +0.000 N 
ATOM     15  H   UNL     1       0.903   7.713  19.591  0.00  0.00    +0.000 HD
BRANCH  14  16
ATOM     16  C   UNL     1       1.052   9.811  19.912  0.00  0.00    +0.000 C 
BRANCH  16  17
ATOM     17  C   UNL     1      -0.444  10.103  19.790  0.00  0.00    +0.000 C 
ATOM     18  C   UNL     1      -0.870  10.709  18.462  0.00  0.00    +0.000 C 
ATOM     19  C   UNL     1      -2.077  11.524  18.855  0.00  0.00    +0.000 C 
ATOM     20  C   UNL     1      -1.706  12.018  20.234  0.00  0.00    +0.000 C 
ATOM     21  O   UNL     1      -0.839  11.037  20.815  0.00  0.00    +0.000 OA
ENDBRANCH  16  17
ENDBRANCH  14  16
ENDBRANCH  11  12
ENDBRANCH   1  11
BRANCH   2  22
ATOM     22  C   UNL     1       5.302   6.904  17.133  0.00  0.00    +0.000 C 
BRANCH  22  23
ATOM     23  C   UNL     1       6.765   6.524  16.934  0.00  0.00    +0.000 C 
BRANCH  23  24
ATOM     24  C   UNL     1       7.649   7.359  17.836  0.00  0.00    +0.000 C 
ATOM     25  O   UNL     1       8.209   6.835  18.798  0.00  0.00    +0.000 OA
ATOM     26  N   UNL     1       7.676   8.691  17.482  0.00  0.00    +0.000 N 
ATOM     27  C   UNL     1       8.413   9.658  18.135  0.00  0.00    +0.000 A 
ATOM     28  C   UNL     1       8.442  11.025  17.758  0.00  0.00    +0.000 A 
ATOM     29  C   UNL     1       9.327  11.607  18.633  0.00  0.00    +0.000 A 
ATOM     30  C   UNL     1       9.888  12.958  18.809  0.00  0.00    +0.000 C 
ATOM     31  O   UNL     1       9.773  10.664  19.502  0.00  0.00    +0.000 OA
ATOM     32  N   UNL     1       9.204   9.450  19.187  0.00  0.00    +0.000 NA
ATOM     33  H   UNL     1       7.047   9.007  16.749  0.00  0.00    +0.000 HD
ENDBRANCH  23  24
ENDBRANCH  22  23
ENDBRANCH   2  22
TORSDOF 8
ENDMDL
MODEL 4
REMARK VINA RESULT:      -8.9      3.736      5.922
REMARK  Name = 
REMARK  10 active torsions:
REMARK  status: ('A' for Active; 'I' for Inactive)
REMARK    1  A    between atoms: C_1  and  C_2
REMARK    2  A    between atoms: C_6  and  N_7
REMARK    3  A    between atoms: N_7  and  C_8
REMARK    4  A    between atoms: C_8  and  C_9
REMARK    5  A    between atoms: N_11  and  C_12
REMARK    6  A    between atoms: C_12  and  C_13
REMARK    7  A    between atoms: C_18  and  C_20
REMARK    8  A    between atoms: C_20  and  C_21
REMARK    9  A    between atoms: C_21  and  C_22
REMARK   10  A    between atoms: C_27  and  C_28
REMARK                            x       y       z     vdW  Elec       q    Type
REMARK                         _______ _______ _______ _____ _____    ______ ____
ROOT
ATOM      1  N   UNL     1       3.312   5.978  18.175  0.00  0.00    +0.000 N 
ATOM      2  C   UNL     1       4.663   5.800  17.867  0.00  0.00    +0.000 C 
ATOM      3  O   UNL     1       5.313   4.805  18.212  0.00  0.00    +0.000 OA
ENDROOT
BRANCH   1   9
ATOM      4  C   UNL     1       1.885   3.072  21.998  0.00  0.00    +0.000 C 
ATOM      5  C   UNL     1       1.803   3.480  20.554  0.00  0.00    +0.000 A 
ATOM      6  C   UNL     1       0.953   2.799  19.676  0.00  0.00    +0.000 A 
ATOM      7  C   UNL     1       0.949   3.109  18.316  0.00  0.00    +0.000 A 
ATOM      8  C   UNL     1       1.781   4.113  17.817  0.00  0.00    +0.000 A 
ATOM      9  C   UNL     1       2.578   4.860  18.688  0.00  0.00    +0.000 A 
ATOM     10  C   UNL     1       2.598   4.526  20.054  0.00  0.00    +0.000 A 
ENDBRANCH   1   9
BRANCH   1  11
ATOM     11  C   UNL     1       2.499   7.069  17.594  0.00  0.00    +0.000 C 
BRANCH  11  12
ATOM     12  C   UNL     1       2.068   8.181  18.562  0.00  0.00    +0.000 C 
ATOM     13  O   UNL     1       1.953   7.967  19.767  0.00  0.00    +0.000 OA
ATOM     14  N   UNL     1       1.908   9.436  18.022  0.00  0.00    +0.000 N 
ATOM     15  H   UNL     1       2.338   9.628  17.125  0.00  0.00    +0.000 HD
BRANCH  14  16
ATOM     16  C   UNL     1       1.592  10.574  18.878  0.00  0.00    +0.000 C 
BRANCH  16  17
ATOM     17  C   UNL     1       0.233  11.203  18.567  0.00  0.00    +0.000 C 
ATOM     18  C   UNL     1      -0.565  11.633  19.789  0.00  0.00    +0.000 C 
ATOM     19  C   UNL     1      -1.987  11.495  19.307  0.00  0.00    +0.000 C 
ATOM     20  C   UNL     1      -1.911  10.290  18.397  0.00  0.00    +0.000 C 
ATOM     21  O   UNL     1      -0.586  10.255  17.854  0.00  0.00    +0.000 OA
ENDBRANCH  16  17
ENDBRANCH  14  16
ENDBRANCH  11  12
ENDBRANCH   1  11
BRANCH   2  22
ATOM     22  C   UNL     1       5.389   6.942  17.167  0.00  0.00    +0.000 C 
BRANCH  22  23
ATOM     23  C   UNL     1       6.862   6.621  16.942  0.00  0.00    +0.000 C 
BRANCH  23  24
ATOM     24  C   UNL     1       7.727   7.461  17.857  0.00  0.00    +0.000 C 
ATOM     25  O   UNL     1       8.262   6.946  18.837  0.00  0.00    +0.000 OA
ATOM     26  N   UNL     1       7.767   8.790  17.491  0.00  0.00    +0.000 N 
ATOM     27  C   UNL     1       8.490   9.762  18.152  0.00  0.00    +0.000 A 
ATOM     28  C   UNL     1       8.533  11.124  17.762  0.00  0.00    +0.000 A 
ATOM     29  C   UNL     1       9.398  11.713  18.653  0.00  0.00    +0.000 A 
ATOM     30  C   UNL     1       9.959  13.064  18.829  0.00  0.00    +0.000 C 
ATOM     31  O   UNL     1       9.820  10.777  19.541  0.00  0.00    +0.000 OA
ATOM     32  N   UNL     1       9.256   9.561  19.225  0.00  0.00    +0.000 NA
ATOM     33  H   UNL     1       7.157   9.101  16.740  0.00  0.00    +0.000 HD
ENDBRANCH  23  24
ENDBRANCH  22  23
ENDBRANCH   2  22
TORSDOF 8
ENDMDL
MODEL 5
REMARK VINA RESULT:      -8.8      3.355      5.506
REMARK  Name = 
REMARK  10 active torsions:
REMARK  status: ('A' for Active; 'I' for Inactive)
REMARK    1  A    between atoms: C_1  and  C_2
REMARK    2  A    between atoms: C_6  and  N_7
REMARK    3  A    between atoms: N_7  and  C_8
REMARK    4  A    between atoms: C_8  and  C_9
REMARK    5  A    between atoms: N_11  and  C_12
REMARK    6  A    between atoms: C_12  and  C_13
REMARK    7  A    between atoms: C_18  and  C_20
REMARK    8  A    between atoms: C_20  and  C_21
REMARK    9  A    between atoms: C_21  and  C_22
REMARK   10  A    between atoms: C_27  and  C_28
REMARK                            x       y       z     vdW  Elec       q    Type
REMARK                         _______ _______ _______ _____ _____    ______ ____
ROOT
ATOM      1  N   UNL     1       3.967   5.470  18.336  0.00  0.00    +0.000 N 
ATOM      2  C   UNL     1       5.363   5.446  18.327  0.00  0.00    +0.000 C 
ATOM      3  O   UNL     1       6.031   4.530  18.826  0.00  0.00    +0.000 OA
ENDROOT
BRANCH   1   9
ATOM      4  C   UNL     1       1.673   2.637  21.772  0.00  0.00    +0.000 C 
ATOM      5  C   UNL     1       2.070   2.916  20.350  0.00  0.00    +0.000 A 
ATOM      6  C   UNL     1       1.715   2.026  19.331  0.00  0.00    +0.000 A 
ATOM      7  C   UNL     1       2.167   2.229  18.027  0.00  0.00    +0.000 A 
ATOM      8  C   UNL     1       2.968   3.331  17.720  0.00  0.00    +0.000 A 
ATOM      9  C   UNL     1       3.268   4.275  18.706  0.00  0.00    +0.000 A 
ATOM     10  C   UNL     1       2.832   4.052  20.024  0.00  0.00    +0.000 A 
ENDBRANCH   1   9
BRANCH   1  11
ATOM     11  C   UNL     1       3.183   6.463  17.569  0.00  0.00    +0.000 C 
BRANCH  11  12
ATOM     12  C   UNL     1       2.572   7.615  18.381  0.00  0.00    +0.000 C 
ATOM     13  O   UNL     1       2.457   7.542  19.603  0.00  0.00    +0.000 OA
ATOM     14  N   UNL     1       2.250   8.754  17.681  0.00  0.00    +0.000 N 
ATOM     15  H   UNL     1       2.671   8.890  16.770  0.00  0.00    +0.000 HD
BRANCH  14  16
ATOM     16  C   UNL     1       1.752   9.935  18.379  0.00  0.00    +0.000 C 
BRANCH  16  17
ATOM     17  C   UNL     1       0.261   9.858  18.707  0.00  0.00    +0.000 C 
ATOM     18  C   UNL     1      -0.646   9.638  17.505  0.00  0.00    +0.000 C 
ATOM     19  C   UNL     1      -1.923  10.312  17.940  0.00  0.00    +0.000 C 
ATOM     20  C   UNL     1      -1.417  11.483  18.751  0.00  0.00    +0.000 C 
ATOM     21  O   UNL     1      -0.163  11.091  19.322  0.00  0.00    +0.000 OA
ENDBRANCH  16  17
ENDBRANCH  14  16
ENDBRANCH  11  12
ENDBRANCH   1  11
BRANCH   2  22
ATOM     22  C   UNL     1       6.092   6.664  17.773  0.00  0.00    +0.000 C 
BRANCH  22  23
ATOM     23  C   UNL     1       7.520   6.756  18.300  0.00  0.00    +0.000 C 
BRANCH  23  24
ATOM     24  C   UNL     1       8.103   8.120  17.995  0.00  0.00    +0.000 C 
ATOM     25  O   UNL     1       8.117   8.535  16.838  0.00  0.00    +0.000 OA
ATOM     26  N   UNL     1       8.629   8.741  19.108  0.00  0.00    +0.000 N 
ATOM     27  C   UNL     1       9.209   9.994  19.102  0.00  0.00    +0.000 A 
ATOM     28  C   UNL     1       9.738  10.630  20.254  0.00  0.00    +0.000 A 
ATOM     29  C   UNL     1      10.160  11.859  19.808  0.00  0.00    +0.000 A 
ATOM     30  C   UNL     1      10.750  13.054  20.437  0.00  0.00    +0.000 C 
ATOM     31  O   UNL     1       9.933  11.944  18.472  0.00  0.00    +0.000 OA
ATOM     32  N   UNL     1       9.338  10.782  18.036  0.00  0.00    +0.000 NA
ATOM     33  H   UNL     1       8.677   8.215  19.976  0.00  0.00    +0.000 HD
ENDBRANCH  23  24
ENDBRANCH  22  23
ENDBRANCH   2  22
TORSDOF 8
ENDMDL
MODEL 6
REMARK VINA RESULT:      -8.7      1.750      5.443
REMARK  Name = 
REMARK  10 active torsions:
REMARK  status: ('A' for Active; 'I' for Inactive)
REMARK    1  A    between atoms: C_1  and  C_2
REMARK    2  A    between atoms: C_6  and  N_7
REMARK    3  A    between atoms: N_7  and  C_8
REMARK    4  A    between atoms: C_8  and  C_9
REMARK    5  A    between atoms: N_11  and  C_12
REMARK    6  A    between atoms: C_12  and  C_13
REMARK    7  A    between atoms: C_18  and  C_20
REMARK    8  A    between atoms: C_20  and  C_21
REMARK    9  A    between atoms: C_21  and  C_22
REMARK   10  A    between atoms: C_27  and  C_28
REMARK                            x       y       z     vdW  Elec       q    Type
REMARK                         _______ _______ _______ _____ _____    ______ ____
ROOT
ATOM      1  N   UNL     1       4.725   5.805  18.122  0.00  0.00    +0.000 N 
ATOM      2  C   UNL     1       5.955   5.448  18.681  0.00  0.00    +0.000 C 
ATOM      3  O   UNL     1       6.067   4.901  19.785  0.00  0.00    +0.000 OA
ENDROOT
BRANCH   1   9
ATOM      4  C   UNL     1       1.273   2.208  18.614  0.00  0.00    +0.000 C 
ATOM      5  C   UNL     1       1.882   3.514  19.041  0.00  0.00    +0.000 A 
ATOM      6  C   UNL     1       1.318   4.246  20.091  0.00  0.00    +0.000 A 
ATOM      7  C   UNL     1       1.819   5.504  20.423  0.00  0.00    +0.000 A 
ATOM      8  C   UNL     1       2.901   6.042  19.723  0.00  0.00    +0.000 A 
ATOM      9  C   UNL     1       3.531   5.294  18.725  0.00  0.00    +0.000 A 
ATOM     10  C   UNL     1       3.004   4.037  18.376  0.00  0.00    +0.000 A 
ENDBRANCH   1   9
BRANCH   1  11
ATOM     11  C   UNL     1       4.591   6.274  16.725  0.00  0.00    +0.000 C 
BRANCH  11  12
ATOM     12  C   UNL     1       5.537   5.629  15.701  0.00  0.00    +0.000 C 
ATOM     13  O   UNL     1       6.467   6.262  15.206  0.00  0.00    +0.000 OA
ATOM     14  N   UNL     1       5.339   4.293  15.441  0.00  0.00    +0.000 N 
ATOM     15  H   UNL     1       4.803   3.751  16.109  0.00  0.00    +0.000 HD
BRANCH  14  16
ATOM     16  C   UNL     1       6.245   3.570  14.554  0.00  0.00    +0.000 C 
BRANCH  16  17
ATOM     17  C   UNL     1       5.900   3.737  13.074  0.00  0.00    +0.000 C 
ATOM     18  C   UNL     1       4.414   3.673  12.755  0.00  0.00    +0.000 C 
ATOM     19  C   UNL     1       4.412   3.134  11.346  0.00  0.00    +0.000 C 
ATOM     20  C   UNL     1       5.590   2.185  11.356  0.00  0.00    +0.000 C 
ATOM     21  O   UNL     1       6.531   2.690  12.310  0.00  0.00    +0.000 OA
ENDBRANCH  16  17
ENDBRANCH  14  16
ENDBRANCH  11  12
ENDBRANCH   1  11
BRANCH   2  22
ATOM     22  C   UNL     1       7.220   5.856  17.935  0.00  0.00    +0.000 C 
BRANCH  22  23
ATOM     23  C   UNL     1       8.155   6.676  18.817  0.00  0.00    +0.000 C 
BRANCH  23  24
ATOM     24  C   UNL     1       8.230   8.103  18.315  0.00  0.00    +0.000 C 
ATOM     25  O   UNL     1       7.714   8.401  17.240  0.00  0.00    +0.000 OA
ATOM     26  N   UNL     1       8.958   8.928  19.146  0.00  0.00    +0.000 N 
ATOM     27  C   UNL     1       9.168  10.274  18.922  0.00  0.00    +0.000 A 
ATOM     28  C   UNL     1       9.909  11.118  19.787  0.00  0.00    +0.000 A 
ATOM     29  C   UNL     1       9.821  12.364  19.216  0.00  0.00    +0.000 A 
ATOM     30  C   UNL     1      10.287  13.715  19.575  0.00  0.00    +0.000 C 
ATOM     31  O   UNL     1       9.105  12.272  18.066  0.00  0.00    +0.000 OA
ATOM     32  N   UNL     1       8.697  10.969  17.887  0.00  0.00    +0.000 NA
ATOM     33  H   UNL     1       9.450   8.510  19.930  0.00  0.00    +0.000 HD
ENDBRANCH  23  24
ENDBRANCH  22  23
ENDBRANCH   2  22
TORSDOF 8
ENDMDL
MODEL 7
REMARK VINA RESULT:      -8.7      3.426      4.969
REMARK  Name = 
REMARK  10 active torsions:
REMARK  status: ('A' for Active; 'I' for Inactive)
REMARK    1  A    between atoms: C_1  and  C_2
REMARK    2  A    between atoms: C_6  and  N_7
REMARK    3  A    between atoms: N_7  and  C_8
REMARK    4  A    between atoms: C_8  and  C_9
REMARK    5  A    between atoms: N_11  and  C_12
REMARK    6  A    between atoms: C_12  and  C_13
REMARK    7  A    between atoms: C_18  and  C_20
REMARK    8  A    between atoms: C_20  and  C_21
REMARK    9  A    between atoms: C_21  and  C_22
REMARK   10  A    between atoms: C_27  and  C_28
REMARK                            x       y       z     vdW  Elec       q    Type
REMARK                         _______ _______ _______ _____ _____    ______ ____
ROOT
ATOM      1  N   UNL     1       6.256   5.589  15.987  0.00  0.00    +0.000 N 
ATOM      2  C   UNL     1       5.155   6.445  16.075  0.00  0.00    +0.000 C 
ATOM      3  O   UNL     1       4.612   6.958  15.088  0.00  0.00    +0.000 OA
ENDROOT
BRANCH   1   9
ATOM      4  C   UNL     1       5.351   2.627  12.050  0.00  0.00    +0.000 C 
ATOM      5  C   UNL     1       6.151   3.702  12.731  0.00  0.00    +0.000 A 
ATOM      6  C   UNL     1       7.254   4.274  12.089  0.00  0.00    +0.000 A 
ATOM      7  C   UNL     1       8.057   5.199  12.757  0.00  0.00    +0.000 A 
ATOM      8  C   UNL     1       7.761   5.576  14.068  0.00  0.00    +0.000 A 
ATOM      9  C   UNL     1       6.619   5.078  14.700  0.00  0.00    +0.000 A 
ATOM     10  C   UNL     1       5.827   4.126  14.032  0.00  0.00    +0.000 A 
ENDBRANCH   1   9
BRANCH   1  11
ATOM     11  C   UNL     1       6.770   4.831  17.149  0.00  0.00    +0.000 C 
BRANCH  11  12
ATOM     12  C   UNL     1       5.746   3.961  17.896  0.00  0.00    +0.000 C 
ATOM     13  O   UNL     1       5.689   3.959  19.124  0.00  0.00    +0.000 OA
ATOM     14  N   UNL     1       4.851   3.265  17.119  0.00  0.00    +0.000 N 
ATOM     15  H   UNL     1       4.720   3.562  16.159  0.00  0.00    +0.000 HD
BRANCH  14  16
ATOM     16  C   UNL     1       3.783   2.487  17.739  0.00  0.00    +0.000 C 
BRANCH  16  17
ATOM     17  C   UNL     1       2.693   3.355  18.368  0.00  0.00    +0.000 C 
ATOM     18  C   UNL     1       2.544   3.199  19.874  0.00  0.00    +0.000 C 
ATOM     19  C   UNL     1       1.083   3.511  20.085  0.00  0.00    +0.000 C 
ATOM     20  C   UNL     1       0.442   2.941  18.839  0.00  0.00    +0.000 C 
ATOM     21  O   UNL     1       1.415   3.019  17.791  0.00  0.00    +0.000 OA
ENDBRANCH  16  17
ENDBRANCH  14  16
ENDBRANCH  11  12
ENDBRANCH   1  11
BRANCH   2  22
ATOM     22  C   UNL     1       4.676   6.847  17.465  0.00  0.00    +0.000 C 
BRANCH  22  23
ATOM     23  C   UNL     1       3.241   7.362  17.441  0.00  0.00    +0.000 C 
BRANCH  23  24
ATOM     24  C   UNL     1       2.692   7.447  18.849  0.00  0.00    +0.000 C 
ATOM     25  O   UNL     1       2.967   6.570  19.667  0.00  0.00    +0.000 OA
ATOM     26  N   UNL     1       1.859   8.528  19.038  0.00  0.00    +0.000 N 
ATOM     27  C   UNL     1       1.238   8.838  20.232  0.00  0.00    +0.000 A 
ATOM     28  C   UNL     1       0.390   9.959  20.419  0.00  0.00    +0.000 A 
ATOM     29  C   UNL     1       0.041   9.911  21.747  0.00  0.00    +0.000 A 
ATOM     30  C   UNL     1      -0.755  10.760  22.650  0.00  0.00    +0.000 C 
ATOM     31  O   UNL     1       0.610   8.816  22.313  0.00  0.00    +0.000 OA
ATOM     32  N   UNL     1       1.359   8.151  21.367  0.00  0.00    +0.000 NA
ATOM     33  H   UNL     1       1.608   9.090  18.229  0.00  0.00    +0.000 HD
ENDBRANCH  23  24
ENDBRANCH  22  23
ENDBRANCH   2  22
TORSDOF 8
ENDMDL
MODEL 8
REMARK VINA RESULT:      -8.6      3.497      5.027
REMARK  Name = 
REMARK  10 active torsions:
REMARK  status: ('A' for Active; 'I' for Inactive)
REMARK    1  A    between atoms: C_1  and  C_2
REMARK    2  A    between atoms: C_6  and  N_7
REMARK    3  A    between atoms: N_7  and  C_8
REMARK    4  A    between atoms: C_8  and  C_9
REMARK    5  A    between atoms: N_11  and  C_12
REMARK    6  A    between atoms: C_12  and  C_13
REMARK    7  A    between atoms: C_18  and  C_20
REMARK    8  A    between atoms: C_20  and  C_21
REMARK    9  A    between atoms: C_21  and  C_22
REMARK   10  A    between atoms: C_27  and  C_28
REMARK                            x       y       z     vdW  Elec       q    Type
REMARK                         _______ _______ _______ _____ _____    ______ ____
ROOT
ATOM      1  N   UNL     1       5.812   5.314  16.024  0.00  0.00    +0.000 N 
ATOM      2  C   UNL     1       5.100   6.512  16.123  0.00  0.00    +0.000 C 
ATOM      3  O   UNL     1       4.957   7.298  15.178  0.00  0.00    +0.000 OA
ENDROOT
BRANCH   1   9
ATOM      4  C   UNL     1       4.689   2.910  11.775  0.00  0.00    +0.000 C 
ATOM      5  C   UNL     1       5.619   3.749  12.605  0.00  0.00    +0.000 A 
ATOM      6  C   UNL     1       6.860   4.142  12.094  0.00  0.00    +0.000 A 
ATOM      7  C   UNL     1       7.766   4.835  12.896  0.00  0.00    +0.000 A 
ATOM      8  C   UNL     1       7.440   5.158  14.215  0.00  0.00    +0.000 A 
ATOM      9  C   UNL     1       6.176   4.845  14.720  0.00  0.00    +0.000 A 
ATOM     10  C   UNL     1       5.276   4.123  13.916  0.00  0.00    +0.000 A 
ENDBRANCH   1   9
BRANCH   1  11
ATOM     11  C   UNL     1       5.810   4.295  17.097  0.00  0.00    +0.000 C 
BRANCH  11  12
ATOM     12  C   UNL     1       4.530   3.454  17.229  0.00  0.00    +0.000 C 
ATOM     13  O   UNL     1       4.531   2.250  16.982  0.00  0.00    +0.000 OA
ATOM     14  N   UNL     1       3.420   4.101  17.719  0.00  0.00    +0.000 N 
ATOM     15  H   UNL     1       3.557   4.972  18.219  0.00  0.00    +0.000 HD
BRANCH  14  16
ATOM     16  C   UNL     1       2.186   3.365  17.968  0.00  0.00    +0.000 C 
BRANCH  16  17
ATOM     17  C   UNL     1       2.130   2.734  19.361  0.00  0.00    +0.000 C 
ATOM     18  C   UNL     1       0.775   2.822  20.047  0.00  0.00    +0.000 C 
ATOM     19  C   UNL     1       1.157   2.845  21.506  0.00  0.00    +0.000 C 
ATOM     20  C   UNL     1       2.450   3.627  21.495  0.00  0.00    +0.000 C 
ATOM     21  O   UNL     1       3.074   3.395  20.227  0.00  0.00    +0.000 OA
ENDBRANCH  16  17
ENDBRANCH  14  16
ENDBRANCH  11  12
ENDBRANCH   1  11
BRANCH   2  22
ATOM     22  C   UNL     1       4.573   6.914  17.496  0.00  0.00    +0.000 C 
BRANCH  22  23
ATOM     23  C   UNL     1       3.213   7.595  17.401  0.00  0.00    +0.000 C 
BRANCH  23  24
ATOM     24  C   UNL     1       2.534   7.600  18.754  0.00  0.00    +0.000 C 
ATOM     25  O   UNL     1       2.630   6.620  19.490  0.00  0.00    +0.000 OA
ATOM     26  N   UNL     1       1.803   8.745  18.986  0.00  0.00    +0.000 N 
ATOM     27  C   UNL     1       1.100   9.003  20.146  0.00  0.00    +0.000 A 
ATOM     28  C   UNL     1       0.359  10.189  20.379  0.00  0.00    +0.000 A 
ATOM     29  C   UNL     1      -0.128  10.047  21.656  0.00  0.00    +0.000 A 
ATOM     30  C   UNL     1      -0.919  10.886  22.573  0.00  0.00    +0.000 C 
ATOM     31  O   UNL     1       0.263   8.843  22.146  0.00  0.00    +0.000 OA
ATOM     32  N   UNL     1       1.031   8.195  21.204  0.00  0.00    +0.000 NA
ATOM     33  H   UNL     1       1.696   9.411  18.225  0.00  0.00    +0.000 HD
ENDBRANCH  23  24
ENDBRANCH  22  23
ENDBRANCH   2  22
TORSDOF 8
ENDMDL
MODEL 9
REMARK VINA RESULT:      -8.6      1.951      5.712
REMARK  Name = 
REMARK  10 active torsions:
REMARK  status: ('A' for Active; 'I' for Inactive)
REMARK    1  A    between atoms: C_1  and  C_2
REMARK    2  A    between atoms: C_6  and  N_7
REMARK    3  A    between atoms: N_7  and  C_8
REMARK    4  A    between atoms: C_8  and  C_9
REMARK    5  A    between atoms: N_11  and  C_12
REMARK    6  A    between atoms: C_12  and  C_13
REMARK    7  A    between atoms: C_18  and  C_20
REMARK    8  A    between atoms: C_20  and  C_21
REMARK    9  A    between atoms: C_21  and  C_22
REMARK   10  A    between atoms: C_27  and  C_28
REMARK                            x       y       z     vdW  Elec       q    Type
REMARK                         _______ _______ _______ _____ _____    ______ ____
ROOT
ATOM      1  N   UNL     1       5.311   5.382  17.955  0.00  0.00    +0.000 N 
ATOM      2  C   UNL     1       6.554   5.683  18.517  0.00  0.00    +0.000 C 
ATOM      3  O   UNL     1       6.833   5.474  19.704  0.00  0.00    +0.000 OA
ENDROOT
BRANCH   1   9
ATOM      4  C   UNL     1       1.094   4.839  20.603  0.00  0.00    +0.000 C 
ATOM      5  C   UNL     1       2.308   4.263  19.931  0.00  0.00    +0.000 A 
ATOM      6  C   UNL     1       2.556   2.887  19.981  0.00  0.00    +0.000 A 
ATOM      7  C   UNL     1       3.732   2.362  19.445  0.00  0.00    +0.000 A 
ATOM      8  C   UNL     1       4.669   3.201  18.840  0.00  0.00    +0.000 A 
ATOM      9  C   UNL     1       4.405   4.567  18.708  0.00  0.00    +0.000 A 
ATOM     10  C   UNL     1       3.230   5.095  19.273  0.00  0.00    +0.000 A 
ENDBRANCH   1   9
BRANCH   1  11
ATOM     11  C   UNL     1       5.056   5.454  16.500  0.00  0.00    +0.000 C 
BRANCH  11  12
ATOM     12  C   UNL     1       5.926   4.547  15.615  0.00  0.00    +0.000 C 
ATOM     13  O   UNL     1       6.068   3.353  15.873  0.00  0.00    +0.000 OA
ATOM     14  N   UNL     1       6.456   5.121  14.484  0.00  0.00    +0.000 N 
ATOM     15  H   UNL     1       6.040   5.980  14.144  0.00  0.00    +0.000 HD
BRANCH  14  16
ATOM     16  C   UNL     1       7.217   4.316  13.534  0.00  0.00    +0.000 C 
BRANCH  16  17
ATOM     17  C   UNL     1       6.429   3.969  12.271  0.00  0.00    +0.000 C 
ATOM     18  C   UNL     1       4.927   3.835  12.473  0.00  0.00    +0.000 C 
ATOM     19  C   UNL     1       4.548   2.842  11.403  0.00  0.00    +0.000 C 
ATOM     20  C   UNL     1       5.750   1.927  11.362  0.00  0.00    +0.000 C 
ATOM     21  O   UNL     1       6.888   2.707  11.746  0.00  0.00    +0.000 OA
ENDBRANCH  16  17
ENDBRANCH  14  16
ENDBRANCH  11  12
ENDBRANCH   1  11
BRANCH   2  22
ATOM     22  C   UNL     1       7.572   6.407  17.643  0.00  0.00    +0.000 C 
BRANCH  22  23
ATOM     23  C   UNL     1       7.219   7.880  17.468  0.00  0.00    +0.000 C 
BRANCH  23  24
ATOM     24  C   UNL     1       8.234   8.749  18.181  0.00  0.00    +0.000 C 
ATOM     25  O   UNL     1       8.918   8.275  19.086  0.00  0.00    +0.000 OA
ATOM     26  N   UNL     1       8.228  10.056  17.741  0.00  0.00    +0.000 N 
ATOM     27  C   UNL     1       9.062  11.046  18.219  0.00  0.00    +0.000 A 
ATOM     28  C   UNL     1       9.056  12.385  17.753  0.00  0.00    +0.000 A 
ATOM     29  C   UNL     1      10.064  13.001  18.456  0.00  0.00    +0.000 A 
ATOM     30  C   UNL     1      10.662  14.347  18.462  0.00  0.00    +0.000 C 
ATOM     31  O   UNL     1      10.616  12.104  19.312  0.00  0.00    +0.000 OA
ATOM     32  N   UNL     1       9.992  10.886  19.161  0.00  0.00    +0.000 NA
ATOM     33  H   UNL     1       7.506  10.340  17.084  0.00  0.00    +0.000 HD
ENDBRANCH  23  24
ENDBRANCH  22  23
ENDBRANCH   2  22
TORSDOF 8
ENDMDL
