MODEL 1
REMARK VINA RESULT:      -6.5      0.000      0.000
REMARK  Name = 
REMARK  1 active torsions:
REMARK  status: ('A' for Active; 'I' for Inactive)
REMARK    1  A    between atoms: N_5  and  C_6
REMARK                            x       y       z     vdW  Elec       q    Type
REMARK                         _______ _______ _______ _____ _____    ______ ____
ROOT
ATOM      1  N   UNL     1       7.571   5.283  14.005  0.00  0.00    +0.000 N 
ATOM      2  C   UNL     1       6.943   4.955  15.174  0.00  0.00    +0.000 A 
ATOM      3  C   UNL     1       5.489   4.711  15.174  0.00  0.00    +0.000 A 
ATOM      4  C   UNL     1       4.950   4.408  16.352  0.00  0.00    +0.000 A 
ATOM      5  N   UNL     1       5.719   4.337  17.493  0.00  0.00    +0.000 N 
ATOM      6  C   UNL     1       7.098   4.573  17.451  0.00  0.00    +0.000 A 
ATOM      7  O   UNL     1       7.780   4.518  18.472  0.00  0.00    +0.000 OA
ATOM      8  N   UNL     1       7.678   4.870  16.237  0.00  0.00    +0.000 NA
ATOM      9  H   UNL     1       7.178   4.937  13.140  0.00  0.00    +0.000 HD
ATOM     10  H   UNL     1       8.581   5.196  14.064  0.00  0.00    +0.000 HD
ENDROOT
BRANCH   5  11
ATOM     11  C   UNL     1       5.128   4.100  18.805  0.00  0.00    +0.000 C 
ATOM     12  C   UNL     1       3.898   3.196  18.783  0.00  0.00    +0.000 C 
ATOM     13  C   UNL     1       3.086   3.718  19.942  0.00  0.00    +0.000 C 
ATOM     14  C   UNL     1       3.362   5.200  19.869  0.00  0.00    +0.000 C 
ATOM     15  O   UNL     1       4.716   5.338  19.428  0.00  0.00    +0.000 OA
ENDBRANCH   5  11
TORSDOF 1
ENDMDL
MODEL 2
REMARK VINA RESULT:      -6.0      1.436      1.618
REMARK  Name = 
REMARK  1 active torsions:
REMARK  status: ('A' for Active; 'I' for Inactive)
REMARK    1  A    between atoms: N_5  and  C_6
REMARK                            x       y       z     vdW  Elec       q    Type
REMARK                         _______ _______ _______ _____ _____    ______ ____
ROOT
ATOM      1  N   UNL     1       7.604   5.530  15.228  0.00  0.00    +0.000 N 
ATOM      2  C   UNL     1       6.657   4.963  16.035  0.00  0.00    +0.000 A 
ATOM      3  C   UNL     1       5.474   4.326  15.430  0.00  0.00    +0.000 A 
ATOM      4  C   UNL     1       4.592   3.808  16.283  0.00  0.00    +0.000 A 
ATOM      5  N   UNL     1       4.789   3.877  17.645  0.00  0.00    +0.000 N 
ATOM      6  C   UNL     1       5.928   4.489  18.180  0.00  0.00    +0.000 A 
ATOM      7  O   UNL     1       6.096   4.558  19.395  0.00  0.00    +0.000 OA
ATOM      8  N   UNL     1       6.861   5.015  17.314  0.00  0.00    +0.000 NA
ATOM      9  H   UNL     1       7.730   5.145  14.301  0.00  0.00    +0.000 HD
ATOM     10  H   UNL     1       8.472   5.722  15.717  0.00  0.00    +0.000 HD
ENDROOT
BRANCH   5  11
ATOM     11  C   UNL     1       3.787   3.400  18.591  0.00  0.00    +0.000 C 
ATOM     12  C   UNL     1       3.093   2.107  18.168  0.00  0.00    +0.000 C 
ATOM     13  C   UNL     1       1.720   2.258  18.775  0.00  0.00    +0.000 C 
ATOM     14  C   UNL     1       1.475   3.739  18.619  0.00  0.00    +0.000 C 
ATOM     15  O   UNL     1       2.743   4.380  18.792  0.00  0.00    +0.000 OA
ENDBRANCH   5  11
TORSDOF 1
ENDMDL
MODEL 3
REMARK VINA RESULT:      -5.9      2.336      3.112
REMARK  Name = 
REMARK  1 active torsions:
REMARK  status: ('A' for Active; 'I' for Inactive)
REMARK    1  A    between atoms: N_5  and  C_6
REMARK                            x       y       z     vdW  Elec       q    Type
REMARK                         _______ _______ _______ _____ _____    ______ ____
ROOT
ATOM      1  N   UNL     1       6.615   5.874  15.664  0.00  0.00    +0.000 N 
ATOM      2  C   UNL     1       5.485   5.526  16.350  0.00  0.00    +0.000 A 
ATOM      3  C   UNL     1       5.055   4.116  16.374  0.00  0.00    +0.000 A 
ATOM      4  C   UNL     1       3.940   3.860  17.053  0.00  0.00    +0.000 A 
ATOM      5  N   UNL     1       3.239   4.865  17.683  0.00  0.00    +0.000 N 
ATOM      6  C   UNL     1       3.682   6.191  17.639  0.00  0.00    +0.000 A 
ATOM      7  O   UNL     1       3.050   7.087  18.195  0.00  0.00    +0.000 OA
ATOM      8  N   UNL     1       4.845   6.475  16.957  0.00  0.00    +0.000 NA
ATOM      9  H   UNL     1       7.349   5.183  15.574  0.00  0.00    +0.000 HD
ATOM     10  H   UNL     1       6.949   6.802  15.904  0.00  0.00    +0.000 HD
ENDROOT
BRANCH   5  11
ATOM     11  C   UNL     1       1.966   4.614  18.349  0.00  0.00    +0.000 C 
ATOM     12  C   UNL     1       2.093   4.268  19.831  0.00  0.00    +0.000 C 
ATOM     13  C   UNL     1       0.917   3.351  20.056  0.00  0.00    +0.000 C 
ATOM     14  C   UNL     1       0.863   2.593  18.752  0.00  0.00    +0.000 C 
ATOM     15  O   UNL     1       1.257   3.516  17.731  0.00  0.00    +0.000 OA
ENDBRANCH   5  11
TORSDOF 1
ENDMDL
MODEL 4
REMARK VINA RESULT:      -5.8      2.593      5.050
REMARK  Name = 
REMARK  1 active torsions:
REMARK  status: ('A' for Active; 'I' for Inactive)
REMARK    1  A    between atoms: N_5  and  C_6
REMARK                            x       y       z     vdW  Elec       q    Type
REMARK                         _______ _______ _______ _____ _____    ______ ____
ROOT
ATOM      1  N   UNL     1       0.737   3.025  20.390  0.00  0.00    +0.000 N 
ATOM      2  C   UNL     1       1.777   3.472  19.624  0.00  0.00    +0.000 A 
ATOM      3  C   UNL     1       1.499   4.245  18.400  0.00  0.00    +0.000 A 
ATOM      4  C   UNL     1       2.564   4.634  17.703  0.00  0.00    +0.000 A 
ATOM      5  N   UNL     1       3.841   4.320  18.114  0.00  0.00    +0.000 N 
ATOM      6  C   UNL     1       4.064   3.586  19.284  0.00  0.00    +0.000 A 
ATOM      7  O   UNL     1       5.203   3.300  19.643  0.00  0.00    +0.000 OA
ATOM      8  N   UNL     1       2.975   3.190  20.030  0.00  0.00    +0.000 NA
ATOM      9  H   UNL     1      -0.121   3.562  20.387  0.00  0.00    +0.000 HD
ATOM     10  H   UNL     1       1.031   2.721  21.313  0.00  0.00    +0.000 HD
ENDROOT
BRANCH   5  11
ATOM     11  C   UNL     1       5.011   4.657  17.312  0.00  0.00    +0.000 C 
ATOM     12  C   UNL     1       4.885   5.971  16.544  0.00  0.00    +0.000 C 
ATOM     13  C   UNL     1       5.720   5.714  15.314  0.00  0.00    +0.000 C 
ATOM     14  C   UNL     1       5.438   4.256  15.049  0.00  0.00    +0.000 C 
ATOM     15  O   UNL     1       5.288   3.633  16.329  0.00  0.00    +0.000 OA
ENDBRANCH   5  11
TORSDOF 1
ENDMDL
MODEL 5
REMARK VINA RESULT:      -5.8      2.688      4.977
REMARK  Name = 
REMARK  1 active torsions:
REMARK  status: ('A' for Active; 'I' for Inactive)
REMARK    1  A    between atoms: N_5  and  C_6
REMARK                            x       y       z     vdW  Elec       q    Type
REMARK                         _______ _______ _______ _____ _____    ______ ____
ROOT
ATOM      1  N   UNL     1       0.566   3.448  20.236  0.00  0.00    +0.000 N 
ATOM      2  C   UNL     1       1.846   3.713  19.834  0.00  0.00    +0.000 A 
ATOM      3  C   UNL     1       2.122   4.923  19.039  0.00  0.00    +0.000 A 
ATOM      4  C   UNL     1       3.390   5.104  18.677  0.00  0.00    +0.000 A 
ATOM      5  N   UNL     1       4.370   4.202  19.029  0.00  0.00    +0.000 N 
ATOM      6  C   UNL     1       4.067   3.066  19.788  0.00  0.00    +0.000 A 
ATOM      7  O   UNL     1       4.942   2.258  20.094  0.00  0.00    +0.000 OA
ATOM      8  N   UNL     1       2.764   2.870  20.189  0.00  0.00    +0.000 NA
ATOM      9  H   UNL     1      -0.057   4.231  20.384  0.00  0.00    +0.000 HD
ATOM     10  H   UNL     1       0.521   2.742  20.962  0.00  0.00    +0.000 HD
ENDROOT
BRANCH   5  11
ATOM     11  C   UNL     1       5.744   4.337  18.560  0.00  0.00    +0.000 C 
ATOM     12  C   UNL     1       6.550   5.412  19.286  0.00  0.00    +0.000 C 
ATOM     13  C   UNL     1       7.505   5.884  18.218  0.00  0.00    +0.000 C 
ATOM     14  C   UNL     1       6.647   5.804  16.980  0.00  0.00    +0.000 C 
ATOM     15  O   UNL     1       5.790   4.671  17.154  0.00  0.00    +0.000 OA
ENDBRANCH   5  11
TORSDOF 1
ENDMDL
MODEL 6
REMARK VINA RESULT:      -5.8      2.515      4.836
REMARK  Name = 
REMARK  1 active torsions:
REMARK  status: ('A' for Active; 'I' for Inactive)
REMARK    1  A    between atoms: N_5  and  C_6
REMARK                            x       y       z     vdW  Elec       q    Type
REMARK                         _______ _______ _______ _____ _____    ______ ____
ROOT
ATOM      1  N   UNL     1       0.803   1.982  18.641  0.00  0.00    +0.000 N 
ATOM      2  C   UNL     1       1.929   2.757  18.595  0.00  0.00    +0.000 A 
ATOM      3  C   UNL     1       3.079   2.322  17.783  0.00  0.00    +0.000 A 
ATOM      4  C   UNL     1       4.140   3.125  17.799  0.00  0.00    +0.000 A 
ATOM      5  N   UNL     1       4.147   4.286  18.541  0.00  0.00    +0.000 N 
ATOM      6  C   UNL     1       3.033   4.666  19.298  0.00  0.00    +0.000 A 
ATOM      7  O   UNL     1       3.045   5.698  19.966  0.00  0.00    +0.000 OA
ATOM      8  N   UNL     1       1.917   3.858  19.279  0.00  0.00    +0.000 NA
ATOM      9  H   UNL     1       0.589   1.408  17.836  0.00  0.00    +0.000 HD
ATOM     10  H   UNL     1       0.002   2.475  19.022  0.00  0.00    +0.000 HD
ENDROOT
BRANCH   5  11
ATOM     11  C   UNL     1       5.334   5.126  18.644  0.00  0.00    +0.000 C 
ATOM     12  C   UNL     1       5.536   6.072  17.463  0.00  0.00    +0.000 C 
ATOM     13  C   UNL     1       7.038   6.192  17.390  0.00  0.00    +0.000 C 
ATOM     14  C   UNL     1       7.477   4.798  17.769  0.00  0.00    +0.000 C 
ATOM     15  O   UNL     1       6.536   4.327  18.739  0.00  0.00    +0.000 OA
ENDBRANCH   5  11
TORSDOF 1
ENDMDL
MODEL 7
REMARK VINA RESULT:      -5.7      2.502      4.662
REMARK  Name = 
REMARK  1 active torsions:
REMARK  status: ('A' for Active; 'I' for Inactive)
REMARK    1  A    between atoms: N_5  and  C_6
REMARK                            x       y       z     vdW  Elec       q    Type
REMARK                         _______ _______ _______ _____ _____    ______ ____
ROOT
ATOM      1  N   UNL     1       0.933   1.922  18.629  0.00  0.00    +0.000 N 
ATOM      2  C   UNL     1       2.100   2.622  18.501  0.00  0.00    +0.000 A 
ATOM      3  C   UNL     1       2.205   3.681  17.481  0.00  0.00    +0.000 A 
ATOM      4  C   UNL     1       3.376   4.308  17.411  0.00  0.00    +0.000 A 
ATOM      5  N   UNL     1       4.419   3.970  18.247  0.00  0.00    +0.000 N 
ATOM      6  C   UNL     1       4.279   2.960  19.205  0.00  0.00    +0.000 A 
ATOM      7  O   UNL     1       5.213   2.654  19.942  0.00  0.00    +0.000 OA
ATOM      8  N   UNL     1       3.067   2.311  19.305  0.00  0.00    +0.000 NA
ATOM      9  H   UNL     1       0.070   2.387  18.379  0.00  0.00    +0.000 HD
ATOM     10  H   UNL     1       0.883   1.396  19.495  0.00  0.00    +0.000 HD
ENDROOT
BRANCH   5  11
ATOM     11  C   UNL     1       5.736   4.582  18.118  0.00  0.00    +0.000 C 
ATOM     12  C   UNL     1       5.711   6.106  18.022  0.00  0.00    +0.000 C 
ATOM     13  C   UNL     1       6.915   6.400  17.162  0.00  0.00    +0.000 C 
ATOM     14  C   UNL     1       6.898   5.238  16.200  0.00  0.00    +0.000 C 
ATOM     15  O   UNL     1       6.424   4.108  16.938  0.00  0.00    +0.000 OA
ENDBRANCH   5  11
TORSDOF 1
ENDMDL
MODEL 8
REMARK VINA RESULT:      -5.7      2.188      2.548
REMARK  Name = 
REMARK  1 active torsions:
REMARK  status: ('A' for Active; 'I' for Inactive)
REMARK    1  A    between atoms: N_5  and  C_6
REMARK                            x       y       z     vdW  Elec       q    Type
REMARK                         _______ _______ _______ _____ _____    ______ ____
ROOT
ATOM      1  N   UNL     1       6.727   7.398  16.834  0.00  0.00    +0.000 N 
ATOM      2  C   UNL     1       5.800   6.563  17.392  0.00  0.00    +0.000 A 
ATOM      3  C   UNL     1       4.365   6.830  17.187  0.00  0.00    +0.000 A 
ATOM      4  C   UNL     1       3.526   5.978  17.772  0.00  0.00    +0.000 A 
ATOM      5  N   UNL     1       3.988   4.920  18.524  0.00  0.00    +0.000 N 
ATOM      6  C   UNL     1       5.360   4.699  18.692  0.00  0.00    +0.000 A 
ATOM      7  O   UNL     1       5.770   3.760  19.371  0.00  0.00    +0.000 OA
ATOM      8  N   UNL     1       6.245   5.559  18.080  0.00  0.00    +0.000 NA
ATOM      9  H   UNL     1       6.481   7.878  15.978  0.00  0.00    +0.000 HD
ATOM     10  H   UNL     1       7.661   7.002  16.831  0.00  0.00    +0.000 HD
ENDROOT
BRANCH   5  11
ATOM     11  C   UNL     1       3.082   4.037  19.247  0.00  0.00    +0.000 C 
ATOM     12  C   UNL     1       1.788   3.720  18.501  0.00  0.00    +0.000 C 
ATOM     13  C   UNL     1       0.799   3.531  19.624  0.00  0.00    +0.000 C 
ATOM     14  C   UNL     1       1.267   4.559  20.624  0.00  0.00    +0.000 C 
ATOM     15  O   UNL     1       2.693   4.607  20.518  0.00  0.00    +0.000 OA
ENDBRANCH   5  11
TORSDOF 1
ENDMDL
MODEL 9
REMARK VINA RESULT:      -5.7      2.071      2.325
REMARK  Name = 
REMARK  1 active torsions:
REMARK  status: ('A' for Active; 'I' for Inactive)
REMARK    1  A    between atoms: N_5  and  C_6
REMARK                            x       y       z     vdW  Elec       q    Type
REMARK                         _______ _______ _______ _____ _____    ______ ____
ROOT
ATOM      1  N   UNL     1       7.564   7.768  16.963  0.00  0.00    +0.000 N 
ATOM      2  C   UNL     1       6.647   6.818  17.315  0.00  0.00    +0.000 A 
ATOM      3  C   UNL     1       5.464   6.598  16.463  0.00  0.00    +0.000 A 
ATOM      4  C   UNL     1       4.613   5.664  16.880  0.00  0.00    +0.000 A 
ATOM      5  N   UNL     1       4.838   4.958  18.041  0.00  0.00    +0.000 N 
ATOM      6  C   UNL     1       5.976   5.194  18.821  0.00  0.00    +0.000 A 
ATOM      7  O   UNL     1       6.169   4.569  19.861  0.00  0.00    +0.000 OA
ATOM      8  N   UNL     1       6.878   6.144  18.397  0.00  0.00    +0.000 NA
ATOM      9  H   UNL     1       7.677   7.979  15.980  0.00  0.00    +0.000 HD
ATOM     10  H   UNL     1       8.439   7.676  17.469  0.00  0.00    +0.000 HD
ENDROOT
BRANCH   5  11
ATOM     11  C   UNL     1       3.868   4.000  18.558  0.00  0.00    +0.000 C 
ATOM     12  C   UNL     1       3.661   2.776  17.668  0.00  0.00    +0.000 C 
ATOM     13  C   UNL     1       2.220   2.419  17.931  0.00  0.00    +0.000 C 
ATOM     14  C   UNL     1       1.589   3.780  18.091  0.00  0.00    +0.000 C 
ATOM     15  O   UNL     1       2.567   4.608  18.728  0.00  0.00    +0.000 OA
ENDBRANCH   5  11
TORSDOF 1
ENDMDL
