MODEL 1
REMARK VINA RESULT:      -7.3      0.000      0.000
REMARK  Name = 
REMARK  8 active torsions:
REMARK  status: ('A' for Active; 'I' for Inactive)
REMARK    1  A    between atoms: C_1  and  O_2
REMARK    2  A    between atoms: O_2  and  C_3
REMARK    3  A    between atoms: C_3  and  C_11
REMARK    4  A    between atoms: C_4  and  C_5
REMARK    5  A    between atoms: N_13  and  C_14
REMARK    6  A    between atoms: C_17  and  C_18
REMARK    7  A    between atoms: C_18  and  C_19
REMARK    8  A    between atoms: C_18  and  C_20
REMARK                            x       y       z     vdW  Elec       q    Type
REMARK                         _______ _______ _______ _____ _____    ______ ____
ROOT
ATOM      1  C   UNL     1       4.763   5.787  17.936  0.00  0.00    +0.000 C 
ATOM      2  O   UNL     1       5.182   5.677  19.089  0.00  0.00    +0.000 OA
ATOM      3  N   UNL     1       3.666   6.538  17.550  0.00  0.00    +0.000 N 
ATOM      4  H   UNL     1       3.381   6.490  16.580  0.00  0.00    +0.000 HD
ENDROOT
BRANCH   3   5
ATOM      5  C   UNL     1       2.836   7.303  18.412  0.00  0.00    +0.000 A 
ATOM      6  C   UNL     1       2.469   6.888  19.694  0.00  0.00    +0.000 A 
ATOM      7  C   UNL     1       1.630   7.667  20.496  0.00  0.00    +0.000 A 
ATOM      8  C   UNL     1       1.140   8.895  20.049  0.00  0.00    +0.000 A 
ATOM      9  C   UNL     1       1.507   9.319  18.764  0.00  0.00    +0.000 A 
ATOM     10  C   UNL     1       2.352   8.536  17.959  0.00  0.00    +0.000 A 
BRANCH   8  11
ATOM     11  C   UNL     1       0.271   9.724  20.978  0.00  0.00    +0.000 C 
ATOM     12  C   UNL     1      -0.720  10.584  20.190  0.00  0.00    +0.000 C 
ATOM     13  C   UNL     1      -0.450   8.873  22.026  0.00  0.00    +0.000 C 
ENDBRANCH   8  11
ENDBRANCH   3   5
BRANCH   1  14
ATOM     14  C   UNL     1       5.455   4.996  16.843  0.00  0.00    +0.000 C 
ATOM     15  C   UNL     1       5.213   5.307  15.554  0.00  0.00    +0.000 C 
BRANCH  15  16
ATOM     16  C   UNL     1       5.929   4.772  14.376  0.00  0.00    +0.000 A 
ATOM     17  C   UNL     1       5.305   3.806  13.574  0.00  0.00    +0.000 A 
ATOM     18  C   UNL     1       5.908   3.351  12.396  0.00  0.00    +0.000 A 
ATOM     19  C   UNL     1       7.142   3.860  11.997  0.00  0.00    +0.000 A 
ATOM     20  C   UNL     1       7.775   4.820  12.780  0.00  0.00    +0.000 A 
ATOM     21  C   UNL     1       7.169   5.279  13.954  0.00  0.00    +0.000 A 
ENDBRANCH  15  16
BRANCH  14  23
ATOM     22  C   UNL     1       7.680   4.593  17.643  0.00  0.00    +0.000 C 
ATOM     23  O   UNL     1       6.448   4.074  17.155  0.00  0.00    +0.000 OA
ENDBRANCH  14  23
ENDBRANCH   1  14
TORSDOF 5
ENDMDL
MODEL 2
REMARK VINA RESULT:      -7.1      0.454      1.330
REMARK  Name = 
REMARK  8 active torsions:
REMARK  status: ('A' for Active; 'I' for Inactive)
REMARK    1  A    between atoms: C_1  and  O_2
REMARK    2  A    between atoms: O_2  and  C_3
REMARK    3  A    between atoms: C_3  and  C_11
REMARK    4  A    between atoms: C_4  and  C_5
REMARK    5  A    between atoms: N_13  and  C_14
REMARK    6  A    between atoms: C_17  and  C_18
REMARK    7  A    between atoms: C_18  and  C_19
REMARK    8  A    between atoms: C_18  and  C_20
REMARK                            x       y       z     vdW  Elec       q    Type
REMARK                         _______ _______ _______ _____ _____    ______ ____
ROOT
ATOM      1  C   UNL     1       4.713   5.615  18.075  0.00  0.00    +0.000 C 
ATOM      2  O   UNL     1       5.046   5.388  19.238  0.00  0.00    +0.000 OA
ATOM      3  N   UNL     1       3.661   6.425  17.685  0.00  0.00    +0.000 N 
ATOM      4  H   UNL     1       3.446   6.474  16.698  0.00  0.00    +0.000 HD
ENDROOT
BRANCH   3   5
ATOM      5  C   UNL     1       2.784   7.127  18.555  0.00  0.00    +0.000 A 
ATOM      6  C   UNL     1       2.300   8.410  18.289  0.00  0.00    +0.000 A 
ATOM      7  C   UNL     1       1.458   9.069  19.189  0.00  0.00    +0.000 A 
ATOM      8  C   UNL     1       1.060   8.462  20.381  0.00  0.00    +0.000 A 
ATOM      9  C   UNL     1       1.540   7.173  20.654  0.00  0.00    +0.000 A 
ATOM     10  C   UNL     1       2.386   6.511  19.748  0.00  0.00    +0.000 A 
BRANCH   8  11
ATOM     11  C   UNL     1       0.106   9.203  21.302  0.00  0.00    +0.000 C 
ATOM     12  C   UNL     1       0.724   9.414  22.686  0.00  0.00    +0.000 C 
ATOM     13  C   UNL     1      -0.380  10.526  20.706  0.00  0.00    +0.000 C 
ENDBRANCH   8  11
ENDBRANCH   3   5
BRANCH   1  14
ATOM     14  C   UNL     1       5.468   4.912  16.963  0.00  0.00    +0.000 C 
ATOM     15  C   UNL     1       5.154   5.186  15.682  0.00  0.00    +0.000 C 
BRANCH  15  16
ATOM     16  C   UNL     1       5.898   4.739  14.484  0.00  0.00    +0.000 A 
ATOM     17  C   UNL     1       5.323   3.781  13.637  0.00  0.00    +0.000 A 
ATOM     18  C   UNL     1       5.952   3.409  12.442  0.00  0.00    +0.000 A 
ATOM     19  C   UNL     1       7.161   3.994  12.074  0.00  0.00    +0.000 A 
ATOM     20  C   UNL     1       7.746   4.947  12.902  0.00  0.00    +0.000 A 
ATOM     21  C   UNL     1       7.114   5.322  14.092  0.00  0.00    +0.000 A 
ENDBRANCH  15  16
BRANCH  14  23
ATOM     22  C   UNL     1       7.682   4.763  17.873  0.00  0.00    +0.000 C 
ATOM     23  O   UNL     1       6.576   4.122  17.249  0.00  0.00    +0.000 OA
ENDBRANCH  14  23
ENDBRANCH   1  14
TORSDOF 5
ENDMDL
MODEL 3
REMARK VINA RESULT:      -7.1      0.846      1.035
REMARK  Name = 
REMARK  8 active torsions:
REMARK  status: ('A' for Active; 'I' for Inactive)
REMARK    1  A    between atoms: C_1  and  O_2
REMARK    2  A    between atoms: O_2  and  C_3
REMARK    3  A    between atoms: C_3  and  C_11
REMARK    4  A    between atoms: C_4  and  C_5
REMARK    5  A    between atoms: N_13  and  C_14
REMARK    6  A    between atoms: C_17  and  C_18
REMARK    7  A    between atoms: C_18  and  C_19
REMARK    8  A    between atoms: C_18  and  C_20
REMARK                            x       y       z     vdW  Elec       q    Type
REMARK                         _______ _______ _______ _____ _____    ______ ____
ROOT
ATOM      1  C   UNL     1       4.250   5.814  17.913  0.00  0.00    +0.000 C 
ATOM      2  O   UNL     1       4.851   5.761  18.986  0.00  0.00    +0.000 OA
ATOM      3  N   UNL     1       3.107   6.555  17.669  0.00  0.00    +0.000 N 
ATOM      4  H   UNL     1       2.668   6.458  16.763  0.00  0.00    +0.000 HD
ENDROOT
BRANCH   3   5
ATOM      5  C   UNL     1       2.429   7.373  18.613  0.00  0.00    +0.000 A 
ATOM      6  C   UNL     1       2.157   6.973  19.923  0.00  0.00    +0.000 A 
ATOM      7  C   UNL     1       1.466   7.806  20.807  0.00  0.00    +0.000 A 
ATOM      8  C   UNL     1       1.034   9.075  20.414  0.00  0.00    +0.000 A 
ATOM      9  C   UNL     1       1.305   9.483  19.101  0.00  0.00    +0.000 A 
ATOM     10  C   UNL     1       2.001   8.645  18.213  0.00  0.00    +0.000 A 
BRANCH   8  11
ATOM     11  C   UNL     1       0.328   9.959  21.428  0.00  0.00    +0.000 C 
ATOM     12  C   UNL     1      -0.663  10.903  20.745  0.00  0.00    +0.000 C 
ATOM     13  C   UNL     1      -0.352   9.155  22.539  0.00  0.00    +0.000 C 
ENDBRANCH   8  11
ENDBRANCH   3   5
BRANCH   1  14
ATOM     14  C   UNL     1       4.755   4.960  16.766  0.00  0.00    +0.000 C 
ATOM     15  C   UNL     1       5.178   5.561  15.637  0.00  0.00    +0.000 C 
BRANCH  15  16
ATOM     16  C   UNL     1       5.865   4.905  14.502  0.00  0.00    +0.000 A 
ATOM     17  C   UNL     1       5.159   3.987  13.711  0.00  0.00    +0.000 A 
ATOM     18  C   UNL     1       5.742   3.425  12.570  0.00  0.00    +0.000 A 
ATOM     19  C   UNL     1       7.038   3.776  12.198  0.00  0.00    +0.000 A 
ATOM     20  C   UNL     1       7.753   4.686  12.970  0.00  0.00    +0.000 A 
ATOM     21  C   UNL     1       7.166   5.253  14.107  0.00  0.00    +0.000 A 
ENDBRANCH  15  16
BRANCH  14  23
ATOM     22  C   UNL     1       3.892   2.876  17.584  0.00  0.00    +0.000 C 
ATOM     23  O   UNL     1       4.934   3.590  16.928  0.00  0.00    +0.000 OA
ENDBRANCH  14  23
ENDBRANCH   1  14
TORSDOF 5
ENDMDL
MODEL 4
REMARK VINA RESULT:      -7.0      2.658      9.395
REMARK  Name = 
REMARK  8 active torsions:
REMARK  status: ('A' for Active; 'I' for Inactive)
REMARK    1  A    between atoms: C_1  and  O_2
REMARK    2  A    between atoms: O_2  and  C_3
REMARK    3  A    between atoms: C_3  and  C_11
REMARK    4  A    between atoms: C_4  and  C_5
REMARK    5  A    between atoms: N_13  and  C_14
REMARK    6  A    between atoms: C_17  and  C_18
REMARK    7  A    between atoms: C_18  and  C_19
REMARK    8  A    between atoms: C_18  and  C_20
REMARK                            x       y       z     vdW  Elec       q    Type
REMARK                         _______ _______ _______ _____ _____    ______ ____
ROOT
ATOM      1  C   UNL     1       1.747   9.274  18.249  0.00  0.00    +0.000 C 
ATOM      2  O   UNL     1       2.206   9.794  17.232  0.00  0.00    +0.000 OA
ATOM      3  N   UNL     1       2.061   8.009  18.715  0.00  0.00    +0.000 N 
ATOM      4  H   UNL     1       1.563   7.669  19.526  0.00  0.00    +0.000 HD
ENDROOT
BRANCH   3   5
ATOM      5  C   UNL     1       2.958   7.094  18.099  0.00  0.00    +0.000 A 
ATOM      6  C   UNL     1       4.156   7.481  17.495  0.00  0.00    +0.000 A 
ATOM      7  C   UNL     1       4.994   6.545  16.881  0.00  0.00    +0.000 A 
ATOM      8  C   UNL     1       4.668   5.188  16.862  0.00  0.00    +0.000 A 
ATOM      9  C   UNL     1       3.468   4.792  17.469  0.00  0.00    +0.000 A 
ATOM     10  C   UNL     1       2.627   5.734  18.088  0.00  0.00    +0.000 A 
BRANCH   8  11
ATOM     11  C   UNL     1       5.636   4.207  16.223  0.00  0.00    +0.000 C 
ATOM     12  C   UNL     1       5.513   4.222  14.698  0.00  0.00    +0.000 C 
ATOM     13  C   UNL     1       7.083   4.436  16.664  0.00  0.00    +0.000 C 
ENDBRANCH   8  11
ENDBRANCH   3   5
BRANCH   1  14
ATOM     14  C   UNL     1       0.708  10.042  19.042  0.00  0.00    +0.000 C 
ATOM     15  C   UNL     1       0.848  10.150  20.378  0.00  0.00    +0.000 C 
BRANCH  15  16
ATOM     16  C   UNL     1       0.041  11.005  21.276  0.00  0.00    +0.000 A 
ATOM     17  C   UNL     1      -0.776  10.404  22.244  0.00  0.00    +0.000 A 
ATOM     18  C   UNL     1      -1.474  11.179  23.177  0.00  0.00    +0.000 A 
ATOM     19  C   UNL     1      -1.362  12.568  23.160  0.00  0.00    +0.000 A 
ATOM     20  C   UNL     1      -0.555  13.181  22.207  0.00  0.00    +0.000 A 
ATOM     21  C   UNL     1       0.147  12.405  21.279  0.00  0.00    +0.000 A 
ENDBRANCH  15  16
BRANCH  14  23
ATOM     22  C   UNL     1      -1.344  10.018  17.800  0.00  0.00    +0.000 C 
ATOM     23  O   UNL     1      -0.287  10.765  18.392  0.00  0.00    +0.000 OA
ENDBRANCH  14  23
ENDBRANCH   1  14
TORSDOF 5
ENDMDL
MODEL 5
REMARK VINA RESULT:      -7.0      5.253      7.163
REMARK  Name = 
REMARK  8 active torsions:
REMARK  status: ('A' for Active; 'I' for Inactive)
REMARK    1  A    between atoms: C_1  and  O_2
REMARK    2  A    between atoms: O_2  and  C_3
REMARK    3  A    between atoms: C_3  and  C_11
REMARK    4  A    between atoms: C_4  and  C_5
REMARK    5  A    between atoms: N_13  and  C_14
REMARK    6  A    between atoms: C_17  and  C_18
REMARK    7  A    between atoms: C_18  and  C_19
REMARK    8  A    between atoms: C_18  and  C_20
REMARK                            x       y       z     vdW  Elec       q    Type
REMARK                         _______ _______ _______ _____ _____    ______ ____
ROOT
ATOM      1  C   UNL     1       7.504   7.311  17.998  0.00  0.00    +0.000 C 
ATOM      2  O   UNL     1       8.393   6.832  18.702  0.00  0.00    +0.000 OA
ATOM      3  N   UNL     1       7.371   8.650  17.672  0.00  0.00    +0.000 N 
ATOM      4  H   UNL     1       6.556   8.927  17.142  0.00  0.00    +0.000 HD
ENDROOT
BRANCH   3   5
ATOM      5  C   UNL     1       8.231   9.698  18.097  0.00  0.00    +0.000 A 
ATOM      6  C   UNL     1       8.332  10.925  17.438  0.00  0.00    +0.000 A 
ATOM      7  C   UNL     1       9.211  11.917  17.882  0.00  0.00    +0.000 A 
ATOM      8  C   UNL     1      10.010  11.721  19.010  0.00  0.00    +0.000 A 
ATOM      9  C   UNL     1       9.912  10.493  19.678  0.00  0.00    +0.000 A 
ATOM     10  C   UNL     1       9.027   9.496  19.231  0.00  0.00    +0.000 A 
BRANCH   8  11
ATOM     11  C   UNL     1      10.913  12.849  19.478  0.00  0.00    +0.000 C 
ATOM     12  C   UNL     1      12.332  12.345  19.750  0.00  0.00    +0.000 C 
ATOM     13  C   UNL     1      10.924  14.035  18.511  0.00  0.00    +0.000 C 
ENDBRANCH   8  11
ENDBRANCH   3   5
BRANCH   1  14
ATOM     14  C   UNL     1       6.421   6.384  17.481  0.00  0.00    +0.000 C 
ATOM     15  C   UNL     1       5.542   5.852  18.353  0.00  0.00    +0.000 C 
BRANCH  15  16
ATOM     16  C   UNL     1       4.325   5.083  18.009  0.00  0.00    +0.000 A 
ATOM     17  C   UNL     1       4.433   3.711  17.744  0.00  0.00    +0.000 A 
ATOM     18  C   UNL     1       3.292   2.932  17.515  0.00  0.00    +0.000 A 
ATOM     19  C   UNL     1       2.027   3.512  17.554  0.00  0.00    +0.000 A 
ATOM     20  C   UNL     1       1.901   4.872  17.817  0.00  0.00    +0.000 A 
ATOM     21  C   UNL     1       3.041   5.649  18.051  0.00  0.00    +0.000 A 
ENDBRANCH  15  16
BRANCH  14  23
ATOM     22  C   UNL     1       6.984   5.182  15.483  0.00  0.00    +0.000 C 
ATOM     23  O   UNL     1       6.229   6.210  16.115  0.00  0.00    +0.000 OA
ENDBRANCH  14  23
ENDBRANCH   1  14
TORSDOF 5
ENDMDL
MODEL 6
REMARK VINA RESULT:      -6.9      5.320      7.083
REMARK  Name = 
REMARK  8 active torsions:
REMARK  status: ('A' for Active; 'I' for Inactive)
REMARK    1  A    between atoms: C_1  and  O_2
REMARK    2  A    between atoms: O_2  and  C_3
REMARK    3  A    between atoms: C_3  and  C_11
REMARK    4  A    between atoms: C_4  and  C_5
REMARK    5  A    between atoms: N_13  and  C_14
REMARK    6  A    between atoms: C_17  and  C_18
REMARK    7  A    between atoms: C_18  and  C_19
REMARK    8  A    between atoms: C_18  and  C_20
REMARK                            x       y       z     vdW  Elec       q    Type
REMARK                         _______ _______ _______ _____ _____    ______ ____
ROOT
ATOM      1  C   UNL     1       7.537   7.378  18.024  0.00  0.00    +0.000 C 
ATOM      2  O   UNL     1       8.396   6.894  18.760  0.00  0.00    +0.000 OA
ATOM      3  N   UNL     1       7.436   8.715  17.679  0.00  0.00    +0.000 N 
ATOM      4  H   UNL     1       6.641   8.998  17.121  0.00  0.00    +0.000 HD
ENDROOT
BRANCH   3   5
ATOM      5  C   UNL     1       8.299   9.755  18.118  0.00  0.00    +0.000 A 
ATOM      6  C   UNL     1       9.167   9.627  19.205  0.00  0.00    +0.000 A 
ATOM      7  C   UNL     1       9.980  10.688  19.613  0.00  0.00    +0.000 A 
ATOM      8  C   UNL     1       9.963  11.910  18.939  0.00  0.00    +0.000 A 
ATOM      9  C   UNL     1       9.097  12.045  17.845  0.00  0.00    +0.000 A 
ATOM     10  C   UNL     1       8.280  10.977  17.435  0.00  0.00    +0.000 A 
BRANCH   8  11
ATOM     11  C   UNL     1      10.901  13.015  19.393  0.00  0.00    +0.000 C 
ATOM     12  C   UNL     1      12.330  12.762  18.908  0.00  0.00    +0.000 C 
ATOM     13  C   UNL     1      10.416  14.407  18.981  0.00  0.00    +0.000 C 
ENDBRANCH   8  11
ENDBRANCH   3   5
BRANCH   1  14
ATOM     14  C   UNL     1       6.455   6.462  17.485  0.00  0.00    +0.000 C 
ATOM     15  C   UNL     1       5.599   5.879  18.347  0.00  0.00    +0.000 C 
BRANCH  15  16
ATOM     16  C   UNL     1       4.385   5.112  17.990  0.00  0.00    +0.000 A 
ATOM     17  C   UNL     1       4.496   3.742  17.714  0.00  0.00    +0.000 A 
ATOM     18  C   UNL     1       3.358   2.963  17.473  0.00  0.00    +0.000 A 
ATOM     19  C   UNL     1       2.091   3.542  17.510  0.00  0.00    +0.000 A 
ATOM     20  C   UNL     1       1.962   4.899  17.784  0.00  0.00    +0.000 A 
ATOM     21  C   UNL     1       3.100   5.675  18.031  0.00  0.00    +0.000 A 
ENDBRANCH  15  16
BRANCH  14  23
ATOM     22  C   UNL     1       6.913   5.290  15.443  0.00  0.00    +0.000 C 
ATOM     23  O   UNL     1       6.241   6.348  16.116  0.00  0.00    +0.000 OA
ENDBRANCH  14  23
ENDBRANCH   1  14
TORSDOF 5
ENDMDL
MODEL 7
REMARK VINA RESULT:      -6.9      2.657      9.503
REMARK  Name = 
REMARK  8 active torsions:
REMARK  status: ('A' for Active; 'I' for Inactive)
REMARK    1  A    between atoms: C_1  and  O_2
REMARK    2  A    between atoms: O_2  and  C_3
REMARK    3  A    between atoms: C_3  and  C_11
REMARK    4  A    between atoms: C_4  and  C_5
REMARK    5  A    between atoms: N_13  and  C_14
REMARK    6  A    between atoms: C_17  and  C_18
REMARK    7  A    between atoms: C_18  and  C_19
REMARK    8  A    between atoms: C_18  and  C_20
REMARK                            x       y       z     vdW  Elec       q    Type
REMARK                         _______ _______ _______ _____ _____    ______ ____
ROOT
ATOM      1  C   UNL     1       1.592   9.079  18.525  0.00  0.00    +0.000 C 
ATOM      2  O   UNL     1       1.918   9.648  17.483  0.00  0.00    +0.000 OA
ATOM      3  N   UNL     1       2.033   7.831  18.930  0.00  0.00    +0.000 N 
ATOM      4  H   UNL     1       1.635   7.442  19.774  0.00  0.00    +0.000 HD
ENDROOT
BRANCH   3   5
ATOM      5  C   UNL     1       2.930   6.993  18.214  0.00  0.00    +0.000 A 
ATOM      6  C   UNL     1       4.032   7.475  17.504  0.00  0.00    +0.000 A 
ATOM      7  C   UNL     1       4.872   6.612  16.795  0.00  0.00    +0.000 A 
ATOM      8  C   UNL     1       4.648   5.234  16.784  0.00  0.00    +0.000 A 
ATOM      9  C   UNL     1       3.545   4.743  17.497  0.00  0.00    +0.000 A 
ATOM     10  C   UNL     1       2.701   5.612  18.211  0.00  0.00    +0.000 A 
BRANCH   8  11
ATOM     11  C   UNL     1       5.619   4.335  16.038  0.00  0.00    +0.000 C 
ATOM     12  C   UNL     1       5.556   4.585  14.529  0.00  0.00    +0.000 C 
ATOM     13  C   UNL     1       7.053   4.457  16.558  0.00  0.00    +0.000 C 
ENDBRANCH   8  11
ENDBRANCH   3   5
BRANCH   1  14
ATOM     14  C   UNL     1       0.578   9.757  19.426  0.00  0.00    +0.000 C 
ATOM     15  C   UNL     1       0.994  10.309  20.583  0.00  0.00    +0.000 C 
BRANCH  15  16
ATOM     16  C   UNL     1       0.188  11.161  21.485  0.00  0.00    +0.000 A 
ATOM     17  C   UNL     1       0.230  12.554  21.333  0.00  0.00    +0.000 A 
ATOM     18  C   UNL     1      -0.595  13.386  22.099  0.00  0.00    +0.000 A 
ATOM     19  C   UNL     1      -1.480  12.837  23.025  0.00  0.00    +0.000 A 
ATOM     20  C   UNL     1      -1.536  11.457  23.188  0.00  0.00    +0.000 A 
ATOM     21  C   UNL     1      -0.715  10.626  22.418  0.00  0.00    +0.000 A 
ENDBRANCH  15  16
BRANCH  14  23
ATOM     22  C   UNL     1      -0.979  11.103  18.193  0.00  0.00    +0.000 C 
ATOM     23  O   UNL     1      -0.730   9.956  18.997  0.00  0.00    +0.000 OA
ENDBRANCH  14  23
ENDBRANCH   1  14
TORSDOF 5
ENDMDL
MODEL 8
REMARK VINA RESULT:      -6.9      2.014      3.484
REMARK  Name = 
REMARK  8 active torsions:
REMARK  status: ('A' for Active; 'I' for Inactive)
REMARK    1  A    between atoms: C_1  and  O_2
REMARK    2  A    between atoms: O_2  and  C_3
REMARK    3  A    between atoms: C_3  and  C_11
REMARK    4  A    between atoms: C_4  and  C_5
REMARK    5  A    between atoms: N_13  and  C_14
REMARK    6  A    between atoms: C_17  and  C_18
REMARK    7  A    between atoms: C_18  and  C_19
REMARK    8  A    between atoms: C_18  and  C_20
REMARK                            x       y       z     vdW  Elec       q    Type
REMARK                         _______ _______ _______ _____ _____    ______ ____
ROOT
ATOM      1  C   UNL     1       2.238   6.554  19.843  0.00  0.00    +0.000 C 
ATOM      2  O   UNL     1       1.591   6.005  20.735  0.00  0.00    +0.000 OA
ATOM      3  N   UNL     1       2.169   7.897  19.512  0.00  0.00    +0.000 N 
ATOM      4  H   UNL     1       2.699   8.211  18.711  0.00  0.00    +0.000 HD
ENDROOT
BRANCH   3   5
ATOM      5  C   UNL     1       1.340   8.866  20.138  0.00  0.00    +0.000 A 
ATOM      6  C   UNL     1       1.141   8.932  21.518  0.00  0.00    +0.000 A 
ATOM      7  C   UNL     1       0.297   9.891  22.085  0.00  0.00    +0.000 A 
ATOM      8  C   UNL     1      -0.368  10.827  21.290  0.00  0.00    +0.000 A 
ATOM      9  C   UNL     1      -0.171  10.768  19.904  0.00  0.00    +0.000 A 
ATOM     10  C   UNL     1       0.679   9.804  19.335  0.00  0.00    +0.000 A 
BRANCH   8  11
ATOM     11  C   UNL     1      -1.237  11.878  21.960  0.00  0.00    +0.000 C 
ATOM     12  C   UNL     1      -2.313  12.397  21.004  0.00  0.00    +0.000 C 
ATOM     13  C   UNL     1      -1.854  11.384  23.270  0.00  0.00    +0.000 C 
ENDBRANCH   8  11
ENDBRANCH   3   5
BRANCH   1  14
ATOM     14  C   UNL     1       3.148   5.697  18.985  0.00  0.00    +0.000 C 
ATOM     15  C   UNL     1       3.992   6.295  18.122  0.00  0.00    +0.000 C 
BRANCH  15  16
ATOM     16  C   UNL     1       5.066   5.635  17.348  0.00  0.00    +0.000 A 
ATOM     17  C   UNL     1       6.320   5.440  17.945  0.00  0.00    +0.000 A 
ATOM     18  C   UNL     1       7.328   4.729  17.282  0.00  0.00    +0.000 A 
ATOM     19  C   UNL     1       7.095   4.197  16.017  0.00  0.00    +0.000 A 
ATOM     20  C   UNL     1       5.856   4.379  15.410  0.00  0.00    +0.000 A 
ATOM     21  C   UNL     1       4.848   5.084  16.076  0.00  0.00    +0.000 A 
ENDBRANCH  15  16
BRANCH  14  23
ATOM     22  C   UNL     1       2.337   3.502  18.458  0.00  0.00    +0.000 C 
ATOM     23  O   UNL     1       3.234   4.325  19.195  0.00  0.00    +0.000 OA
ENDBRANCH  14  23
ENDBRANCH   1  14
TORSDOF 5
ENDMDL
MODEL 9
REMARK VINA RESULT:      -6.9      2.188      3.826
REMARK  Name = 
REMARK  8 active torsions:
REMARK  status: ('A' for Active; 'I' for Inactive)
REMARK    1  A    between atoms: C_1  and  O_2
REMARK    2  A    between atoms: O_2  and  C_3
REMARK    3  A    between atoms: C_3  and  C_11
REMARK    4  A    between atoms: C_4  and  C_5
REMARK    5  A    between atoms: N_13  and  C_14
REMARK    6  A    between atoms: C_17  and  C_18
REMARK    7  A    between atoms: C_18  and  C_19
REMARK    8  A    between atoms: C_18  and  C_20
REMARK                            x       y       z     vdW  Elec       q    Type
REMARK                         _______ _______ _______ _____ _____    ______ ____
ROOT
ATOM      1  C   UNL     1       2.341   7.766  18.710  0.00  0.00    +0.000 C 
ATOM      2  O   UNL     1       2.055   7.659  19.903  0.00  0.00    +0.000 OA
ATOM      3  N   UNL     1       1.896   8.768  17.865  0.00  0.00    +0.000 N 
ATOM      4  H   UNL     1       2.146   8.705  16.887  0.00  0.00    +0.000 HD
ENDROOT
BRANCH   3   5
ATOM      5  C   UNL     1       1.033   9.838  18.225  0.00  0.00    +0.000 A 
ATOM      6  C   UNL     1      -0.358   9.770  18.131  0.00  0.00    +0.000 A 
ATOM      7  C   UNL     1      -1.164  10.859  18.476  0.00  0.00    +0.000 A 
ATOM      8  C   UNL     1      -0.605  12.051  18.941  0.00  0.00    +0.000 A 
ATOM      9  C   UNL     1       0.792  12.126  19.041  0.00  0.00    +0.000 A 
ATOM     10  C   UNL     1       1.600  11.029  18.695  0.00  0.00    +0.000 A 
BRANCH   8  11
ATOM     11  C   UNL     1      -1.527  13.187  19.347  0.00  0.00    +0.000 C 
ATOM     12  C   UNL     1      -2.735  12.667  20.128  0.00  0.00    +0.000 C 
ATOM     13  C   UNL     1      -0.799  14.287  20.125  0.00  0.00    +0.000 C 
ENDBRANCH   8  11
ENDBRANCH   3   5
BRANCH   1  14
ATOM     14  C   UNL     1       3.202   6.689  18.079  0.00  0.00    +0.000 C 
ATOM     15  C   UNL     1       4.247   7.052  17.309  0.00  0.00    +0.000 C 
BRANCH  15  16
ATOM     16  C   UNL     1       5.290   6.152  16.770  0.00  0.00    +0.000 A 
ATOM     17  C   UNL     1       6.311   5.700  17.619  0.00  0.00    +0.000 A 
ATOM     18  C   UNL     1       7.256   4.768  17.173  0.00  0.00    +0.000 A 
ATOM     19  C   UNL     1       7.192   4.270  15.874  0.00  0.00    +0.000 A 
ATOM     20  C   UNL     1       6.186   4.707  15.018  0.00  0.00    +0.000 A 
ATOM     21  C   UNL     1       5.238   5.633  15.467  0.00  0.00    +0.000 A 
ENDBRANCH  15  16
BRANCH  14  23
ATOM     22  C   UNL     1       1.929   4.674  17.813  0.00  0.00    +0.000 C 
ATOM     23  O   UNL     1       3.025   5.352  18.417  0.00  0.00    +0.000 OA
ENDBRANCH  14  23
ENDBRANCH   1  14
TORSDOF 5
ENDMDL
