MODEL 1
REMARK VINA RESULT:      -7.8      0.000      0.000
REMARK  Name = 
REMARK  3 active torsions:
REMARK  status: ('A' for Active; 'I' for Inactive)
REMARK    1  A    between atoms: C_2  and  C_3
REMARK    2  A    between atoms: C_3  and  C_4
REMARK    3  A    between atoms: C_4  and  O_5
REMARK                            x       y       z     vdW  Elec       q    Type
REMARK                         _______ _______ _______ _____ _____    ______ ____
ROOT
ATOM      1  C   UNL     1       5.954   5.671  16.778  0.00  0.00    +0.000 C 
ATOM      2  C   UNL     1       6.276   4.280  17.447  0.00  0.00    +0.000 C 
ATOM      3  O   UNL     1       6.033   4.230  18.838  0.00  0.00    +0.000 OA
ATOM      4  C   UNL     1       4.667   4.209  18.991  0.00  0.00    +0.000 C 
ATOM      5  C   UNL     1       4.062   3.240  19.689  0.00  0.00    +0.000 C 
ATOM      6 CL   UNL     1       4.888   1.848  20.249  0.00  0.00    +0.000 Cl
ATOM      7  C   UNL     1       2.607   3.359  19.957  0.00  0.00    +0.000 C 
ATOM      8  O   UNL     1       1.880   2.404  20.183  0.00  0.00    +0.000 OA
ATOM      9  C   UNL     1       2.063   4.782  19.912  0.00  0.00    +0.000 C 
ATOM     10  O   UNL     1       1.104   5.104  20.590  0.00  0.00    +0.000 OA
ATOM     11  C   UNL     1       2.750   5.733  19.001  0.00  0.00    +0.000 A 
ATOM     12  C   UNL     1       2.246   7.011  18.805  0.00  0.00    +0.000 A 
ATOM     13  C   UNL     1       2.927   7.872  17.943  0.00  0.00    +0.000 A 
ATOM     14  C   UNL     1       4.064   7.434  17.211  0.00  0.00    +0.000 A 
ATOM     15  C   UNL     1       4.603   6.143  17.387  0.00  0.00    +0.000 A 
ATOM     16  C   UNL     1       3.962   5.354  18.394  0.00  0.00    +0.000 A 
ENDROOT
BRANCH   1  17
ATOM     17  O   UNL     1       6.933   6.631  17.197  0.00  0.00    +0.000 OA
ATOM     18  H   UNL     1       6.490   7.260  17.792  0.00  0.00    +0.000 HD
ENDBRANCH   1  17
BRANCH   1  19
ATOM     19  C   UNL     1       6.277   5.233  15.283  0.00  0.00    +0.000 C 
BRANCH  19  21
ATOM     20  C   UNL     1       6.173   3.722  13.186  0.00  0.00    +0.000 C 
ATOM     21  C   UNL     1       5.825   4.094  14.419  0.00  0.00    +0.000 C 
ENDBRANCH  19  21
ENDBRANCH   1  19
TORSDOF 3
ENDMDL
MODEL 2
REMARK VINA RESULT:      -7.3      1.054      1.060
REMARK  Name = 
REMARK  3 active torsions:
REMARK  status: ('A' for Active; 'I' for Inactive)
REMARK    1  A    between atoms: C_2  and  C_3
REMARK    2  A    between atoms: C_3  and  C_4
REMARK    3  A    between atoms: C_4  and  O_5
REMARK                            x       y       z     vdW  Elec       q    Type
REMARK                         _______ _______ _______ _____ _____    ______ ____
ROOT
ATOM      1  C   UNL     1       5.574   5.263  16.138  0.00  0.00    +0.000 C 
ATOM      2  C   UNL     1       5.624   3.716  16.437  0.00  0.00    +0.000 C 
ATOM      3  O   UNL     1       5.419   3.376  17.793  0.00  0.00    +0.000 OA
ATOM      4  C   UNL     1       4.084   3.581  18.045  0.00  0.00    +0.000 C 
ATOM      5  C   UNL     1       3.314   2.607  18.545  0.00  0.00    +0.000 C 
ATOM      6 CL   UNL     1       3.853   0.989  18.698  0.00  0.00    +0.000 Cl
ATOM      7  C   UNL     1       1.923   2.934  18.948  0.00  0.00    +0.000 C 
ATOM      8  O   UNL     1       1.023   2.112  19.003  0.00  0.00    +0.000 OA
ATOM      9  C   UNL     1       1.683   4.403  19.279  0.00  0.00    +0.000 C 
ATOM     10  O   UNL     1       0.833   4.729  20.088  0.00  0.00    +0.000 OA
ATOM     11  C   UNL     1       2.523   5.397  18.562  0.00  0.00    +0.000 A 
ATOM     12  C   UNL     1       2.287   6.756  18.710  0.00  0.00    +0.000 A 
ATOM     13  C   UNL     1       3.104   7.654  18.020  0.00  0.00    +0.000 A 
ATOM     14  C   UNL     1       4.103   7.197  17.118  0.00  0.00    +0.000 A 
ATOM     15  C   UNL     1       4.369   5.824  16.945  0.00  0.00    +0.000 A 
ATOM     16  C   UNL     1       3.611   4.952  17.789  0.00  0.00    +0.000 A 
ENDROOT
BRANCH   1  17
ATOM     17  O   UNL     1       6.743   5.886  16.688  0.00  0.00    +0.000 OA
ATOM     18  H   UNL     1       6.739   5.719  17.646  0.00  0.00    +0.000 HD
ENDBRANCH   1  17
BRANCH   1  19
ATOM     19  C   UNL     1       5.753   5.150  14.560  0.00  0.00    +0.000 C 
BRANCH  19  21
ATOM     20  C   UNL     1       5.756   3.511  12.560  0.00  0.00    +0.000 C 
ATOM     21  C   UNL     1       6.271   4.075  13.654  0.00  0.00    +0.000 C 
ENDBRANCH  19  21
ENDBRANCH   1  19
TORSDOF 3
ENDMDL
MODEL 3
REMARK VINA RESULT:      -6.8      2.466      3.842
REMARK  Name = 
REMARK  3 active torsions:
REMARK  status: ('A' for Active; 'I' for Inactive)
REMARK    1  A    between atoms: C_2  and  C_3
REMARK    2  A    between atoms: C_3  and  C_4
REMARK    3  A    between atoms: C_4  and  O_5
REMARK                            x       y       z     vdW  Elec       q    Type
REMARK                         _______ _______ _______ _____ _____    ______ ____
ROOT
ATOM      1  C   UNL     1       5.463   4.651  16.761  0.00  0.00    +0.000 C 
ATOM      2  C   UNL     1       5.104   6.174  16.957  0.00  0.00    +0.000 C 
ATOM      3  O   UNL     1       3.720   6.458  16.913  0.00  0.00    +0.000 OA
ATOM      4  C   UNL     1       3.190   5.980  18.087  0.00  0.00    +0.000 C 
ATOM      5  C   UNL     1       2.483   6.771  18.903  0.00  0.00    +0.000 C 
ATOM      6 CL   UNL     1       2.371   8.465  18.680  0.00  0.00    +0.000 Cl
ATOM      7  C   UNL     1       1.800   6.161  20.071  0.00  0.00    +0.000 C 
ATOM      8  O   UNL     1       1.505   6.778  21.081  0.00  0.00    +0.000 OA
ATOM      9  C   UNL     1       1.499   4.673  19.929  0.00  0.00    +0.000 C 
ATOM     10  O   UNL     1       0.540   4.175  20.490  0.00  0.00    +0.000 OA
ATOM     11  C   UNL     1       2.433   3.878  19.091  0.00  0.00    +0.000 A 
ATOM     12  C   UNL     1       2.306   2.499  19.009  0.00  0.00    +0.000 A 
ATOM     13  C   UNL     1       3.204   1.792  18.207  0.00  0.00    +0.000 A 
ATOM     14  C   UNL     1       4.281   2.450  17.552  0.00  0.00    +0.000 A 
ATOM     15  C   UNL     1       4.438   3.850  17.613  0.00  0.00    +0.000 A 
ATOM     16  C   UNL     1       3.405   4.542  18.320  0.00  0.00    +0.000 A 
ENDROOT
BRANCH   1  17
ATOM     17  O   UNL     1       5.217   4.283  15.397  0.00  0.00    +0.000 OA
ATOM     18  H   UNL     1       5.611   3.404  15.256  0.00  0.00    +0.000 HD
ENDBRANCH   1  17
BRANCH   1  19
ATOM     19  C   UNL     1       7.033   4.805  16.971  0.00  0.00    +0.000 C 
BRANCH  19  21
ATOM     20  C   UNL     1       7.891   5.804  19.197  0.00  0.00    +0.000 C 
ATOM     21  C   UNL     1       7.905   4.938  18.183  0.00  0.00    +0.000 C 
ENDBRANCH  19  21
ENDBRANCH   1  19
TORSDOF 3
ENDMDL
MODEL 4
REMARK VINA RESULT:      -6.7      2.626      4.104
REMARK  Name = 
REMARK  3 active torsions:
REMARK  status: ('A' for Active; 'I' for Inactive)
REMARK    1  A    between atoms: C_2  and  C_3
REMARK    2  A    between atoms: C_3  and  C_4
REMARK    3  A    between atoms: C_4  and  O_5
REMARK                            x       y       z     vdW  Elec       q    Type
REMARK                         _______ _______ _______ _____ _____    ______ ____
ROOT
ATOM      1  C   UNL     1       6.009   5.896  17.194  0.00  0.00    +0.000 C 
ATOM      2  C   UNL     1       5.277   7.271  16.949  0.00  0.00    +0.000 C 
ATOM      3  O   UNL     1       3.873   7.172  16.830  0.00  0.00    +0.000 OA
ATOM      4  C   UNL     1       3.395   6.918  18.093  0.00  0.00    +0.000 C 
ATOM      5  C   UNL     1       2.461   7.699  18.652  0.00  0.00    +0.000 C 
ATOM      6 CL   UNL     1       1.956   9.180  17.955  0.00  0.00    +0.000 Cl
ATOM      7  C   UNL     1       1.868   7.283  19.947  0.00  0.00    +0.000 C 
ATOM      8  O   UNL     1       1.362   8.061  20.740  0.00  0.00    +0.000 OA
ATOM      9  C   UNL     1       1.949   5.789  20.236  0.00  0.00    +0.000 C 
ATOM     10  O   UNL     1       1.104   5.239  20.919  0.00  0.00    +0.000 OA
ATOM     11  C   UNL     1       3.105   5.056  19.658  0.00  0.00    +0.000 A 
ATOM     12  C   UNL     1       3.324   3.723  19.973  0.00  0.00    +0.000 A 
ATOM     13  C   UNL     1       4.420   3.074  19.402  0.00  0.00    +0.000 A 
ATOM     14  C   UNL     1       5.347   3.775  18.583  0.00  0.00    +0.000 A 
ATOM     15  C   UNL     1       5.153   5.129  18.243  0.00  0.00    +0.000 A 
ATOM     16  C   UNL     1       3.936   5.705  18.725  0.00  0.00    +0.000 A 
ENDROOT
BRANCH   1  17
ATOM     17  O   UNL     1       5.955   5.114  15.993  0.00  0.00    +0.000 OA
ATOM     18  H   UNL     1       6.325   4.238  16.197  0.00  0.00    +0.000 HD
ENDBRANCH   1  17
BRANCH   1  19
ATOM     19  C   UNL     1       7.475   6.494  17.347  0.00  0.00    +0.000 C 
BRANCH  19  21
ATOM     20  C   UNL     1       8.214   8.885  18.001  0.00  0.00    +0.000 C 
ATOM     21  C   UNL     1       8.067   7.574  18.201  0.00  0.00    +0.000 C 
ENDBRANCH  19  21
ENDBRANCH   1  19
TORSDOF 3
ENDMDL
MODEL 5
REMARK VINA RESULT:      -6.7      2.564      3.866
REMARK  Name = 
REMARK  3 active torsions:
REMARK  status: ('A' for Active; 'I' for Inactive)
REMARK    1  A    between atoms: C_2  and  C_3
REMARK    2  A    between atoms: C_3  and  C_4
REMARK    3  A    between atoms: C_4  and  O_5
REMARK                            x       y       z     vdW  Elec       q    Type
REMARK                         _______ _______ _______ _____ _____    ______ ____
ROOT
ATOM      1  C   UNL     1       5.512   5.813  16.726  0.00  0.00    +0.000 C 
ATOM      2  C   UNL     1       4.928   7.228  17.106  0.00  0.00    +0.000 C 
ATOM      3  O   UNL     1       3.517   7.300  17.092  0.00  0.00    +0.000 OA
ATOM      4  C   UNL     1       3.083   6.606  18.196  0.00  0.00    +0.000 C 
ATOM      5  C   UNL     1       2.276   7.174  19.100  0.00  0.00    +0.000 C 
ATOM      6 CL   UNL     1       1.903   8.845  19.087  0.00  0.00    +0.000 Cl
ATOM      7  C   UNL     1       1.711   6.327  20.181  0.00  0.00    +0.000 C 
ATOM      8  O   UNL     1       1.340   6.764  21.258  0.00  0.00    +0.000 OA
ATOM      9  C   UNL     1       1.639   4.840  19.856  0.00  0.00    +0.000 C 
ATOM     10  O   UNL     1       0.775   4.135  20.347  0.00  0.00    +0.000 OA
ATOM     11  C   UNL     1       2.671   4.305  18.930  0.00  0.00    +0.000 A 
ATOM     12  C   UNL     1       2.755   2.944  18.678  0.00  0.00    +0.000 A 
ATOM     13  C   UNL     1       3.738   2.487  17.799  0.00  0.00    +0.000 A 
ATOM     14  C   UNL     1       4.692   3.377  17.234  0.00  0.00    +0.000 A 
ATOM     15  C   UNL     1       4.634   4.766  17.469  0.00  0.00    +0.000 A 
ATOM     16  C   UNL     1       3.518   5.200  18.250  0.00  0.00    +0.000 A 
ENDROOT
BRANCH   1  17
ATOM     17  O   UNL     1       5.305   5.581  15.326  0.00  0.00    +0.000 OA
ATOM     18  H   UNL     1       5.090   4.639  15.214  0.00  0.00    +0.000 HD
ENDBRANCH   1  17
BRANCH   1  19
ATOM     19  C   UNL     1       7.043   6.180  16.960  0.00  0.00    +0.000 C 
BRANCH  19  21
ATOM     20  C   UNL     1       8.075   8.399  17.795  0.00  0.00    +0.000 C 
ATOM     21  C   UNL     1       7.751   7.109  17.898  0.00  0.00    +0.000 C 
ENDBRANCH  19  21
ENDBRANCH   1  19
TORSDOF 3
ENDMDL
MODEL 6
REMARK VINA RESULT:      -6.6      2.238      5.127
REMARK  Name = 
REMARK  3 active torsions:
REMARK  status: ('A' for Active; 'I' for Inactive)
REMARK    1  A    between atoms: C_2  and  C_3
REMARK    2  A    between atoms: C_3  and  C_4
REMARK    3  A    between atoms: C_4  and  O_5
REMARK                            x       y       z     vdW  Elec       q    Type
REMARK                         _______ _______ _______ _____ _____    ______ ____
ROOT
ATOM      1  C   UNL     1       1.884   3.804  18.146  0.00  0.00    +0.000 C 
ATOM      2  C   UNL     1       2.889   2.904  17.331  0.00  0.00    +0.000 C 
ATOM      3  O   UNL     1       3.447   3.532  16.195  0.00  0.00    +0.000 OA
ATOM      4  C   UNL     1       4.349   4.454  16.667  0.00  0.00    +0.000 C 
ATOM      5  C   UNL     1       5.626   4.447  16.263  0.00  0.00    +0.000 C 
ATOM      6 CL   UNL     1       6.290   3.182  15.320  0.00  0.00    +0.000 Cl
ATOM      7  C   UNL     1       6.510   5.564  16.680  0.00  0.00    +0.000 C 
ATOM      8  O   UNL     1       7.725   5.473  16.752  0.00  0.00    +0.000 OA
ATOM      9  C   UNL     1       5.784   6.855  17.038  0.00  0.00    +0.000 C 
ATOM     10  O   UNL     1       6.320   7.937  16.878  0.00  0.00    +0.000 OA
ATOM     11  C   UNL     1       4.413   6.720  17.595  0.00  0.00    +0.000 A 
ATOM     12  C   UNL     1       3.730   7.833  18.062  0.00  0.00    +0.000 A 
ATOM     13  C   UNL     1       2.442   7.660  18.574  0.00  0.00    +0.000 A 
ATOM     14  C   UNL     1       1.867   6.366  18.696  0.00  0.00    +0.000 A 
ATOM     15  C   UNL     1       2.534   5.214  18.230  0.00  0.00    +0.000 A 
ATOM     16  C   UNL     1       3.781   5.463  17.576  0.00  0.00    +0.000 A 
ENDROOT
BRANCH   1  17
ATOM     17  O   UNL     1       0.679   3.969  17.386  0.00  0.00    +0.000 OA
ATOM     18  H   UNL     1       0.397   3.086  17.090  0.00  0.00    +0.000 HD
ENDBRANCH   1  17
BRANCH   1  19
ATOM     19  C   UNL     1       1.609   2.759  19.314  0.00  0.00    +0.000 C 
BRANCH  19  21
ATOM     20  C   UNL     1       2.153   3.534  21.721  0.00  0.00    +0.000 C 
ATOM     21  C   UNL     1       1.438   2.889  20.797  0.00  0.00    +0.000 C 
ENDBRANCH  19  21
ENDBRANCH   1  19
TORSDOF 3
ENDMDL
MODEL 7
REMARK VINA RESULT:      -6.5      2.588      4.069
REMARK  Name = 
REMARK  3 active torsions:
REMARK  status: ('A' for Active; 'I' for Inactive)
REMARK    1  A    between atoms: C_2  and  C_3
REMARK    2  A    between atoms: C_3  and  C_4
REMARK    3  A    between atoms: C_4  and  O_5
REMARK                            x       y       z     vdW  Elec       q    Type
REMARK                         _______ _______ _______ _____ _____    ______ ____
ROOT
ATOM      1  C   UNL     1       5.768   4.506  17.740  0.00  0.00    +0.000 C 
ATOM      2  C   UNL     1       5.375   5.924  17.174  0.00  0.00    +0.000 C 
ATOM      3  O   UNL     1       3.989   6.108  16.969  0.00  0.00    +0.000 OA
ATOM      4  C   UNL     1       3.427   6.231  18.216  0.00  0.00    +0.000 C 
ATOM      5  C   UNL     1       2.677   7.294  18.538  0.00  0.00    +0.000 C 
ATOM      6 CL   UNL     1       2.543   8.670  17.528  0.00  0.00    +0.000 Cl
ATOM      7  C   UNL     1       1.964   7.293  19.839  0.00  0.00    +0.000 C 
ATOM      8  O   UNL     1       1.623   8.309  20.423  0.00  0.00    +0.000 OA
ATOM      9  C   UNL     1       1.696   5.910  20.421  0.00  0.00    +0.000 C 
ATOM     10  O   UNL     1       0.726   5.710  21.130  0.00  0.00    +0.000 OA
ATOM     11  C   UNL     1       2.673   4.842  20.088  0.00  0.00    +0.000 A 
ATOM     12  C   UNL     1       2.574   3.589  20.673  0.00  0.00    +0.000 A 
ATOM     13  C   UNL     1       3.512   2.615  20.328  0.00  0.00    +0.000 A 
ATOM     14  C   UNL     1       4.599   2.914  19.461  0.00  0.00    +0.000 A 
ATOM     15  C   UNL     1       4.729   4.177  18.849  0.00  0.00    +0.000 A 
ATOM     16  C   UNL     1       3.659   5.088  19.114  0.00  0.00    +0.000 A 
ENDROOT
BRANCH   1  17
ATOM     17  O   UNL     1       5.578   3.522  16.714  0.00  0.00    +0.000 OA
ATOM     18  H   UNL     1       6.307   2.882  16.783  0.00  0.00    +0.000 HD
ENDBRANCH   1  17
BRANCH   1  19
ATOM     19  C   UNL     1       7.327   4.793  17.886  0.00  0.00    +0.000 C 
BRANCH  19  21
ATOM     20  C   UNL     1       8.225   7.088  18.671  0.00  0.00    +0.000 C 
ATOM     21  C   UNL     1       8.127   5.758  18.707  0.00  0.00    +0.000 C 
ENDBRANCH  19  21
ENDBRANCH   1  19
TORSDOF 3
ENDMDL
MODEL 8
REMARK VINA RESULT:      -6.3      6.089      8.279
REMARK  Name = 
REMARK  3 active torsions:
REMARK  status: ('A' for Active; 'I' for Inactive)
REMARK    1  A    between atoms: C_2  and  C_3
REMARK    2  A    between atoms: C_3  and  C_4
REMARK    3  A    between atoms: C_4  and  O_5
REMARK                            x       y       z     vdW  Elec       q    Type
REMARK                         _______ _______ _______ _____ _____    ______ ____
ROOT
ATOM      1  C   UNL     1      -1.813  11.593  18.245  0.00  0.00    +0.000 C 
ATOM      2  C   UNL     1      -0.770  10.563  17.664  0.00  0.00    +0.000 C 
ATOM      3  O   UNL     1       0.500  10.605  18.283  0.00  0.00    +0.000 OA
ATOM      4  C   UNL     1       0.342  10.043  19.527  0.00  0.00    +0.000 C 
ATOM      5  C   UNL     1       1.101   9.015  19.926  0.00  0.00    +0.000 C 
ATOM      6 CL   UNL     1       2.154   8.177  18.866  0.00  0.00    +0.000 Cl
ATOM      7  C   UNL     1       0.997   8.558  21.334  0.00  0.00    +0.000 C 
ATOM      8  O   UNL     1       1.280   7.429  21.701  0.00  0.00    +0.000 OA
ATOM      9  C   UNL     1       0.485   9.610  22.311  0.00  0.00    +0.000 C 
ATOM     10  O   UNL     1       0.831   9.597  23.479  0.00  0.00    +0.000 OA
ATOM     11  C   UNL     1      -0.452  10.628  21.769  0.00  0.00    +0.000 A 
ATOM     12  C   UNL     1      -1.061  11.545  22.613  0.00  0.00    +0.000 A 
ATOM     13  C   UNL     1      -1.931  12.486  22.060  0.00  0.00    +0.000 A 
ATOM     14  C   UNL     1      -2.259  12.461  20.677  0.00  0.00    +0.000 A 
ATOM     15  C   UNL     1      -1.657  11.544  19.792  0.00  0.00    +0.000 A 
ATOM     16  C   UNL     1      -0.659  10.704  20.379  0.00  0.00    +0.000 A 
ENDROOT
BRANCH   1  17
ATOM     17  O   UNL     1      -1.432  12.919  17.851  0.00  0.00    +0.000 OA
ATOM     18  H   UNL     1      -1.722  13.527  18.553  0.00  0.00    +0.000 HD
ENDBRANCH   1  17
BRANCH   1  19
ATOM     19  C   UNL     1      -3.044  11.130  17.349  0.00  0.00    +0.000 C 
BRANCH  19  21
ATOM     20  C   UNL     1      -3.277  10.351  14.894  0.00  0.00    +0.000 C 
ATOM     21  C   UNL     1      -3.190  10.165  16.213  0.00  0.00    +0.000 C 
ENDBRANCH  19  21
ENDBRANCH   1  19
TORSDOF 3
ENDMDL
MODEL 9
REMARK VINA RESULT:      -6.1      8.324     10.543
REMARK  Name = 
REMARK  3 active torsions:
REMARK  status: ('A' for Active; 'I' for Inactive)
REMARK    1  A    between atoms: C_2  and  C_3
REMARK    2  A    between atoms: C_3  and  C_4
REMARK    3  A    between atoms: C_4  and  O_5
REMARK                            x       y       z     vdW  Elec       q    Type
REMARK                         _______ _______ _______ _____ _____    ______ ____
ROOT
ATOM      1  C   UNL     1      -1.069  11.581  18.573  0.00  0.00    +0.000 C 
ATOM      2  C   UNL     1      -1.115  12.182  20.030  0.00  0.00    +0.000 C 
ATOM      3  O   UNL     1      -2.038  13.239  20.197  0.00  0.00    +0.000 OA
ATOM      4  C   UNL     1      -3.287  12.666  20.182  0.00  0.00    +0.000 C 
ATOM      5  C   UNL     1      -4.151  12.858  21.188  0.00  0.00    +0.000 C 
ATOM      6 CL   UNL     1      -3.708  13.624  22.653  0.00  0.00    +0.000 Cl
ATOM      7  C   UNL     1      -5.538  12.351  21.040  0.00  0.00    +0.000 C 
ATOM      8  O   UNL     1      -6.262  12.079  21.984  0.00  0.00    +0.000 OA
ATOM      9  C   UNL     1      -6.003  12.172  19.599  0.00  0.00    +0.000 C 
ATOM     10  O   UNL     1      -7.179  12.290  19.305  0.00  0.00    +0.000 OA
ATOM     11  C   UNL     1      -4.960  11.840  18.595  0.00  0.00    +0.000 A 
ATOM     12  C   UNL     1      -5.311  11.538  17.287  0.00  0.00    +0.000 A 
ATOM     13  C   UNL     1      -4.297  11.236  16.377  0.00  0.00    +0.000 A 
ATOM     14  C   UNL     1      -2.939  11.152  16.788  0.00  0.00    +0.000 A 
ATOM     15  C   UNL     1      -2.548  11.453  18.109  0.00  0.00    +0.000 A 
ATOM     16  C   UNL     1      -3.602  11.907  18.962  0.00  0.00    +0.000 A 
ENDROOT
BRANCH   1  17
ATOM     17  O   UNL     1      -0.458  12.533  17.691  0.00  0.00    +0.000 OA
ATOM     18  H   UNL     1       0.246  12.983  18.189  0.00  0.00    +0.000 HD
ENDBRANCH   1  17
BRANCH   1  19
ATOM     19  C   UNL     1      -0.017  10.428  18.884  0.00  0.00    +0.000 C 
BRANCH  19  21
ATOM     20  C   UNL     1       1.772   8.849  17.887  0.00  0.00    +0.000 C 
ATOM     21  C   UNL     1       1.293  10.032  18.273  0.00  0.00    +0.000 C 
ENDBRANCH  19  21
ENDBRANCH   1  19
TORSDOF 3
ENDMDL
