MODEL 1
REMARK VINA RESULT:      -7.9      0.000      0.000
REMARK  Name = 
REMARK  3 active torsions:
REMARK  status: ('A' for Active; 'I' for Inactive)
REMARK    1  A    between atoms: C_5  and  C_6
REMARK    2  A    between atoms: C_10  and  N_11
REMARK    3  A    between atoms: C_12  and  C_14
REMARK                            x       y       z     vdW  Elec       q    Type
REMARK                         _______ _______ _______ _____ _____    ______ ____
ROOT
ATOM      1  C   UNL     1      -0.896  11.322  18.223  0.00  0.00    +0.000 A 
ATOM      2  C   UNL     1      -0.174  12.426  18.714  0.00  0.00    +0.000 A 
ATOM      3  C   UNL     1       1.202  12.335  18.921  0.00  0.00    +0.000 A 
ATOM      4  C   UNL     1       1.886  11.154  18.631  0.00  0.00    +0.000 A 
ATOM      5  C   UNL     1       1.193  10.032  18.125  0.00  0.00    +0.000 A 
ATOM      6  C   UNL     1      -0.196  10.139  17.934  0.00  0.00    +0.000 A 
ENDROOT
BRANCH   1  11
ATOM      7  N   UNL     1      -6.505  11.643  17.416  0.00  0.00    +0.000 N 
ATOM      8  C   UNL     1      -5.112  11.552  17.618  0.00  0.00    +0.000 A 
ATOM      9  N   UNL     1      -4.304  11.103  16.623  0.00  0.00    +0.000 NA
ATOM     10  C   UNL     1      -2.958  11.025  16.789  0.00  0.00    +0.000 A 
ATOM     11  C   UNL     1      -2.371  11.395  18.011  0.00  0.00    +0.000 A 
ATOM     12  C   UNL     1      -3.236  11.846  19.025  0.00  0.00    +0.000 A 
ATOM     13  N   UNL     1      -4.573  11.922  18.807  0.00  0.00    +0.000 NA
ATOM     14  H   UNL     1      -6.920  11.357  16.518  0.00  0.00    +0.000 HD
ATOM     15  H   UNL     1      -7.113  12.004  18.164  0.00  0.00    +0.000 HD
ENDBRANCH   1  11
BRANCH   5  16
ATOM     16  N   UNL     1       1.818   8.791  17.764  0.00  0.00    +0.000 N 
ATOM     17  C   UNL     1       2.225   7.798  18.614  0.00  0.00    +0.000 C 
ATOM     18  O   UNL     1       2.013   7.887  19.811  0.00  0.00    +0.000 OA
ATOM     19  H   UNL     1       1.939   8.647  16.755  0.00  0.00    +0.000 HD
BRANCH  17  20
ATOM     20  C   UNL     1       2.901   6.553  18.115  0.00  0.00    +0.000 A 
ATOM     21  C   UNL     1       4.132   6.569  17.419  0.00  0.00    +0.000 A 
ATOM     22  C   UNL     1       4.719   5.377  16.981  0.00  0.00    +0.000 A 
ATOM     23 BR   UNL     1       6.385   5.421  16.046  0.00  0.00    +0.000 Br
ATOM     24  C   UNL     1       4.091   4.153  17.226  0.00  0.00    +0.000 A 
ATOM     25  C   UNL     1       2.877   4.119  17.911  0.00  0.00    +0.000 A 
ATOM     26 BR   UNL     1       2.018   2.448  18.248  0.00  0.00    +0.000 Br
ATOM     27  C   UNL     1       2.290   5.307  18.358  0.00  0.00    +0.000 A 
ENDBRANCH  17  20
ENDBRANCH   5  16
TORSDOF 3
ENDMDL
MODEL 2
REMARK VINA RESULT:      -7.9      0.091      1.925
REMARK  Name = 
REMARK  3 active torsions:
REMARK  status: ('A' for Active; 'I' for Inactive)
REMARK    1  A    between atoms: C_5  and  C_6
REMARK    2  A    between atoms: C_10  and  N_11
REMARK    3  A    between atoms: C_12  and  C_14
REMARK                            x       y       z     vdW  Elec       q    Type
REMARK                         _______ _______ _______ _____ _____    ______ ____
ROOT
ATOM      1  C   UNL     1      -0.891  11.312  18.218  0.00  0.00    +0.000 A 
ATOM      2  C   UNL     1      -0.154  12.418  18.680  0.00  0.00    +0.000 A 
ATOM      3  C   UNL     1       1.223  12.317  18.874  0.00  0.00    +0.000 A 
ATOM      4  C   UNL     1       1.893  11.125  18.598  0.00  0.00    +0.000 A 
ATOM      5  C   UNL     1       1.184  10.001  18.121  0.00  0.00    +0.000 A 
ATOM      6  C   UNL     1      -0.206  10.117  17.943  0.00  0.00    +0.000 A 
ENDROOT
BRANCH   1  11
ATOM      7  N   UNL     1      -6.505  11.672  17.466  0.00  0.00    +0.000 N 
ATOM      8  C   UNL     1      -5.111  11.571  17.654  0.00  0.00    +0.000 A 
ATOM      9  N   UNL     1      -4.321  11.080  16.665  0.00  0.00    +0.000 NA
ATOM     10  C   UNL     1      -2.974  10.992  16.818  0.00  0.00    +0.000 A 
ATOM     11  C   UNL     1      -2.368  11.395  18.020  0.00  0.00    +0.000 A 
ATOM     12  C   UNL     1      -3.216  11.890  19.029  0.00  0.00    +0.000 A 
ATOM     13  N   UNL     1      -4.554  11.973  18.824  0.00  0.00    +0.000 NA
ATOM     14  H   UNL     1      -6.934  11.361  16.582  0.00  0.00    +0.000 HD
ATOM     15  H   UNL     1      -7.101  12.064  18.208  0.00  0.00    +0.000 HD
ENDBRANCH   1  11
BRANCH   5  16
ATOM     16  N   UNL     1       1.793   8.747  17.777  0.00  0.00    +0.000 N 
ATOM     17  C   UNL     1       2.197   7.764  18.640  0.00  0.00    +0.000 C 
ATOM     18  O   UNL     1       1.996   7.876  19.837  0.00  0.00    +0.000 OA
ATOM     19  H   UNL     1       1.905   8.584  16.769  0.00  0.00    +0.000 HD
BRANCH  17  20
ATOM     20  C   UNL     1       2.857   6.504  18.157  0.00  0.00    +0.000 A 
ATOM     21  C   UNL     1       2.284   5.221  18.321  0.00  0.00    +0.000 A 
ATOM     22  C   UNL     1       2.942   4.081  17.847  0.00  0.00    +0.000 A 
ATOM     23 BR   UNL     1       2.148   2.358  18.074  0.00  0.00    +0.000 Br
ATOM     24  C   UNL     1       4.179   4.199  17.208  0.00  0.00    +0.000 A 
ATOM     25  C   UNL     1       4.758   5.456  17.039  0.00  0.00    +0.000 A 
ATOM     26 BR   UNL     1       6.447   5.618  16.164  0.00  0.00    +0.000 Br
ATOM     27  C   UNL     1       4.100   6.599  17.503  0.00  0.00    +0.000 A 
ENDBRANCH  17  20
ENDBRANCH   5  16
TORSDOF 3
ENDMDL
MODEL 3
REMARK VINA RESULT:      -7.9      1.252      2.382
REMARK  Name = 
REMARK  3 active torsions:
REMARK  status: ('A' for Active; 'I' for Inactive)
REMARK    1  A    between atoms: C_5  and  C_6
REMARK    2  A    between atoms: C_10  and  N_11
REMARK    3  A    between atoms: C_12  and  C_14
REMARK                            x       y       z     vdW  Elec       q    Type
REMARK                         _______ _______ _______ _____ _____    ______ ____
ROOT
ATOM      1  C   UNL     1      -1.276  11.639  18.469  0.00  0.00    +0.000 A 
ATOM      2  C   UNL     1      -0.521  12.826  18.478  0.00  0.00    +0.000 A 
ATOM      3  C   UNL     1       0.851  12.788  18.724  0.00  0.00    +0.000 A 
ATOM      4  C   UNL     1       1.499  11.573  18.948  0.00  0.00    +0.000 A 
ATOM      5  C   UNL     1       0.771  10.362  18.933  0.00  0.00    +0.000 A 
ATOM      6  C   UNL     1      -0.613  10.421  18.696  0.00  0.00    +0.000 A 
ENDROOT
BRANCH   1  11
ATOM      7  N   UNL     1      -6.876  11.677  17.543  0.00  0.00    +0.000 N 
ATOM      8  C   UNL     1      -5.484  11.679  17.772  0.00  0.00    +0.000 A 
ATOM      9  N   UNL     1      -4.988  12.087  18.968  0.00  0.00    +0.000 NA
ATOM     10  C   UNL     1      -3.652  12.079  19.217  0.00  0.00    +0.000 A 
ATOM     11  C   UNL     1      -2.749  11.660  18.225  0.00  0.00    +0.000 A 
ATOM     12  C   UNL     1      -3.293  11.254  16.993  0.00  0.00    +0.000 A 
ATOM     13  N   UNL     1      -4.636  11.264  16.797  0.00  0.00    +0.000 NA
ATOM     14  H   UNL     1      -7.524  11.997  18.277  0.00  0.00    +0.000 HD
ATOM     15  H   UNL     1      -7.252  11.347  16.643  0.00  0.00    +0.000 HD
ENDBRANCH   1  11
BRANCH   5  16
ATOM     16  N   UNL     1       1.357   9.064  19.116  0.00  0.00    +0.000 N 
ATOM     17  C   UNL     1       2.138   8.381  18.223  0.00  0.00    +0.000 C 
ATOM     18  O   UNL     1       2.454   8.895  17.163  0.00  0.00    +0.000 OA
ATOM     19  H   UNL     1       1.177   8.635  20.032  0.00  0.00    +0.000 HD
BRANCH  17  20
ATOM     20  C   UNL     1       2.668   7.008  18.519  0.00  0.00    +0.000 A 
ATOM     21  C   UNL     1       2.210   6.219  19.600  0.00  0.00    +0.000 A 
ATOM     22  C   UNL     1       2.738   4.943  19.826  0.00  0.00    +0.000 A 
ATOM     23 BR   UNL     1       2.101   3.893  21.289  0.00  0.00    +0.000 Br
ATOM     24  C   UNL     1       3.729   4.434  18.983  0.00  0.00    +0.000 A 
ATOM     25  C   UNL     1       4.193   5.198  17.913  0.00  0.00    +0.000 A 
ATOM     26 BR   UNL     1       5.546   4.503  16.760  0.00  0.00    +0.000 Br
ATOM     27  C   UNL     1       3.663   6.471  17.678  0.00  0.00    +0.000 A 
ENDBRANCH  17  20
ENDBRANCH   5  16
TORSDOF 3
ENDMDL
MODEL 4
REMARK VINA RESULT:      -7.9      1.181      1.261
REMARK  Name = 
REMARK  3 active torsions:
REMARK  status: ('A' for Active; 'I' for Inactive)
REMARK    1  A    between atoms: C_5  and  C_6
REMARK    2  A    between atoms: C_10  and  N_11
REMARK    3  A    between atoms: C_12  and  C_14
REMARK                            x       y       z     vdW  Elec       q    Type
REMARK                         _______ _______ _______ _____ _____    ______ ____
ROOT
ATOM      1  C   UNL     1      -1.024  11.498  18.270  0.00  0.00    +0.000 A 
ATOM      2  C   UNL     1      -0.254  12.659  18.470  0.00  0.00    +0.000 A 
ATOM      3  C   UNL     1       1.115  12.564  18.715  0.00  0.00    +0.000 A 
ATOM      4  C   UNL     1       1.745  11.320  18.751  0.00  0.00    +0.000 A 
ATOM      5  C   UNL     1       1.002  10.137  18.542  0.00  0.00    +0.000 A 
ATOM      6  C   UNL     1      -0.379  10.251  18.308  0.00  0.00    +0.000 A 
ENDROOT
BRANCH   1  11
ATOM      7  N   UNL     1      -6.611  11.846  17.333  0.00  0.00    +0.000 N 
ATOM      8  C   UNL     1      -5.224  11.748  17.567  0.00  0.00    +0.000 A 
ATOM      9  N   UNL     1      -4.391  11.336  16.577  0.00  0.00    +0.000 NA
ATOM     10  C   UNL     1      -3.049  11.253  16.774  0.00  0.00    +0.000 A 
ATOM     11  C   UNL     1      -2.494  11.578  18.023  0.00  0.00    +0.000 A 
ATOM     12  C   UNL     1      -3.385  11.992  19.031  0.00  0.00    +0.000 A 
ATOM     13  N   UNL     1      -4.716  12.075  18.782  0.00  0.00    +0.000 NA
ATOM     14  H   UNL     1      -7.003  11.593  16.414  0.00  0.00    +0.000 HD
ATOM     15  H   UNL     1      -7.239  12.180  18.077  0.00  0.00    +0.000 HD
ENDBRANCH   1  11
BRANCH   5  16
ATOM     16  N   UNL     1       1.571   8.818  18.523  0.00  0.00    +0.000 N 
ATOM     17  C   UNL     1       1.817   8.014  19.604  0.00  0.00    +0.000 C 
ATOM     18  O   UNL     1       1.492   8.371  20.723  0.00  0.00    +0.000 OA
ATOM     19  H   UNL     1       1.783   8.453  17.587  0.00  0.00    +0.000 HD
BRANCH  17  20
ATOM     20  C   UNL     1       2.450   6.660  19.459  0.00  0.00    +0.000 A 
ATOM     21  C   UNL     1       3.421   6.362  18.474  0.00  0.00    +0.000 A 
ATOM     22  C   UNL     1       3.980   5.083  18.387  0.00  0.00    +0.000 A 
ATOM     23 BR   UNL     1       5.293   4.704  17.052  0.00  0.00    +0.000 Br
ATOM     24  C   UNL     1       3.581   4.081  19.276  0.00  0.00    +0.000 A 
ATOM     25  C   UNL     1       2.626   4.357  20.253  0.00  0.00    +0.000 A 
ATOM     26 BR   UNL     1       2.082   2.989  21.469  0.00  0.00    +0.000 Br
ATOM     27  C   UNL     1       2.070   5.637  20.348  0.00  0.00    +0.000 A 
ENDBRANCH  17  20
ENDBRANCH   5  16
TORSDOF 3
ENDMDL
MODEL 5
REMARK VINA RESULT:      -7.8      1.232      1.606
REMARK  Name = 
REMARK  3 active torsions:
REMARK  status: ('A' for Active; 'I' for Inactive)
REMARK    1  A    between atoms: C_5  and  C_6
REMARK    2  A    between atoms: C_10  and  N_11
REMARK    3  A    between atoms: C_12  and  C_14
REMARK                            x       y       z     vdW  Elec       q    Type
REMARK                         _______ _______ _______ _____ _____    ______ ____
ROOT
ATOM      1  C   UNL     1      -1.236  11.613  18.535  0.00  0.00    +0.000 A 
ATOM      2  C   UNL     1      -0.493  12.804  18.638  0.00  0.00    +0.000 A 
ATOM      3  C   UNL     1       0.874  12.763  18.906  0.00  0.00    +0.000 A 
ATOM      4  C   UNL     1       1.531  11.542  19.061  0.00  0.00    +0.000 A 
ATOM      5  C   UNL     1       0.816  10.328  18.951  0.00  0.00    +0.000 A 
ATOM      6  C   UNL     1      -0.564  10.390  18.693  0.00  0.00    +0.000 A 
ENDROOT
BRANCH   1  11
ATOM      7  N   UNL     1      -6.818  11.660  17.512  0.00  0.00    +0.000 N 
ATOM      8  C   UNL     1      -5.431  11.660  17.765  0.00  0.00    +0.000 A 
ATOM      9  N   UNL     1      -4.952  12.096  18.958  0.00  0.00    +0.000 NA
ATOM     10  C   UNL     1      -3.621  12.087  19.230  0.00  0.00    +0.000 A 
ATOM     11  C   UNL     1      -2.704  11.637  18.266  0.00  0.00    +0.000 A 
ATOM     12  C   UNL     1      -3.230  11.201  17.036  0.00  0.00    +0.000 A 
ATOM     13  N   UNL     1      -4.568  11.214  16.816  0.00  0.00    +0.000 NA
ATOM     14  H   UNL     1      -7.477  12.003  18.226  0.00  0.00    +0.000 HD
ATOM     15  H   UNL     1      -7.181  11.308  16.616  0.00  0.00    +0.000 HD
ENDBRANCH   1  11
BRANCH   5  16
ATOM     16  N   UNL     1       1.414   9.027  19.058  0.00  0.00    +0.000 N 
ATOM     17  C   UNL     1       2.210   8.409  18.132  0.00  0.00    +0.000 C 
ATOM     18  O   UNL     1       2.532   8.992  17.111  0.00  0.00    +0.000 OA
ATOM     19  H   UNL     1       1.228   8.539  19.943  0.00  0.00    +0.000 HD
BRANCH  17  20
ATOM     20  C   UNL     1       2.751   7.024  18.346  0.00  0.00    +0.000 A 
ATOM     21  C   UNL     1       3.701   6.424  17.487  0.00  0.00    +0.000 A 
ATOM     22  C   UNL     1       4.172   5.131  17.737  0.00  0.00    +0.000 A 
ATOM     23 BR   UNL     1       5.460   4.342  16.566  0.00  0.00    +0.000 Br
ATOM     24  C   UNL     1       3.706   4.415  18.842  0.00  0.00    +0.000 A 
ATOM     25  C   UNL     1       2.769   4.991  19.700  0.00  0.00    +0.000 A 
ATOM     26 BR   UNL     1       2.132   4.014  21.211  0.00  0.00    +0.000 Br
ATOM     27  C   UNL     1       2.300   6.286  19.458  0.00  0.00    +0.000 A 
ENDBRANCH  17  20
ENDBRANCH   5  16
TORSDOF 3
ENDMDL
MODEL 6
REMARK VINA RESULT:      -7.8      1.273      1.292
REMARK  Name = 
REMARK  3 active torsions:
REMARK  status: ('A' for Active; 'I' for Inactive)
REMARK    1  A    between atoms: C_5  and  C_6
REMARK    2  A    between atoms: C_10  and  N_11
REMARK    3  A    between atoms: C_12  and  C_14
REMARK                            x       y       z     vdW  Elec       q    Type
REMARK                         _______ _______ _______ _____ _____    ______ ____
ROOT
ATOM      1  C   UNL     1      -1.497  11.451  19.352  0.00  0.00    +0.000 A 
ATOM      2  C   UNL     1      -0.985  12.433  20.220  0.00  0.00    +0.000 A 
ATOM      3  C   UNL     1       0.255  12.256  20.833  0.00  0.00    +0.000 A 
ATOM      4  C   UNL     1       1.013  11.113  20.583  0.00  0.00    +0.000 A 
ATOM      5  C   UNL     1       0.533  10.114  19.707  0.00  0.00    +0.000 A 
ATOM      6  C   UNL     1      -0.724  10.303  19.108  0.00  0.00    +0.000 A 
ENDROOT
BRANCH   1  11
ATOM      7  N   UNL     1      -6.560  12.112  16.874  0.00  0.00    +0.000 N 
ATOM      8  C   UNL     1      -5.304  11.936  17.491  0.00  0.00    +0.000 A 
ATOM      9  N   UNL     1      -4.269  11.401  16.794  0.00  0.00    +0.000 NA
ATOM     10  C   UNL     1      -3.045  11.241  17.363  0.00  0.00    +0.000 A 
ATOM     11  C   UNL     1      -2.830  11.613  18.700  0.00  0.00    +0.000 A 
ATOM     12  C   UNL     1      -3.926  12.155  19.398  0.00  0.00    +0.000 A 
ATOM     13  N   UNL     1      -5.125  12.311  18.783  0.00  0.00    +0.000 NA
ATOM     14  H   UNL     1      -6.704  11.823  15.895  0.00  0.00    +0.000 HD
ATOM     15  H   UNL     1      -7.338  12.538  17.396  0.00  0.00    +0.000 HD
ENDBRANCH   1  11
BRANCH   5  16
ATOM     16  N   UNL     1       1.259   8.924  19.363  0.00  0.00    +0.000 N 
ATOM     17  C   UNL     1       1.968   8.697  18.213  0.00  0.00    +0.000 C 
ATOM     18  O   UNL     1       2.082   9.577  17.377  0.00  0.00    +0.000 OA
ATOM     19  H   UNL     1       1.251   8.190  20.081  0.00  0.00    +0.000 HD
BRANCH  17  20
ATOM     20  C   UNL     1       2.661   7.391  17.952  0.00  0.00    +0.000 A 
ATOM     21  C   UNL     1       3.993   7.303  17.483  0.00  0.00    +0.000 A 
ATOM     22  C   UNL     1       4.590   6.058  17.261  0.00  0.00    +0.000 A 
ATOM     23 BR   UNL     1       6.392   5.963  16.632  0.00  0.00    +0.000 Br
ATOM     24  C   UNL     1       3.873   4.883  17.498  0.00  0.00    +0.000 A 
ATOM     25  C   UNL     1       2.559   4.950  17.961  0.00  0.00    +0.000 A 
ATOM     26 BR   UNL     1       1.579   3.345  18.287  0.00  0.00    +0.000 Br
ATOM     27  C   UNL     1       1.960   6.193  18.192  0.00  0.00    +0.000 A 
ENDBRANCH  17  20
ENDBRANCH   5  16
TORSDOF 3
ENDMDL
MODEL 7
REMARK VINA RESULT:      -7.7      1.237      2.478
REMARK  Name = 
REMARK  3 active torsions:
REMARK  status: ('A' for Active; 'I' for Inactive)
REMARK    1  A    between atoms: C_5  and  C_6
REMARK    2  A    between atoms: C_10  and  N_11
REMARK    3  A    between atoms: C_12  and  C_14
REMARK                            x       y       z     vdW  Elec       q    Type
REMARK                         _______ _______ _______ _____ _____    ______ ____
ROOT
ATOM      1  C   UNL     1      -1.341  11.433  19.425  0.00  0.00    +0.000 A 
ATOM      2  C   UNL     1      -0.787  12.408  20.275  0.00  0.00    +0.000 A 
ATOM      3  C   UNL     1       0.455  12.201  20.872  0.00  0.00    +0.000 A 
ATOM      4  C   UNL     1       1.176  11.033  20.624  0.00  0.00    +0.000 A 
ATOM      5  C   UNL     1       0.654  10.040  19.765  0.00  0.00    +0.000 A 
ATOM      6  C   UNL     1      -0.606  10.260  19.183  0.00  0.00    +0.000 A 
ENDROOT
BRANCH   1  11
ATOM      7  N   UNL     1      -6.431  12.132  17.014  0.00  0.00    +0.000 N 
ATOM      8  C   UNL     1      -5.164  11.970  17.611  0.00  0.00    +0.000 A 
ATOM      9  N   UNL     1      -4.953  12.377  18.890  0.00  0.00    +0.000 NA
ATOM     10  C   UNL     1      -3.746  12.212  19.492  0.00  0.00    +0.000 A 
ATOM     11  C   UNL     1      -2.678  11.628  18.791  0.00  0.00    +0.000 A 
ATOM     12  C   UNL     1      -2.926  11.226  17.465  0.00  0.00    +0.000 A 
ATOM     13  N   UNL     1      -4.152  11.397  16.912  0.00  0.00    +0.000 NA
ATOM     14  H   UNL     1      -7.201  12.573  17.538  0.00  0.00    +0.000 HD
ATOM     15  H   UNL     1      -6.596  11.803  16.052  0.00  0.00    +0.000 HD
ENDBRANCH   1  11
BRANCH   5  16
ATOM     16  N   UNL     1       1.339   8.825  19.423  0.00  0.00    +0.000 N 
ATOM     17  C   UNL     1       2.036   8.571  18.273  0.00  0.00    +0.000 C 
ATOM     18  O   UNL     1       2.177   9.443  17.433  0.00  0.00    +0.000 OA
ATOM     19  H   UNL     1       1.308   8.094  20.144  0.00  0.00    +0.000 HD
BRANCH  17  20
ATOM     20  C   UNL     1       2.685   7.241  18.015  0.00  0.00    +0.000 A 
ATOM     21  C   UNL     1       2.034   6.006  18.243  0.00  0.00    +0.000 A 
ATOM     22  C   UNL     1       2.687   4.797  17.981  0.00  0.00    +0.000 A 
ATOM     23 BR   UNL     1       1.787   3.140  18.292  0.00  0.00    +0.000 Br
ATOM     24  C   UNL     1       3.995   4.797  17.491  0.00  0.00    +0.000 A 
ATOM     25  C   UNL     1       4.652   6.005  17.259  0.00  0.00    +0.000 A 
ATOM     26 BR   UNL     1       6.439   6.006  16.588  0.00  0.00    +0.000 Br
ATOM     27  C   UNL     1       4.001   7.217  17.513  0.00  0.00    +0.000 A 
ENDBRANCH  17  20
ENDBRANCH   5  16
TORSDOF 3
ENDMDL
MODEL 8
REMARK VINA RESULT:      -7.7      4.797      9.131
REMARK  Name = 
REMARK  3 active torsions:
REMARK  status: ('A' for Active; 'I' for Inactive)
REMARK    1  A    between atoms: C_5  and  C_6
REMARK    2  A    between atoms: C_10  and  N_11
REMARK    3  A    between atoms: C_12  and  C_14
REMARK                            x       y       z     vdW  Elec       q    Type
REMARK                         _______ _______ _______ _____ _____    ______ ____
ROOT
ATOM      1  C   UNL     1       4.405   4.870  18.041  0.00  0.00    +0.000 A 
ATOM      2  C   UNL     1       4.171   3.643  18.689  0.00  0.00    +0.000 A 
ATOM      3  C   UNL     1       3.307   3.575  19.781  0.00  0.00    +0.000 A 
ATOM      4  C   UNL     1       2.650   4.717  20.238  0.00  0.00    +0.000 A 
ATOM      5  C   UNL     1       2.853   5.961  19.601  0.00  0.00    +0.000 A 
ATOM      6  C   UNL     1       3.737   6.013  18.509  0.00  0.00    +0.000 A 
ENDROOT
BRANCH   1  11
ATOM      7  N   UNL     1       7.991   5.218  13.655  0.00  0.00    +0.000 N 
ATOM      8  C   UNL     1       7.093   5.137  14.739  0.00  0.00    +0.000 A 
ATOM      9  N   UNL     1       6.048   4.271  14.699  0.00  0.00    +0.000 NA
ATOM     10  C   UNL     1       5.181   4.163  15.739  0.00  0.00    +0.000 A 
ATOM     11  C   UNL     1       5.340   4.966  16.881  0.00  0.00    +0.000 A 
ATOM     12  C   UNL     1       6.426   5.861  16.888  0.00  0.00    +0.000 A 
ATOM     13  N   UNL     1       7.275   5.921  15.831  0.00  0.00    +0.000 NA
ATOM     14  H   UNL     1       7.854   4.629  12.821  0.00  0.00    +0.000 HD
ATOM     15  H   UNL     1       8.795   5.859  13.697  0.00  0.00    +0.000 HD
ENDBRANCH   1  11
BRANCH   5  16
ATOM     16  N   UNL     1       2.192   7.180  19.977  0.00  0.00    +0.000 N 
ATOM     17  C   UNL     1       1.793   8.190  19.143  0.00  0.00    +0.000 C 
ATOM     18  O   UNL     1       1.933   8.083  17.937  0.00  0.00    +0.000 OA
ATOM     19  H   UNL     1       1.987   7.267  20.979  0.00  0.00    +0.000 HD
BRANCH  17  20
ATOM     20  C   UNL     1       1.138   9.437  19.663  0.00  0.00    +0.000 A 
ATOM     21  C   UNL     1       1.109  10.653  18.941  0.00  0.00    +0.000 A 
ATOM     22  C   UNL     1       0.480  11.784  19.473  0.00  0.00    +0.000 A 
ATOM     23 BR   UNL     1       0.448  13.415  18.478  0.00  0.00    +0.000 Br
ATOM     24  C   UNL     1      -0.126  11.724  20.730  0.00  0.00    +0.000 A 
ATOM     25  C   UNL     1      -0.107  10.533  21.456  0.00  0.00    +0.000 A 
ATOM     26 BR   UNL     1      -0.936  10.450  23.174  0.00  0.00    +0.000 Br
ATOM     27  C   UNL     1       0.514   9.398  20.925  0.00  0.00    +0.000 A 
ENDBRANCH  17  20
ENDBRANCH   5  16
TORSDOF 3
ENDMDL
MODEL 9
REMARK VINA RESULT:      -7.7      1.353      1.428
REMARK  Name = 
REMARK  3 active torsions:
REMARK  status: ('A' for Active; 'I' for Inactive)
REMARK    1  A    between atoms: C_5  and  C_6
REMARK    2  A    between atoms: C_10  and  N_11
REMARK    3  A    between atoms: C_12  and  C_14
REMARK                            x       y       z     vdW  Elec       q    Type
REMARK                         _______ _______ _______ _____ _____    ______ ____
ROOT
ATOM      1  C   UNL     1      -1.420  11.733  19.016  0.00  0.00    +0.000 A 
ATOM      2  C   UNL     1      -0.752  12.907  19.410  0.00  0.00    +0.000 A 
ATOM      3  C   UNL     1       0.569  12.854  19.851  0.00  0.00    +0.000 A 
ATOM      4  C   UNL     1       1.254  11.640  19.894  0.00  0.00    +0.000 A 
ATOM      5  C   UNL     1       0.616  10.445  19.494  0.00  0.00    +0.000 A 
ATOM      6  C   UNL     1      -0.720  10.516  19.064  0.00  0.00    +0.000 A 
ENDROOT
BRANCH   1  11
ATOM      7  N   UNL     1      -6.818  11.906  17.271  0.00  0.00    +0.000 N 
ATOM      8  C   UNL     1      -5.478  11.851  17.706  0.00  0.00    +0.000 A 
ATOM      9  N   UNL     1      -4.505  11.404  16.871  0.00  0.00    +0.000 NA
ATOM     10  C   UNL     1      -3.204  11.361  17.262  0.00  0.00    +0.000 A 
ATOM     11  C   UNL     1      -2.840  11.767  18.557  0.00  0.00    +0.000 A 
ATOM     12  C   UNL     1      -3.872  12.215  19.402  0.00  0.00    +0.000 A 
ATOM     13  N   UNL     1      -5.154  12.255  18.960  0.00  0.00    +0.000 NA
ATOM     14  H   UNL     1      -7.070  11.594  16.321  0.00  0.00    +0.000 HD
ATOM     15  H   UNL     1      -7.551  12.265  17.897  0.00  0.00    +0.000 HD
ENDBRANCH   1  11
BRANCH   5  16
ATOM     16  N   UNL     1       1.253   9.158  19.471  0.00  0.00    +0.000 N 
ATOM     17  C   UNL     1       1.986   8.622  18.446  0.00  0.00    +0.000 C 
ATOM     18  O   UNL     1       2.208   9.275  17.441  0.00  0.00    +0.000 OA
ATOM     19  H   UNL     1       1.154   8.611  20.335  0.00  0.00    +0.000 HD
BRANCH  17  20
ATOM     20  C   UNL     1       2.577   7.244  18.528  0.00  0.00    +0.000 A 
ATOM     21  C   UNL     1       3.519   6.750  17.595  0.00  0.00    +0.000 A 
ATOM     22  C   UNL     1       4.039   5.458  17.722  0.00  0.00    +0.000 A 
ATOM     23 BR   UNL     1       5.314   4.813  16.453  0.00  0.00    +0.000 Br
ATOM     24  C   UNL     1       3.630   4.637  18.776  0.00  0.00    +0.000 A 
ATOM     25  C   UNL     1       2.702   5.107  19.705  0.00  0.00    +0.000 A 
ATOM     26 BR   UNL     1       2.144   3.987  21.147  0.00  0.00    +0.000 Br
ATOM     27  C   UNL     1       2.185   6.401  19.586  0.00  0.00    +0.000 A 
ENDBRANCH  17  20
ENDBRANCH   5  16
TORSDOF 3
ENDMDL
