MODEL 1
REMARK VINA RESULT:      -6.4      0.000      0.000
REMARK  Name = 
REMARK  9 active torsions:
REMARK  status: ('A' for Active; 'I' for Inactive)
REMARK    1  A    between atoms: C_2  and  O_3
REMARK    2  A    between atoms: C_2  and  C_4
REMARK    3  A    between atoms: C_4  and  C_5
REMARK    4  A    between atoms: C_5  and  O_6
REMARK    5  A    between atoms: C_5  and  C_7
REMARK    6  A    between atoms: C_7  and  C_8
REMARK    7  A    between atoms: C_8  and  C_10
REMARK    8  A    between atoms: C_10  and  C_11
REMARK    9  A    between atoms: C_11  and  C_12
REMARK                            x       y       z     vdW  Elec       q    Type
REMARK                         _______ _______ _______ _____ _____    ______ ____
ROOT
ATOM      1  C   UNL     1       6.756   5.509  19.176  0.00  0.00    +0.000 C 
ATOM      2  O   UNL     1       7.672   5.403  19.996  0.00  0.00    +0.000 OA
ENDROOT
BRANCH   1   3
ATOM      3  C   UNL     1       6.889   6.471  18.009  0.00  0.00    +0.000 C 
BRANCH   3   4
ATOM      4  C   UNL     1       7.228   5.765  16.696  0.00  0.00    +0.000 C 
BRANCH   4   5
ATOM      5  O   UNL     1       7.923   4.544  16.971  0.00  0.00    +0.000 OA
ATOM      6  H   UNL     1       8.371   4.615  17.833  0.00  0.00    +0.000 HD
ENDBRANCH   4   5
BRANCH   4   7
ATOM      7  C   UNL     1       5.987   5.411  15.876  0.00  0.00    +0.000 C 
BRANCH   7   9
ATOM      8  O   UNL     1       6.478   3.742  14.200  0.00  0.00    +0.000 OA
ATOM      9  C   UNL     1       6.062   4.017  15.315  0.00  0.00    +0.000 C 
BRANCH   9  10
ATOM     10  O   UNL     1       5.625   3.075  16.179  0.00  0.00    +0.000 OA
ATOM     11  H   UNL     1       4.729   3.230  16.535  0.00  0.00    +0.000 HD
ENDBRANCH   9  10
ENDBRANCH   7   9
ENDBRANCH   4   7
ENDBRANCH   3   4
ENDBRANCH   1   3
BRANCH   1  12
ATOM     12  C   UNL     1       5.513   4.647  19.287  0.00  0.00    +0.000 C 
BRANCH  12  13
ATOM     13  C   UNL     1       4.244   5.486  19.208  0.00  0.00    +0.000 C 
BRANCH  13  14
ATOM     14  C   UNL     1       3.001   4.650  19.359  0.00  0.00    +0.000 A 
ATOM     15  C   UNL     1       2.433   4.021  18.243  0.00  0.00    +0.000 A 
ATOM     16  C   UNL     1       1.289   3.237  18.380  0.00  0.00    +0.000 A 
ATOM     17  C   UNL     1       0.700   3.076  19.634  0.00  0.00    +0.000 A 
ATOM     18  C   UNL     1       1.252   3.705  20.747  0.00  0.00    +0.000 A 
ATOM     19  C   UNL     1       2.398   4.491  20.613  0.00  0.00    +0.000 A 
ENDBRANCH  13  14
ENDBRANCH  12  13
ENDBRANCH   1  12
TORSDOF 9
ENDMDL
MODEL 2
REMARK VINA RESULT:      -6.2      1.609      3.306
REMARK  Name = 
REMARK  9 active torsions:
REMARK  status: ('A' for Active; 'I' for Inactive)
REMARK    1  A    between atoms: C_2  and  O_3
REMARK    2  A    between atoms: C_2  and  C_4
REMARK    3  A    between atoms: C_4  and  C_5
REMARK    4  A    between atoms: C_5  and  O_6
REMARK    5  A    between atoms: C_5  and  C_7
REMARK    6  A    between atoms: C_7  and  C_8
REMARK    7  A    between atoms: C_8  and  C_10
REMARK    8  A    between atoms: C_10  and  C_11
REMARK    9  A    between atoms: C_11  and  C_12
REMARK                            x       y       z     vdW  Elec       q    Type
REMARK                         _______ _______ _______ _____ _____    ______ ____
ROOT
ATOM      1  C   UNL     1       4.934   4.721  16.144  0.00  0.00    +0.000 C 
ATOM      2  O   UNL     1       4.930   5.779  15.511  0.00  0.00    +0.000 OA
ENDROOT
BRANCH   1   3
ATOM      3  C   UNL     1       6.235   3.965  16.354  0.00  0.00    +0.000 C 
BRANCH   3   4
ATOM      4  C   UNL     1       7.273   4.779  17.126  0.00  0.00    +0.000 C 
BRANCH   4   5
ATOM      5  O   UNL     1       7.575   5.980  16.409  0.00  0.00    +0.000 OA
ATOM      6  H   UNL     1       8.401   5.857  15.908  0.00  0.00    +0.000 HD
ENDBRANCH   4   5
BRANCH   4   7
ATOM      7  C   UNL     1       6.790   5.186  18.519  0.00  0.00    +0.000 C 
BRANCH   7   9
ATOM      8  O   UNL     1       8.357   6.993  18.855  0.00  0.00    +0.000 OA
ATOM      9  C   UNL     1       7.832   5.972  19.268  0.00  0.00    +0.000 C 
BRANCH   9  10
ATOM     10  O   UNL     1       8.134   5.436  20.471  0.00  0.00    +0.000 OA
ATOM     11  H   UNL     1       7.431   4.881  20.860  0.00  0.00    +0.000 HD
ENDBRANCH   9  10
ENDBRANCH   7   9
ENDBRANCH   4   7
ENDBRANCH   3   4
ENDBRANCH   1   3
BRANCH   1  12
ATOM     12  C   UNL     1       3.659   4.185  16.767  0.00  0.00    +0.000 C 
BRANCH  12  13
ATOM     13  C   UNL     1       3.945   3.029  17.717  0.00  0.00    +0.000 C 
BRANCH  13  14
ATOM     14  C   UNL     1       3.039   3.045  18.919  0.00  0.00    +0.000 A 
ATOM     15  C   UNL     1       1.689   3.393  18.781  0.00  0.00    +0.000 A 
ATOM     16  C   UNL     1       0.844   3.398  19.890  0.00  0.00    +0.000 A 
ATOM     17  C   UNL     1       1.340   3.056  21.147  0.00  0.00    +0.000 A 
ATOM     18  C   UNL     1       2.683   2.718  21.296  0.00  0.00    +0.000 A 
ATOM     19  C   UNL     1       3.533   2.712  20.187  0.00  0.00    +0.000 A 
ENDBRANCH  13  14
ENDBRANCH  12  13
ENDBRANCH   1  12
TORSDOF 9
ENDMDL
MODEL 3
REMARK VINA RESULT:      -6.2      3.010      6.128
REMARK  Name = 
REMARK  9 active torsions:
REMARK  status: ('A' for Active; 'I' for Inactive)
REMARK    1  A    between atoms: C_2  and  O_3
REMARK    2  A    between atoms: C_2  and  C_4
REMARK    3  A    between atoms: C_4  and  C_5
REMARK    4  A    between atoms: C_5  and  O_6
REMARK    5  A    between atoms: C_5  and  C_7
REMARK    6  A    between atoms: C_7  and  C_8
REMARK    7  A    between atoms: C_8  and  C_10
REMARK    8  A    between atoms: C_10  and  C_11
REMARK    9  A    between atoms: C_11  and  C_12
REMARK                            x       y       z     vdW  Elec       q    Type
REMARK                         _______ _______ _______ _____ _____    ______ ____
ROOT
ATOM      1  C   UNL     1       2.357   4.016  17.598  0.00  0.00    +0.000 C 
ATOM      2  O   UNL     1       1.146   4.195  17.449  0.00  0.00    +0.000 OA
ENDROOT
BRANCH   1   3
ATOM      3  C   UNL     1       2.906   2.606  17.735  0.00  0.00    +0.000 C 
BRANCH   3   4
ATOM      4  C   UNL     1       3.172   2.215  19.188  0.00  0.00    +0.000 C 
BRANCH   4   5
ATOM      5  O   UNL     1       4.570   1.975  19.375  0.00  0.00    +0.000 OA
ATOM      6  H   UNL     1       4.706   1.049  19.645  0.00  0.00    +0.000 HD
ENDBRANCH   4   5
BRANCH   4   7
ATOM      7  C   UNL     1       2.755   3.301  20.180  0.00  0.00    +0.000 C 
BRANCH   7   9
ATOM      8  O   UNL     1       1.577   2.532  22.144  0.00  0.00    +0.000 OA
ATOM      9  C   UNL     1       1.546   2.899  20.980  0.00  0.00    +0.000 C 
BRANCH   9  10
ATOM     10  O   UNL     1       0.394   2.991  20.279  0.00  0.00    +0.000 OA
ATOM     11  H   UNL     1       0.509   3.174  19.327  0.00  0.00    +0.000 HD
ENDBRANCH   9  10
ENDBRANCH   7   9
ENDBRANCH   4   7
ENDBRANCH   3   4
ENDBRANCH   1   3
BRANCH   1  12
ATOM     12  C   UNL     1       3.321   5.187  17.592  0.00  0.00    +0.000 C 
BRANCH  12  13
ATOM     13  C   UNL     1       4.622   4.836  16.881  0.00  0.00    +0.000 C 
BRANCH  13  14
ATOM     14  C   UNL     1       5.805   5.550  17.477  0.00  0.00    +0.000 A 
ATOM     15  C   UNL     1       6.452   5.026  18.605  0.00  0.00    +0.000 A 
ATOM     16  C   UNL     1       7.555   5.678  19.153  0.00  0.00    +0.000 A 
ATOM     17  C   UNL     1       8.022   6.860  18.581  0.00  0.00    +0.000 A 
ATOM     18  C   UNL     1       7.381   7.394  17.466  0.00  0.00    +0.000 A 
ATOM     19  C   UNL     1       6.274   6.743  16.914  0.00  0.00    +0.000 A 
ENDBRANCH  13  14
ENDBRANCH  12  13
ENDBRANCH   1  12
TORSDOF 9
ENDMDL
MODEL 4
REMARK VINA RESULT:      -6.2      1.932      3.011
REMARK  Name = 
REMARK  9 active torsions:
REMARK  status: ('A' for Active; 'I' for Inactive)
REMARK    1  A    between atoms: C_2  and  O_3
REMARK    2  A    between atoms: C_2  and  C_4
REMARK    3  A    between atoms: C_4  and  C_5
REMARK    4  A    between atoms: C_5  and  O_6
REMARK    5  A    between atoms: C_5  and  C_7
REMARK    6  A    between atoms: C_7  and  C_8
REMARK    7  A    between atoms: C_8  and  C_10
REMARK    8  A    between atoms: C_10  and  C_11
REMARK    9  A    between atoms: C_11  and  C_12
REMARK                            x       y       z     vdW  Elec       q    Type
REMARK                         _______ _______ _______ _____ _____    ______ ____
ROOT
ATOM      1  C   UNL     1       6.745   4.540  16.241  0.00  0.00    +0.000 C 
ATOM      2  O   UNL     1       7.892   4.347  16.650  0.00  0.00    +0.000 OA
ENDROOT
BRANCH   1   3
ATOM      3  C   UNL     1       6.263   3.853  14.976  0.00  0.00    +0.000 C 
BRANCH   3   4
ATOM      4  C   UNL     1       6.577   4.653  13.712  0.00  0.00    +0.000 C 
BRANCH   4   5
ATOM      5  O   UNL     1       7.724   5.480  13.937  0.00  0.00    +0.000 OA
ATOM      6  H   UNL     1       7.942   5.477  14.887  0.00  0.00    +0.000 HD
ENDBRANCH   4   5
BRANCH   4   7
ATOM      7  C   UNL     1       6.884   3.762  12.508  0.00  0.00    +0.000 C 
BRANCH   7   9
ATOM      8  O   UNL     1       4.552   3.491  11.939  0.00  0.00    +0.000 OA
ATOM      9  C   UNL     1       5.667   3.007  12.043  0.00  0.00    +0.000 C 
BRANCH   9  10
ATOM     10  O   UNL     1       5.931   1.718  11.736  0.00  0.00    +0.000 OA
ATOM     11  H   UNL     1       5.277   1.297  11.145  0.00  0.00    +0.000 HD
ENDBRANCH   9  10
ENDBRANCH   7   9
ENDBRANCH   4   7
ENDBRANCH   3   4
ENDBRANCH   1   3
BRANCH   1  12
ATOM     12  C   UNL     1       5.782   5.418  17.018  0.00  0.00    +0.000 C 
BRANCH  12  13
ATOM     13  C   UNL     1       5.396   4.783  18.348  0.00  0.00    +0.000 C 
BRANCH  13  14
ATOM     14  C   UNL     1       4.051   4.111  18.286  0.00  0.00    +0.000 A 
ATOM     15  C   UNL     1       3.915   2.767  18.658  0.00  0.00    +0.000 A 
ATOM     16  C   UNL     1       2.668   2.144  18.613  0.00  0.00    +0.000 A 
ATOM     17  C   UNL     1       1.546   2.858  18.196  0.00  0.00    +0.000 A 
ATOM     18  C   UNL     1       1.673   4.192  17.816  0.00  0.00    +0.000 A 
ATOM     19  C   UNL     1       2.920   4.819  17.859  0.00  0.00    +0.000 A 
ENDBRANCH  13  14
ENDBRANCH  12  13
ENDBRANCH   1  12
TORSDOF 9
ENDMDL
MODEL 5
REMARK VINA RESULT:      -6.1      1.654      2.489
REMARK  Name = 
REMARK  9 active torsions:
REMARK  status: ('A' for Active; 'I' for Inactive)
REMARK    1  A    between atoms: C_2  and  O_3
REMARK    2  A    between atoms: C_2  and  C_4
REMARK    3  A    between atoms: C_4  and  C_5
REMARK    4  A    between atoms: C_5  and  O_6
REMARK    5  A    between atoms: C_5  and  C_7
REMARK    6  A    between atoms: C_7  and  C_8
REMARK    7  A    between atoms: C_8  and  C_10
REMARK    8  A    between atoms: C_10  and  C_11
REMARK    9  A    between atoms: C_11  and  C_12
REMARK                            x       y       z     vdW  Elec       q    Type
REMARK                         _______ _______ _______ _____ _____    ______ ____
ROOT
ATOM      1  C   UNL     1       4.747   6.049  17.098  0.00  0.00    +0.000 C 
ATOM      2  O   UNL     1       4.790   6.752  16.085  0.00  0.00    +0.000 OA
ENDROOT
BRANCH   1   3
ATOM      3  C   UNL     1       5.506   4.735  17.144  0.00  0.00    +0.000 C 
BRANCH   3   4
ATOM      4  C   UNL     1       6.675   4.692  16.160  0.00  0.00    +0.000 C 
BRANCH   4   5
ATOM      5  O   UNL     1       7.822   4.121  16.798  0.00  0.00    +0.000 OA
ATOM      6  H   UNL     1       7.928   4.514  17.684  0.00  0.00    +0.000 HD
ENDBRANCH   4   5
BRANCH   4   7
ATOM      7  C   UNL     1       6.374   3.852  14.919  0.00  0.00    +0.000 C 
BRANCH   7   9
ATOM      8  O   UNL     1       6.768   4.047  12.543  0.00  0.00    +0.000 OA
ATOM      9  C   UNL     1       6.985   4.444  13.677  0.00  0.00    +0.000 C 
BRANCH   9  10
ATOM     10  O   UNL     1       7.807   5.484  13.937  0.00  0.00    +0.000 OA
ATOM     11  H   UNL     1       8.430   5.338  14.674  0.00  0.00    +0.000 HD
ENDBRANCH   9  10
ENDBRANCH   7   9
ENDBRANCH   4   7
ENDBRANCH   3   4
ENDBRANCH   1   3
BRANCH   1  12
ATOM     12  C   UNL     1       3.986   6.508  18.328  0.00  0.00    +0.000 C 
BRANCH  12  13
ATOM     13  C   UNL     1       2.482   6.348  18.145  0.00  0.00    +0.000 C 
BRANCH  13  14
ATOM     14  C   UNL     1       1.963   5.088  18.784  0.00  0.00    +0.000 A 
ATOM     15  C   UNL     1       1.861   4.995  20.179  0.00  0.00    +0.000 A 
ATOM     16  C   UNL     1       1.370   3.835  20.775  0.00  0.00    +0.000 A 
ATOM     17  C   UNL     1       0.978   2.756  19.984  0.00  0.00    +0.000 A 
ATOM     18  C   UNL     1       1.085   2.835  18.597  0.00  0.00    +0.000 A 
ATOM     19  C   UNL     1       1.577   3.997  17.997  0.00  0.00    +0.000 A 
ENDBRANCH  13  14
ENDBRANCH  12  13
ENDBRANCH   1  12
TORSDOF 9
ENDMDL
MODEL 6
REMARK VINA RESULT:      -6.1      1.153      1.789
REMARK  Name = 
REMARK  9 active torsions:
REMARK  status: ('A' for Active; 'I' for Inactive)
REMARK    1  A    between atoms: C_2  and  O_3
REMARK    2  A    between atoms: C_2  and  C_4
REMARK    3  A    between atoms: C_4  and  C_5
REMARK    4  A    between atoms: C_5  and  O_6
REMARK    5  A    between atoms: C_5  and  C_7
REMARK    6  A    between atoms: C_7  and  C_8
REMARK    7  A    between atoms: C_8  and  C_10
REMARK    8  A    between atoms: C_10  and  C_11
REMARK    9  A    between atoms: C_11  and  C_12
REMARK                            x       y       z     vdW  Elec       q    Type
REMARK                         _______ _______ _______ _____ _____    ______ ____
ROOT
ATOM      1  C   UNL     1       5.843   5.838  18.303  0.00  0.00    +0.000 C 
ATOM      2  O   UNL     1       6.170   5.207  19.311  0.00  0.00    +0.000 OA
ENDROOT
BRANCH   1   3
ATOM      3  C   UNL     1       6.899   6.282  17.307  0.00  0.00    +0.000 C 
BRANCH   3   4
ATOM      4  C   UNL     1       7.457   5.123  16.481  0.00  0.00    +0.000 C 
BRANCH   4   5
ATOM      5  O   UNL     1       8.042   4.148  17.350  0.00  0.00    +0.000 OA
ATOM      6  H   UNL     1       7.724   3.262  17.101  0.00  0.00    +0.000 HD
ENDBRANCH   4   5
BRANCH   4   7
ATOM      7  C   UNL     1       6.384   4.415  15.653  0.00  0.00    +0.000 C 
BRANCH   7   9
ATOM      8  O   UNL     1       6.188   3.699  13.355  0.00  0.00    +0.000 OA
ATOM      9  C   UNL     1       6.705   4.431  14.183  0.00  0.00    +0.000 C 
BRANCH   9  10
ATOM     10  O   UNL     1       7.634   5.355  13.856  0.00  0.00    +0.000 OA
ATOM     11  H   UNL     1       8.404   5.006  13.367  0.00  0.00    +0.000 HD
ENDBRANCH   9  10
ENDBRANCH   7   9
ENDBRANCH   4   7
ENDBRANCH   3   4
ENDBRANCH   1   3
BRANCH   1  12
ATOM     12  C   UNL     1       4.383   6.132  18.013  0.00  0.00    +0.000 C 
BRANCH  12  13
ATOM     13  C   UNL     1       3.523   5.967  19.259  0.00  0.00    +0.000 C 
BRANCH  13  14
ATOM     14  C   UNL     1       2.621   4.765  19.171  0.00  0.00    +0.000 A 
ATOM     15  C   UNL     1       1.668   4.522  20.168  0.00  0.00    +0.000 A 
ATOM     16  C   UNL     1       0.823   3.416  20.084  0.00  0.00    +0.000 A 
ATOM     17  C   UNL     1       0.924   2.542  19.004  0.00  0.00    +0.000 A 
ATOM     18  C   UNL     1       1.875   2.769  18.011  0.00  0.00    +0.000 A 
ATOM     19  C   UNL     1       2.723   3.876  18.093  0.00  0.00    +0.000 A 
ENDBRANCH  13  14
ENDBRANCH  12  13
ENDBRANCH   1  12
TORSDOF 9
ENDMDL
MODEL 7
REMARK VINA RESULT:      -6.0      1.566      2.274
REMARK  Name = 
REMARK  9 active torsions:
REMARK  status: ('A' for Active; 'I' for Inactive)
REMARK    1  A    between atoms: C_2  and  O_3
REMARK    2  A    between atoms: C_2  and  C_4
REMARK    3  A    between atoms: C_4  and  C_5
REMARK    4  A    between atoms: C_5  and  O_6
REMARK    5  A    between atoms: C_5  and  C_7
REMARK    6  A    between atoms: C_7  and  C_8
REMARK    7  A    between atoms: C_8  and  C_10
REMARK    8  A    between atoms: C_10  and  C_11
REMARK    9  A    between atoms: C_11  and  C_12
REMARK                            x       y       z     vdW  Elec       q    Type
REMARK                         _______ _______ _______ _____ _____    ______ ____
ROOT
ATOM      1  C   UNL     1       6.417   4.743  16.988  0.00  0.00    +0.000 C 
ATOM      2  O   UNL     1       7.625   4.495  17.000  0.00  0.00    +0.000 OA
ENDROOT
BRANCH   1   3
ATOM      3  C   UNL     1       5.831   5.621  15.897  0.00  0.00    +0.000 C 
BRANCH   3   4
ATOM      4  C   UNL     1       6.377   5.282  14.510  0.00  0.00    +0.000 C 
BRANCH   4   5
ATOM      5  O   UNL     1       7.795   5.475  14.489  0.00  0.00    +0.000 OA
ATOM      6  H   UNL     1       8.009   6.341  14.880  0.00  0.00    +0.000 HD
ENDBRANCH   4   5
BRANCH   4   7
ATOM      7  C   UNL     1       6.104   3.833  14.104  0.00  0.00    +0.000 C 
BRANCH   7   9
ATOM      8  O   UNL     1       7.192   4.048  11.958  0.00  0.00    +0.000 OA
ATOM      9  C   UNL     1       6.258   3.626  12.621  0.00  0.00    +0.000 C 
BRANCH   9  10
ATOM     10  O   UNL     1       5.250   2.908  12.080  0.00  0.00    +0.000 OA
ATOM     11  H   UNL     1       4.762   2.347  12.713  0.00  0.00    +0.000 HD
ENDBRANCH   9  10
ENDBRANCH   7   9
ENDBRANCH   4   7
ENDBRANCH   3   4
ENDBRANCH   1   3
BRANCH   1  12
ATOM     12  C   UNL     1       5.491   4.135  18.026  0.00  0.00    +0.000 C 
BRANCH  12  13
ATOM     13  C   UNL     1       4.270   3.497  17.377  0.00  0.00    +0.000 C 
BRANCH  13  14
ATOM     14  C   UNL     1       3.084   3.472  18.304  0.00  0.00    +0.000 A 
ATOM     15  C   UNL     1       2.001   2.622  18.042  0.00  0.00    +0.000 A 
ATOM     16  C   UNL     1       0.906   2.587  18.904  0.00  0.00    +0.000 A 
ATOM     17  C   UNL     1       0.882   3.401  20.035  0.00  0.00    +0.000 A 
ATOM     18  C   UNL     1       1.950   4.255  20.300  0.00  0.00    +0.000 A 
ATOM     19  C   UNL     1       3.048   4.294  19.438  0.00  0.00    +0.000 A 
ENDBRANCH  13  14
ENDBRANCH  12  13
ENDBRANCH   1  12
TORSDOF 9
ENDMDL
MODEL 8
REMARK VINA RESULT:      -6.0      1.883      3.381
REMARK  Name = 
REMARK  9 active torsions:
REMARK  status: ('A' for Active; 'I' for Inactive)
REMARK    1  A    between atoms: C_2  and  O_3
REMARK    2  A    between atoms: C_2  and  C_4
REMARK    3  A    between atoms: C_4  and  C_5
REMARK    4  A    between atoms: C_5  and  O_6
REMARK    5  A    between atoms: C_5  and  C_7
REMARK    6  A    between atoms: C_7  and  C_8
REMARK    7  A    between atoms: C_8  and  C_10
REMARK    8  A    between atoms: C_10  and  C_11
REMARK    9  A    between atoms: C_11  and  C_12
REMARK                            x       y       z     vdW  Elec       q    Type
REMARK                         _______ _______ _______ _____ _____    ______ ____
ROOT
ATOM      1  C   UNL     1       3.763   5.267  17.642  0.00  0.00    +0.000 C 
ATOM      2  O   UNL     1       2.730   5.902  17.871  0.00  0.00    +0.000 OA
ENDROOT
BRANCH   1   3
ATOM      3  C   UNL     1       5.096   5.771  18.165  0.00  0.00    +0.000 C 
BRANCH   3   4
ATOM      4  C   UNL     1       6.265   5.406  17.250  0.00  0.00    +0.000 C 
BRANCH   4   5
ATOM      5  O   UNL     1       6.656   6.551  16.485  0.00  0.00    +0.000 OA
ATOM      6  H   UNL     1       6.391   7.360  16.959  0.00  0.00    +0.000 HD
ENDBRANCH   4   5
BRANCH   4   7
ATOM      7  C   UNL     1       7.496   4.929  18.023  0.00  0.00    +0.000 C 
BRANCH   7   9
ATOM      8  O   UNL     1       8.281   7.086  18.776  0.00  0.00    +0.000 OA
ATOM      9  C   UNL     1       7.948   5.942  19.040  0.00  0.00    +0.000 C 
BRANCH   9  10
ATOM     10  O   UNL     1       7.944   5.461  20.302  0.00  0.00    +0.000 OA
ATOM     11  H   UNL     1       8.303   6.072  20.974  0.00  0.00    +0.000 HD
ENDBRANCH   9  10
ENDBRANCH   7   9
ENDBRANCH   4   7
ENDBRANCH   3   4
ENDBRANCH   1   3
BRANCH   1  12
ATOM     12  C   UNL     1       3.713   3.952  16.887  0.00  0.00    +0.000 C 
BRANCH  12  13
ATOM     13  C   UNL     1       3.903   2.764  17.822  0.00  0.00    +0.000 C 
BRANCH  13  14
ATOM     14  C   UNL     1       2.956   2.806  18.991  0.00  0.00    +0.000 A 
ATOM     15  C   UNL     1       3.452   2.787  20.302  0.00  0.00    +0.000 A 
ATOM     16  C   UNL     1       2.579   2.838  21.388  0.00  0.00    +0.000 A 
ATOM     17  C   UNL     1       1.203   2.906  21.174  0.00  0.00    +0.000 A 
ATOM     18  C   UNL     1       0.700   2.916  19.876  0.00  0.00    +0.000 A 
ATOM     19  C   UNL     1       1.572   2.866  18.785  0.00  0.00    +0.000 A 
ENDBRANCH  13  14
ENDBRANCH  12  13
ENDBRANCH   1  12
TORSDOF 9
ENDMDL
MODEL 9
REMARK VINA RESULT:      -6.0      1.256      1.571
REMARK  Name = 
REMARK  9 active torsions:
REMARK  status: ('A' for Active; 'I' for Inactive)
REMARK    1  A    between atoms: C_2  and  O_3
REMARK    2  A    between atoms: C_2  and  C_4
REMARK    3  A    between atoms: C_4  and  C_5
REMARK    4  A    between atoms: C_5  and  O_6
REMARK    5  A    between atoms: C_5  and  C_7
REMARK    6  A    between atoms: C_7  and  C_8
REMARK    7  A    between atoms: C_8  and  C_10
REMARK    8  A    between atoms: C_10  and  C_11
REMARK    9  A    between atoms: C_11  and  C_12
REMARK                            x       y       z     vdW  Elec       q    Type
REMARK                         _______ _______ _______ _____ _____    ______ ____
ROOT
ATOM      1  C   UNL     1       5.454   5.954  18.031  0.00  0.00    +0.000 C 
ATOM      2  O   UNL     1       5.618   5.460  19.149  0.00  0.00    +0.000 OA
ENDROOT
BRANCH   1   3
ATOM      3  C   UNL     1       6.633   6.106  17.087  0.00  0.00    +0.000 C 
BRANCH   3   4
ATOM      4  C   UNL     1       7.123   4.768  16.534  0.00  0.00    +0.000 C 
BRANCH   4   5
ATOM      5  O   UNL     1       6.206   3.731  16.896  0.00  0.00    +0.000 OA
ATOM      6  H   UNL     1       5.852   3.317  16.088  0.00  0.00    +0.000 HD
ENDBRANCH   4   5
BRANCH   4   7
ATOM      7  C   UNL     1       7.242   4.765  15.009  0.00  0.00    +0.000 C 
BRANCH   7   9
ATOM      8  O   UNL     1       4.878   4.433  14.638  0.00  0.00    +0.000 OA
ATOM      9  C   UNL     1       6.032   4.156  14.353  0.00  0.00    +0.000 C 
BRANCH   9  10
ATOM     10  O   UNL     1       6.347   3.262  13.391  0.00  0.00    +0.000 OA
ATOM     11  H   UNL     1       5.636   3.090  12.744  0.00  0.00    +0.000 HD
ENDBRANCH   9  10
ENDBRANCH   7   9
ENDBRANCH   4   7
ENDBRANCH   3   4
ENDBRANCH   1   3
BRANCH   1  12
ATOM     12  C   UNL     1       4.071   6.366  17.561  0.00  0.00    +0.000 C 
BRANCH  12  13
ATOM     13  C   UNL     1       3.115   6.551  18.733  0.00  0.00    +0.000 C 
BRANCH  13  14
ATOM     14  C   UNL     1       2.323   5.304  19.020  0.00  0.00    +0.000 A 
ATOM     15  C   UNL     1       2.066   4.379  17.999  0.00  0.00    +0.000 A 
ATOM     16  C   UNL     1       1.342   3.218  18.263  0.00  0.00    +0.000 A 
ATOM     17  C   UNL     1       0.867   2.970  19.550  0.00  0.00    +0.000 A 
ATOM     18  C   UNL     1       1.109   3.887  20.570  0.00  0.00    +0.000 A 
ATOM     19  C   UNL     1       1.834   5.052  20.308  0.00  0.00    +0.000 A 
ENDBRANCH  13  14
ENDBRANCH  12  13
ENDBRANCH   1  12
TORSDOF 9
ENDMDL
