MODEL 1
REMARK VINA RESULT:      -8.7      0.000      0.000
REMARK  Name = 
REMARK  8 active torsions:
REMARK  status: ('A' for Active; 'I' for Inactive)
REMARK    1  A    between atoms: C_1  and  N_2
REMARK    2  A    between atoms: N_2  and  C_3
REMARK    3  A    between atoms: C_3  and  C_4
REMARK    4  A    between atoms: C_3  and  C_5
REMARK    5  A    between atoms: C_10  and  C_11
REMARK    6  A    between atoms: C_19  and  C_20
REMARK    7  A    between atoms: C_23  and  N_24
REMARK    8  A    between atoms: C_25  and  C_27
REMARK                            x       y       z     vdW  Elec       q    Type
REMARK                         _______ _______ _______ _____ _____    ______ ____
ROOT
ATOM      1  C   UNL     1       7.074   4.575  13.358  0.00  0.00    +0.000 C 
ATOM      2  O   UNL     1       7.802   5.581  13.351  0.00  0.00    +0.000 OA
ATOM      3  N   UNL     1       6.452   4.016  14.470  0.00  0.00    +0.000 N 
ATOM      4  C   UNL     1       6.414   4.595  15.744  0.00  0.00    +0.000 A 
ATOM      5  C   UNL     1       5.725   3.929  16.766  0.00  0.00    +0.000 A 
ATOM      6  C   UNL     1       5.484   4.538  18.041  0.00  0.00    +0.000 A 
ATOM      7  C   UNL     1       5.953   5.840  18.183  0.00  0.00    +0.000 A 
ATOM      8  C   UNL     1       6.703   6.409  17.157  0.00  0.00    +0.000 A 
ATOM      9  N   UNL     1       6.980   5.780  15.983  0.00  0.00    +0.000 NA
ATOM     10  H   UNL     1       5.930   3.156  14.309  0.00  0.00    +0.000 HD
ENDROOT
BRANCH   6  11
ATOM     11  C   UNL     1       4.626   3.830  19.040  0.00  0.00    +0.000 A 
ATOM     12  N   UNL     1       5.301   2.705  19.448  0.00  0.00    +0.000 NA
ATOM     13  C   UNL     1       4.776   1.900  20.374  0.00  0.00    +0.000 A 
ATOM     14  C   UNL     1       3.619   2.197  21.030  0.00  0.00    +0.000 A 
ATOM     15  C   UNL     1       2.897   3.309  20.608  0.00  0.00    +0.000 A 
ATOM     16  C   UNL     1       1.705   3.527  21.292  0.00  0.00    +0.000 A 
ATOM     17  C   UNL     1       0.616   4.056  20.648  0.00  0.00    +0.000 A 
ATOM     18  C   UNL     1       0.898   4.891  19.595  0.00  0.00    +0.000 A 
ATOM     19  C   UNL     1       2.243   5.095  19.170  0.00  0.00    +0.000 A 
ATOM     20  C   UNL     1       2.443   6.441  18.533  0.00  0.00    +0.000 C 
ATOM     21  C   UNL     1       3.286   4.137  19.524  0.00  0.00    +0.000 A 
ENDBRANCH   6  11
BRANCH   8  22
ATOM     22  N   UNL     1       7.223   7.706  17.239  0.00  0.00    +0.000 N 
ATOM     23  C   UNL     1       8.149   8.102  18.179  0.00  0.00    +0.000 C 
ATOM     24  O   UNL     1       8.595   7.383  19.066  0.00  0.00    +0.000 OA
ATOM     25  H   UNL     1       6.645   8.422  16.823  0.00  0.00    +0.000 HD
BRANCH  23  26
ATOM     26  C   UNL     1       8.537   9.540  18.122  0.00  0.00    +0.000 A 
ATOM     27  C   UNL     1       7.755  10.435  17.372  0.00  0.00    +0.000 A 
ATOM     28  C   UNL     1       8.069  11.779  17.435  0.00  0.00    +0.000 A 
ATOM     29  C   UNL     1       9.116  12.204  18.244  0.00  0.00    +0.000 A 
ATOM     30 CL   UNL     1       9.474  13.874  18.400  0.00  0.00    +0.000 Cl
ATOM     31  C   UNL     1       9.849  11.246  18.934  0.00  0.00    +0.000 A 
ATOM     32  N   UNL     1       9.595   9.915  18.891  0.00  0.00    +0.000 NA
ENDBRANCH  23  26
ENDBRANCH   8  22
BRANCH   1  33
ATOM     33  C   UNL     1       6.793   3.846  12.015  0.00  0.00    +0.000 C 
ATOM     34  C   UNL     1       5.287   3.554  11.880  0.00  0.00    +0.000 C 
BRANCH  33  36
ATOM     35  C   UNL     1       7.010   1.671  10.936  0.00  0.00    +0.000 C 
ATOM     36  N   UNL     1       7.621   2.619  11.877  0.00  0.00    +0.000 NA
ATOM     37  H   UNL     1       8.508   2.913  11.473  0.00  0.00    +0.000 HD
ENDBRANCH  33  36
ENDBRANCH   1  33
TORSDOF 5
ENDMDL
MODEL 2
REMARK VINA RESULT:      -8.3      7.698     11.331
REMARK  Name = 
REMARK  8 active torsions:
REMARK  status: ('A' for Active; 'I' for Inactive)
REMARK    1  A    between atoms: C_1  and  N_2
REMARK    2  A    between atoms: N_2  and  C_3
REMARK    3  A    between atoms: C_3  and  C_4
REMARK    4  A    between atoms: C_3  and  C_5
REMARK    5  A    between atoms: C_10  and  C_11
REMARK    6  A    between atoms: C_19  and  C_20
REMARK    7  A    between atoms: C_23  and  N_24
REMARK    8  A    between atoms: C_25  and  C_27
REMARK                            x       y       z     vdW  Elec       q    Type
REMARK                         _______ _______ _______ _____ _____    ______ ____
ROOT
ATOM      1  C   UNL     1      -3.054  10.705  17.307  0.00  0.00    +0.000 C 
ATOM      2  O   UNL     1      -2.856   9.564  17.753  0.00  0.00    +0.000 OA
ATOM      3  N   UNL     1      -2.280  11.834  17.559  0.00  0.00    +0.000 N 
ATOM      4  C   UNL     1      -1.051  11.831  18.229  0.00  0.00    +0.000 A 
ATOM      5  C   UNL     1      -0.367  13.043  18.386  0.00  0.00    +0.000 A 
ATOM      6  C   UNL     1       0.973  13.098  18.893  0.00  0.00    +0.000 A 
ATOM      7  C   UNL     1       1.554  11.869  19.189  0.00  0.00    +0.000 A 
ATOM      8  C   UNL     1       0.787  10.712  19.089  0.00  0.00    +0.000 A 
ATOM      9  N   UNL     1      -0.508  10.695  18.674  0.00  0.00    +0.000 NA
ATOM     10  H   UNL     1      -2.615  12.708  17.156  0.00  0.00    +0.000 HD
ENDROOT
BRANCH   6  11
ATOM     11  C   UNL     1       1.696  14.407  18.909  0.00  0.00    +0.000 A 
ATOM     12  N   UNL     1       2.702  14.340  17.977  0.00  0.00    +0.000 NA
ATOM     13  C   UNL     1       3.489  15.396  17.754  0.00  0.00    +0.000 A 
ATOM     14  C   UNL     1       3.275  16.604  18.347  0.00  0.00    +0.000 A 
ATOM     15  C   UNL     1       2.287  16.687  19.322  0.00  0.00    +0.000 A 
ATOM     16  C   UNL     1       2.154  17.939  19.916  0.00  0.00    +0.000 A 
ATOM     17  C   UNL     1       1.802  18.052  21.236  0.00  0.00    +0.000 A 
ATOM     18  C   UNL     1       1.024  17.036  21.732  0.00  0.00    +0.000 A 
ATOM     19  C   UNL     1       0.702  15.907  20.923  0.00  0.00    +0.000 A 
ATOM     20  C   UNL     1      -0.605  15.278  21.315  0.00  0.00    +0.000 C 
ATOM     21  C   UNL     1       1.506  15.583  19.749  0.00  0.00    +0.000 A 
ENDBRANCH   6  11
BRANCH   8  22
ATOM     22  N   UNL     1       1.299   9.444  19.389  0.00  0.00    +0.000 N 
ATOM     23  C   UNL     1       1.980   8.660  18.484  0.00  0.00    +0.000 C 
ATOM     24  O   UNL     1       2.185   8.961  17.314  0.00  0.00    +0.000 OA
ATOM     25  H   UNL     1       0.852   8.979  20.166  0.00  0.00    +0.000 HD
BRANCH  23  26
ATOM     26  C   UNL     1       2.400   7.323  18.993  0.00  0.00    +0.000 A 
ATOM     27  C   UNL     1       1.836   6.830  20.182  0.00  0.00    +0.000 A 
ATOM     28  C   UNL     1       2.153   5.540  20.563  0.00  0.00    +0.000 A 
ATOM     29  C   UNL     1       2.988   4.771  19.761  0.00  0.00    +0.000 A 
ATOM     30 CL   UNL     1       3.333   3.142  20.173  0.00  0.00    +0.000 Cl
ATOM     31  C   UNL     1       3.518   5.348  18.613  0.00  0.00    +0.000 A 
ATOM     32  N   UNL     1       3.253   6.614  18.205  0.00  0.00    +0.000 NA
ENDBRANCH  23  26
ENDBRANCH   8  22
BRANCH   1  33
ATOM     33  C   UNL     1      -4.267  10.940  16.363  0.00  0.00    +0.000 C 
ATOM     34  C   UNL     1      -3.851  10.686  14.902  0.00  0.00    +0.000 C 
BRANCH  33  36
ATOM     35  C   UNL     1      -5.992  12.244  17.486  0.00  0.00    +0.000 C 
ATOM     36  N   UNL     1      -4.856  12.291  16.556  0.00  0.00    +0.000 NA
ATOM     37  H   UNL     1      -4.134  12.861  16.994  0.00  0.00    +0.000 HD
ENDBRANCH  33  36
ENDBRANCH   1  33
TORSDOF 5
ENDMDL
MODEL 3
REMARK VINA RESULT:      -8.2      8.268     11.093
REMARK  Name = 
REMARK  8 active torsions:
REMARK  status: ('A' for Active; 'I' for Inactive)
REMARK    1  A    between atoms: C_1  and  N_2
REMARK    2  A    between atoms: N_2  and  C_3
REMARK    3  A    between atoms: C_3  and  C_4
REMARK    4  A    between atoms: C_3  and  C_5
REMARK    5  A    between atoms: C_10  and  C_11
REMARK    6  A    between atoms: C_19  and  C_20
REMARK    7  A    between atoms: C_23  and  N_24
REMARK    8  A    between atoms: C_25  and  C_27
REMARK                            x       y       z     vdW  Elec       q    Type
REMARK                         _______ _______ _______ _____ _____    ______ ____
ROOT
ATOM      1  C   UNL     1      -3.085  10.512  17.459  0.00  0.00    +0.000 C 
ATOM      2  O   UNL     1      -2.668   9.343  17.419  0.00  0.00    +0.000 OA
ATOM      3  N   UNL     1      -2.646  11.515  18.318  0.00  0.00    +0.000 N 
ATOM      4  C   UNL     1      -1.542  11.413  19.173  0.00  0.00    +0.000 A 
ATOM      5  C   UNL     1      -1.198  12.516  19.964  0.00  0.00    +0.000 A 
ATOM      6  C   UNL     1       0.017  12.557  20.723  0.00  0.00    +0.000 A 
ATOM      7  C   UNL     1       0.842  11.444  20.597  0.00  0.00    +0.000 A 
ATOM      8  C   UNL     1       0.399  10.349  19.861  0.00  0.00    +0.000 A 
ATOM      9  N   UNL     1      -0.794  10.307  19.209  0.00  0.00    +0.000 NA
ATOM     10  H   UNL     1      -3.134  12.407  18.255  0.00  0.00    +0.000 HD
ENDROOT
BRANCH   6  11
ATOM     11  C   UNL     1       0.391  13.816  21.438  0.00  0.00    +0.000 A 
ATOM     12  N   UNL     1       1.564  14.277  20.890  0.00  0.00    +0.000 NA
ATOM     13  C   UNL     1       2.109  15.416  21.320  0.00  0.00    +0.000 A 
ATOM     14  C   UNL     1       1.493  16.224  22.228  0.00  0.00    +0.000 A 
ATOM     15  C   UNL     1       0.324  15.763  22.826  0.00  0.00    +0.000 A 
ATOM     16  C   UNL     1      -0.225  16.620  23.774  0.00  0.00    +0.000 A 
ATOM     17  C   UNL     1      -0.875  16.120  24.874  0.00  0.00    +0.000 A 
ATOM     18  C   UNL     1      -1.481  14.901  24.702  0.00  0.00    +0.000 A 
ATOM     19  C   UNL     1      -1.344  14.189  23.475  0.00  0.00    +0.000 A 
ATOM     20  C   UNL     1      -2.520  13.295  23.199  0.00  0.00    +0.000 C 
ATOM     21  C   UNL     1      -0.250  14.494  22.559  0.00  0.00    +0.000 A 
ENDBRANCH   6  11
BRANCH   8  22
ATOM     22  N   UNL     1       1.166   9.189  19.707  0.00  0.00    +0.000 N 
ATOM     23  C   UNL     1       1.872   8.883  18.564  0.00  0.00    +0.000 C 
ATOM     24  O   UNL     1       1.882   9.566  17.546  0.00  0.00    +0.000 OA
ATOM     25  H   UNL     1       0.904   8.423  20.312  0.00  0.00    +0.000 HD
BRANCH  23  26
ATOM     26  C   UNL     1       2.585   7.574  18.590  0.00  0.00    +0.000 A 
ATOM     27  C   UNL     1       3.517   7.277  17.580  0.00  0.00    +0.000 A 
ATOM     28  C   UNL     1       4.248   6.110  17.697  0.00  0.00    +0.000 A 
ATOM     29  C   UNL     1       4.063   5.290  18.803  0.00  0.00    +0.000 A 
ATOM     30 CL   UNL     1       5.014   3.878  19.009  0.00  0.00    +0.000 Cl
ATOM     31  C   UNL     1       3.104   5.652  19.741  0.00  0.00    +0.000 A 
ATOM     32  N   UNL     1       2.348   6.774  19.665  0.00  0.00    +0.000 NA
ENDBRANCH  23  26
ENDBRANCH   8  22
BRANCH   1  33
ATOM     33  C   UNL     1      -4.197  10.944  16.462  0.00  0.00    +0.000 C 
ATOM     34  C   UNL     1      -3.678  10.834  15.017  0.00  0.00    +0.000 C 
BRANCH  33  36
ATOM     35  C   UNL     1      -6.023  12.232  17.436  0.00  0.00    +0.000 C 
ATOM     36  N   UNL     1      -4.712  12.302  16.776  0.00  0.00    +0.000 NA
ATOM     37  H   UNL     1      -4.062  12.712  17.444  0.00  0.00    +0.000 HD
ENDBRANCH  33  36
ENDBRANCH   1  33
TORSDOF 5
ENDMDL
MODEL 4
REMARK VINA RESULT:      -8.1      7.420     11.045
REMARK  Name = 
REMARK  8 active torsions:
REMARK  status: ('A' for Active; 'I' for Inactive)
REMARK    1  A    between atoms: C_1  and  N_2
REMARK    2  A    between atoms: N_2  and  C_3
REMARK    3  A    between atoms: C_3  and  C_4
REMARK    4  A    between atoms: C_3  and  C_5
REMARK    5  A    between atoms: C_10  and  C_11
REMARK    6  A    between atoms: C_19  and  C_20
REMARK    7  A    between atoms: C_23  and  N_24
REMARK    8  A    between atoms: C_25  and  C_27
REMARK                            x       y       z     vdW  Elec       q    Type
REMARK                         _______ _______ _______ _____ _____    ______ ____
ROOT
ATOM      1  C   UNL     1      -2.985  11.002  17.386  0.00  0.00    +0.000 C 
ATOM      2  O   UNL     1      -2.853   9.823  17.753  0.00  0.00    +0.000 OA
ATOM      3  N   UNL     1      -2.128  12.058  17.681  0.00  0.00    +0.000 N 
ATOM      4  C   UNL     1      -0.884  11.930  18.310  0.00  0.00    +0.000 A 
ATOM      5  C   UNL     1      -0.114  13.081  18.519  0.00  0.00    +0.000 A 
ATOM      6  C   UNL     1       1.240  13.014  18.985  0.00  0.00    +0.000 A 
ATOM      7  C   UNL     1       1.743  11.733  19.186  0.00  0.00    +0.000 A 
ATOM      8  C   UNL     1       0.896  10.638  19.039  0.00  0.00    +0.000 A 
ATOM      9  N   UNL     1      -0.408  10.734  18.666  0.00  0.00    +0.000 NA
ATOM     10  H   UNL     1      -2.413  12.976  17.344  0.00  0.00    +0.000 HD
ENDROOT
BRANCH   6  11
ATOM     11  C   UNL     1       2.051  14.268  19.058  0.00  0.00    +0.000 A 
ATOM     12  N   UNL     1       2.793  14.355  17.905  0.00  0.00    +0.000 NA
ATOM     13  C   UNL     1       3.587  15.405  17.689  0.00  0.00    +0.000 A 
ATOM     14  C   UNL     1       3.624  16.478  18.529  0.00  0.00    +0.000 A 
ATOM     15  C   UNL     1       2.912  16.399  19.721  0.00  0.00    +0.000 A 
ATOM     16  C   UNL     1       3.030  17.511  20.549  0.00  0.00    +0.000 A 
ATOM     17  C   UNL     1       3.018  17.371  21.913  0.00  0.00    +0.000 A 
ATOM     18  C   UNL     1       2.302  16.304  22.394  0.00  0.00    +0.000 A 
ATOM     19  C   UNL     1       1.702  15.370  21.499  0.00  0.00    +0.000 A 
ATOM     20  C   UNL     1       0.481  14.721  22.087  0.00  0.00    +0.000 C 
ATOM     21  C   UNL     1       2.168  15.259  20.121  0.00  0.00    +0.000 A 
ENDBRANCH   6  11
BRANCH   8  22
ATOM     22  N   UNL     1       1.329   9.323  19.243  0.00  0.00    +0.000 N 
ATOM     23  C   UNL     1       2.051   8.601  18.318  0.00  0.00    +0.000 C 
ATOM     24  O   UNL     1       2.366   9.010  17.206  0.00  0.00    +0.000 OA
ATOM     25  H   UNL     1       0.799   8.803  19.929  0.00  0.00    +0.000 HD
BRANCH  23  26
ATOM     26  C   UNL     1       2.370   7.200  18.714  0.00  0.00    +0.000 A 
ATOM     27  C   UNL     1       3.113   6.388  17.840  0.00  0.00    +0.000 A 
ATOM     28  C   UNL     1       3.495   5.138  18.285  0.00  0.00    +0.000 A 
ATOM     29  C   UNL     1       3.161   4.734  19.572  0.00  0.00    +0.000 A 
ATOM     30 CL   UNL     1       3.692   3.217  20.174  0.00  0.00    +0.000 Cl
ATOM     31  C   UNL     1       2.405   5.593  20.360  0.00  0.00    +0.000 A 
ATOM     32  N   UNL     1       1.990   6.822  19.965  0.00  0.00    +0.000 NA
ENDBRANCH  23  26
ENDBRANCH   8  22
BRANCH   1  33
ATOM     33  C   UNL     1      -4.204  11.377  16.497  0.00  0.00    +0.000 C 
ATOM     34  C   UNL     1      -5.450  11.588  17.378  0.00  0.00    +0.000 C 
BRANCH  33  36
ATOM     35  C   UNL     1      -3.289  10.308  14.507  0.00  0.00    +0.000 C 
ATOM     36  N   UNL     1      -4.431  10.369  15.429  0.00  0.00    +0.000 NA
ATOM     37  H   UNL     1      -4.491   9.464  15.892  0.00  0.00    +0.000 HD
ENDBRANCH  33  36
ENDBRANCH   1  33
TORSDOF 5
ENDMDL
MODEL 5
REMARK VINA RESULT:      -8.1      7.796     11.072
REMARK  Name = 
REMARK  8 active torsions:
REMARK  status: ('A' for Active; 'I' for Inactive)
REMARK    1  A    between atoms: C_1  and  N_2
REMARK    2  A    between atoms: N_2  and  C_3
REMARK    3  A    between atoms: C_3  and  C_4
REMARK    4  A    between atoms: C_3  and  C_5
REMARK    5  A    between atoms: C_10  and  C_11
REMARK    6  A    between atoms: C_19  and  C_20
REMARK    7  A    between atoms: C_23  and  N_24
REMARK    8  A    between atoms: C_25  and  C_27
REMARK                            x       y       z     vdW  Elec       q    Type
REMARK                         _______ _______ _______ _____ _____    ______ ____
ROOT
ATOM      1  C   UNL     1       2.616  14.632  18.892  0.00  0.00    +0.000 C 
ATOM      2  O   UNL     1       3.305  13.735  18.380  0.00  0.00    +0.000 OA
ATOM      3  N   UNL     1       1.258  14.560  19.187  0.00  0.00    +0.000 N 
ATOM      4  C   UNL     1       0.479  13.401  19.103  0.00  0.00    +0.000 A 
ATOM      5  C   UNL     1      -0.874  13.472  19.459  0.00  0.00    +0.000 A 
ATOM      6  C   UNL     1      -1.691  12.300  19.576  0.00  0.00    +0.000 A 
ATOM      7  C   UNL     1      -1.043  11.091  19.341  0.00  0.00    +0.000 A 
ATOM      8  C   UNL     1       0.280  11.100  18.909  0.00  0.00    +0.000 A 
ATOM      9  N   UNL     1       1.012  12.234  18.736  0.00  0.00    +0.000 NA
ATOM     10  H   UNL     1       0.834  15.409  19.558  0.00  0.00    +0.000 HD
ENDROOT
BRANCH   6  11
ATOM     11  C   UNL     1      -3.089  12.431  20.091  0.00  0.00    +0.000 A 
ATOM     12  N   UNL     1      -3.016  12.834  21.402  0.00  0.00    +0.000 NA
ATOM     13  C   UNL     1      -4.129  13.065  22.102  0.00  0.00    +0.000 A 
ATOM     14  C   UNL     1      -5.368  13.021  21.537  0.00  0.00    +0.000 A 
ATOM     15  C   UNL     1      -5.472  12.579  20.223  0.00  0.00    +0.000 A 
ATOM     16  C   UNL     1      -6.771  12.517  19.727  0.00  0.00    +0.000 A 
ATOM     17  C   UNL     1      -7.131  11.544  18.831  0.00  0.00    +0.000 A 
ATOM     18  C   UNL     1      -6.126  11.084  18.017  0.00  0.00    +0.000 A 
ATOM     19  C   UNL     1      -4.787  11.546  18.187  0.00  0.00    +0.000 A 
ATOM     20  C   UNL     1      -4.003  11.503  16.906  0.00  0.00    +0.000 C 
ATOM     21  C   UNL     1      -4.366  12.153  19.445  0.00  0.00    +0.000 A 
ENDBRANCH   6  11
BRANCH   8  22
ATOM     22  N   UNL     1       0.987   9.925  18.636  0.00  0.00    +0.000 N 
ATOM     23  C   UNL     1       1.363   9.015  19.600  0.00  0.00    +0.000 C 
ATOM     24  O   UNL     1       1.155   9.145  20.801  0.00  0.00    +0.000 OA
ATOM     25  H   UNL     1       1.517   9.938  17.776  0.00  0.00    +0.000 HD
BRANCH  23  26
ATOM     26  C   UNL     1       2.153   7.853  19.103  0.00  0.00    +0.000 A 
ATOM     27  C   UNL     1       2.855   7.964  17.890  0.00  0.00    +0.000 A 
ATOM     28  C   UNL     1       3.672   6.915  17.517  0.00  0.00    +0.000 A 
ATOM     29  C   UNL     1       3.795   5.808  18.348  0.00  0.00    +0.000 A 
ATOM     30 CL   UNL     1       4.863   4.528  17.943  0.00  0.00    +0.000 Cl
ATOM     31  C   UNL     1       3.045   5.773  19.518  0.00  0.00    +0.000 A 
ATOM     32  N   UNL     1       2.215   6.767  19.921  0.00  0.00    +0.000 NA
ENDBRANCH  23  26
ENDBRANCH   8  22
BRANCH   1  33
ATOM     33  C   UNL     1       3.299  15.977  19.269  0.00  0.00    +0.000 C 
ATOM     34  C   UNL     1       3.208  16.204  20.789  0.00  0.00    +0.000 C 
BRANCH  33  36
ATOM     35  C   UNL     1       2.953  16.929  17.052  0.00  0.00    +0.000 C 
ATOM     36  N   UNL     1       2.733  17.111  18.493  0.00  0.00    +0.000 NA
ATOM     37  H   UNL     1       1.726  17.094  18.647  0.00  0.00    +0.000 HD
ENDBRANCH  33  36
ENDBRANCH   1  33
TORSDOF 5
ENDMDL
MODEL 6
REMARK VINA RESULT:      -8.1      7.568     11.060
REMARK  Name = 
REMARK  8 active torsions:
REMARK  status: ('A' for Active; 'I' for Inactive)
REMARK    1  A    between atoms: C_1  and  N_2
REMARK    2  A    between atoms: N_2  and  C_3
REMARK    3  A    between atoms: C_3  and  C_4
REMARK    4  A    between atoms: C_3  and  C_5
REMARK    5  A    between atoms: C_10  and  C_11
REMARK    6  A    between atoms: C_19  and  C_20
REMARK    7  A    between atoms: C_23  and  N_24
REMARK    8  A    between atoms: C_25  and  C_27
REMARK                            x       y       z     vdW  Elec       q    Type
REMARK                         _______ _______ _______ _____ _____    ______ ____
ROOT
ATOM      1  C   UNL     1      -3.081  10.481  17.434  0.00  0.00    +0.000 C 
ATOM      2  O   UNL     1      -2.736   9.291  17.507  0.00  0.00    +0.000 OA
ATOM      3  N   UNL     1      -2.530  11.544  18.144  0.00  0.00    +0.000 N 
ATOM      4  C   UNL     1      -1.382  11.468  18.940  0.00  0.00    +0.000 A 
ATOM      5  C   UNL     1      -0.925  12.629  19.576  0.00  0.00    +0.000 A 
ATOM      6  C   UNL     1       0.338  12.677  20.254  0.00  0.00    +0.000 A 
ATOM      7  C   UNL     1       1.087  11.505  20.211  0.00  0.00    +0.000 A 
ATOM      8  C   UNL     1       0.535  10.365  19.635  0.00  0.00    +0.000 A 
ATOM      9  N   UNL     1      -0.698  10.327  19.062  0.00  0.00    +0.000 NA
ATOM     10  H   UNL     1      -2.969  12.453  18.005  0.00  0.00    +0.000 HD
ENDROOT
BRANCH   6  11
ATOM     11  C   UNL     1       0.828  13.982  20.795  0.00  0.00    +0.000 A 
ATOM     12  N   UNL     1       0.079  14.282  21.906  0.00  0.00    +0.000 NA
ATOM     13  C   UNL     1       0.332  15.386  22.614  0.00  0.00    +0.000 A 
ATOM     14  C   UNL     1       1.391  16.200  22.344  0.00  0.00    +0.000 A 
ATOM     15  C   UNL     1       2.141  15.939  21.202  0.00  0.00    +0.000 A 
ATOM     16  C   UNL     1       3.178  16.836  20.966  0.00  0.00    +0.000 A 
ATOM     17  C   UNL     1       3.537  17.167  19.684  0.00  0.00    +0.000 A 
ATOM     18  C   UNL     1       3.316  16.199  18.737  0.00  0.00    +0.000 A 
ATOM     19  C   UNL     1       2.667  14.977  19.085  0.00  0.00    +0.000 A 
ATOM     20  C   UNL     1       3.084  13.837  18.200  0.00  0.00    +0.000 C 
ATOM     21  C   UNL     1       1.855  14.888  20.294  0.00  0.00    +0.000 A 
ENDBRANCH   6  11
BRANCH   8  22
ATOM     22  N   UNL     1       1.222   9.148  19.574  0.00  0.00    +0.000 N 
ATOM     23  C   UNL     1       1.971   8.744  18.490  0.00  0.00    +0.000 C 
ATOM     24  O   UNL     1       2.092   9.380  17.450  0.00  0.00    +0.000 OA
ATOM     25  H   UNL     1       0.869   8.429  20.190  0.00  0.00    +0.000 HD
BRANCH  23  26
ATOM     26  C   UNL     1       2.583   7.390  18.610  0.00  0.00    +0.000 A 
ATOM     27  C   UNL     1       3.562   6.991  17.684  0.00  0.00    +0.000 A 
ATOM     28  C   UNL     1       4.195   5.781  17.892  0.00  0.00    +0.000 A 
ATOM     29  C   UNL     1       3.870   5.017  19.006  0.00  0.00    +0.000 A 
ATOM     30 CL   UNL     1       4.698   3.549  19.328  0.00  0.00    +0.000 Cl
ATOM     31  C   UNL     1       2.873   5.479  19.857  0.00  0.00    +0.000 A 
ATOM     32  N   UNL     1       2.209   6.648  19.688  0.00  0.00    +0.000 NA
ENDBRANCH  23  26
ENDBRANCH   8  22
BRANCH   1  33
ATOM     33  C   UNL     1      -4.228  10.869  16.459  0.00  0.00    +0.000 C 
ATOM     34  C   UNL     1      -3.776  10.652  15.003  0.00  0.00    +0.000 C 
BRANCH  33  36
ATOM     35  C   UNL     1      -6.027  12.256  17.341  0.00  0.00    +0.000 C 
ATOM     36  N   UNL     1      -4.705  12.255  16.702  0.00  0.00    +0.000 NA
ATOM     37  H   UNL     1      -4.053  12.675  17.363  0.00  0.00    +0.000 HD
ENDBRANCH  33  36
ENDBRANCH   1  33
TORSDOF 5
ENDMDL
MODEL 7
REMARK VINA RESULT:      -8.1      8.170     10.880
REMARK  Name = 
REMARK  8 active torsions:
REMARK  status: ('A' for Active; 'I' for Inactive)
REMARK    1  A    between atoms: C_1  and  N_2
REMARK    2  A    between atoms: N_2  and  C_3
REMARK    3  A    between atoms: C_3  and  C_4
REMARK    4  A    between atoms: C_3  and  C_5
REMARK    5  A    between atoms: C_10  and  C_11
REMARK    6  A    between atoms: C_19  and  C_20
REMARK    7  A    between atoms: C_23  and  N_24
REMARK    8  A    between atoms: C_25  and  C_27
REMARK                            x       y       z     vdW  Elec       q    Type
REMARK                         _______ _______ _______ _____ _____    ______ ____
ROOT
ATOM      1  C   UNL     1      -2.821  10.756  17.149  0.00  0.00    +0.000 C 
ATOM      2  O   UNL     1      -2.444   9.574  17.121  0.00  0.00    +0.000 OA
ATOM      3  N   UNL     1      -2.405  11.732  18.049  0.00  0.00    +0.000 N 
ATOM      4  C   UNL     1      -1.365  11.580  18.973  0.00  0.00    +0.000 A 
ATOM      5  C   UNL     1      -1.036  12.661  19.801  0.00  0.00    +0.000 A 
ATOM      6  C   UNL     1       0.127  12.650  20.639  0.00  0.00    +0.000 A 
ATOM      7  C   UNL     1       0.918  11.509  20.553  0.00  0.00    +0.000 A 
ATOM      8  C   UNL     1       0.487  10.439  19.774  0.00  0.00    +0.000 A 
ATOM      9  N   UNL     1      -0.661  10.448  19.044  0.00  0.00    +0.000 NA
ATOM     10  H   UNL     1      -2.855  12.642  17.966  0.00  0.00    +0.000 HD
ENDROOT
BRANCH   6  11
ATOM     11  C   UNL     1       0.496  13.886  21.395  0.00  0.00    +0.000 A 
ATOM     12  N   UNL     1       1.682  14.353  20.880  0.00  0.00    +0.000 NA
ATOM     13  C   UNL     1       2.227  15.476  21.351  0.00  0.00    +0.000 A 
ATOM     14  C   UNL     1       1.601  16.264  22.270  0.00  0.00    +0.000 A 
ATOM     15  C   UNL     1       0.419  15.795  22.834  0.00  0.00    +0.000 A 
ATOM     16  C   UNL     1      -0.141  16.629  23.797  0.00  0.00    +0.000 A 
ATOM     17  C   UNL     1      -0.813  16.104  24.871  0.00  0.00    +0.000 A 
ATOM     18  C   UNL     1      -1.424  14.895  24.655  0.00  0.00    +0.000 A 
ATOM     19  C   UNL     1      -1.270  14.215  23.411  0.00  0.00    +0.000 A 
ATOM     20  C   UNL     1      -2.447  13.337  23.091  0.00  0.00    +0.000 C 
ATOM     21  C   UNL     1      -0.159  14.537  22.523  0.00  0.00    +0.000 A 
ENDBRANCH   6  11
BRANCH   8  22
ATOM     22  N   UNL     1       1.221   9.253  19.656  0.00  0.00    +0.000 N 
ATOM     23  C   UNL     1       1.925   8.898  18.526  0.00  0.00    +0.000 C 
ATOM     24  O   UNL     1       1.961   9.554  17.491  0.00  0.00    +0.000 OA
ATOM     25  H   UNL     1       0.933   8.511  20.278  0.00  0.00    +0.000 HD
BRANCH  23  26
ATOM     26  C   UNL     1       2.599   7.570  18.590  0.00  0.00    +0.000 A 
ATOM     27  C   UNL     1       3.561   7.238  17.620  0.00  0.00    +0.000 A 
ATOM     28  C   UNL     1       4.254   6.053  17.775  0.00  0.00    +0.000 A 
ATOM     29  C   UNL     1       4.003   5.248  18.879  0.00  0.00    +0.000 A 
ATOM     30 CL   UNL     1       4.905   3.811  19.134  0.00  0.00    +0.000 Cl
ATOM     31  C   UNL     1       3.018   5.644  19.776  0.00  0.00    +0.000 A 
ATOM     32  N   UNL     1       2.297   6.787  19.660  0.00  0.00    +0.000 NA
ENDBRANCH  23  26
ENDBRANCH   8  22
BRANCH   1  33
ATOM     33  C   UNL     1      -3.848  11.240  16.087  0.00  0.00    +0.000 C 
ATOM     34  C   UNL     1      -5.060  11.884  16.785  0.00  0.00    +0.000 C 
BRANCH  33  36
ATOM     35  C   UNL     1      -3.423  10.148  13.950  0.00  0.00    +0.000 C 
ATOM     36  N   UNL     1      -4.242  10.140  15.169  0.00  0.00    +0.000 NA
ATOM     37  H   UNL     1      -4.043   9.269  15.658  0.00  0.00    +0.000 HD
ENDBRANCH  33  36
ENDBRANCH   1  33
TORSDOF 5
ENDMDL
MODEL 8
REMARK VINA RESULT:      -8.0      7.559     10.916
REMARK  Name = 
REMARK  8 active torsions:
REMARK  status: ('A' for Active; 'I' for Inactive)
REMARK    1  A    between atoms: C_1  and  N_2
REMARK    2  A    between atoms: N_2  and  C_3
REMARK    3  A    between atoms: C_3  and  C_4
REMARK    4  A    between atoms: C_3  and  C_5
REMARK    5  A    between atoms: C_10  and  C_11
REMARK    6  A    between atoms: C_19  and  C_20
REMARK    7  A    between atoms: C_23  and  N_24
REMARK    8  A    between atoms: C_25  and  C_27
REMARK                            x       y       z     vdW  Elec       q    Type
REMARK                         _______ _______ _______ _____ _____    ______ ____
ROOT
ATOM      1  C   UNL     1       2.477  14.154  18.809  0.00  0.00    +0.000 C 
ATOM      2  O   UNL     1       3.304  13.229  18.750  0.00  0.00    +0.000 OA
ATOM      3  N   UNL     1       1.097  14.036  18.676  0.00  0.00    +0.000 N 
ATOM      4  C   UNL     1       0.398  12.826  18.616  0.00  0.00    +0.000 A 
ATOM      5  C   UNL     1      -0.998  12.859  18.510  0.00  0.00    +0.000 A 
ATOM      6  C   UNL     1      -1.798  11.675  18.627  0.00  0.00    +0.000 A 
ATOM      7  C   UNL     1      -1.097  10.500  18.882  0.00  0.00    +0.000 A 
ATOM      8  C   UNL     1       0.295  10.527  18.891  0.00  0.00    +0.000 A 
ATOM      9  N   UNL     1       1.033  11.654  18.704  0.00  0.00    +0.000 NA
ATOM     10  H   UNL     1       0.568  14.906  18.698  0.00  0.00    +0.000 HD
ENDROOT
BRANCH   6  11
ATOM     11  C   UNL     1      -3.288  11.796  18.640  0.00  0.00    +0.000 A 
ATOM     12  N   UNL     1      -3.744  11.485  17.382  0.00  0.00    +0.000 NA
ATOM     13  C   UNL     1      -5.053  11.477  17.120  0.00  0.00    +0.000 A 
ATOM     14  C   UNL     1      -5.993  11.667  18.089  0.00  0.00    +0.000 A 
ATOM     15  C   UNL     1      -5.557  12.021  19.361  0.00  0.00    +0.000 A 
ATOM     16  C   UNL     1      -6.572  12.243  20.287  0.00  0.00    +0.000 A 
ATOM     17  C   UNL     1      -6.429  13.191  21.268  0.00  0.00    +0.000 A 
ATOM     18  C   UNL     1      -5.142  13.431  21.678  0.00  0.00    +0.000 A 
ATOM     19  C   UNL     1      -4.044  12.785  21.037  0.00  0.00    +0.000 A 
ATOM     20  C   UNL     1      -2.867  12.614  21.956  0.00  0.00    +0.000 C 
ATOM     21  C   UNL     1      -4.194  12.216  19.702  0.00  0.00    +0.000 A 
ENDBRANCH   6  11
BRANCH   8  22
ATOM     22  N   UNL     1       1.065   9.381  19.121  0.00  0.00    +0.000 N 
ATOM     23  C   UNL     1       1.931   8.841  18.194  0.00  0.00    +0.000 C 
ATOM     24  O   UNL     1       2.099   9.276  17.061  0.00  0.00    +0.000 OA
ATOM     25  H   UNL     1       0.708   8.766  19.839  0.00  0.00    +0.000 HD
BRANCH  23  26
ATOM     26  C   UNL     1       2.619   7.591  18.623  0.00  0.00    +0.000 A 
ATOM     27  C   UNL     1       2.184   6.926  19.783  0.00  0.00    +0.000 A 
ATOM     28  C   UNL     1       2.762   5.709  20.086  0.00  0.00    +0.000 A 
ATOM     29  C   UNL     1       3.723   5.172  19.238  0.00  0.00    +0.000 A 
ATOM     30 CL   UNL     1       4.397   3.626  19.553  0.00  0.00    +0.000 Cl
ATOM     31  C   UNL     1       4.109   5.909  18.125  0.00  0.00    +0.000 A 
ATOM     32  N   UNL     1       3.587   7.116  17.792  0.00  0.00    +0.000 NA
ENDBRANCH  23  26
ENDBRANCH   8  22
BRANCH   1  33
ATOM     33  C   UNL     1       2.989  15.599  19.067  0.00  0.00    +0.000 C 
ATOM     34  C   UNL     1       2.951  16.411  17.759  0.00  0.00    +0.000 C 
BRANCH  33  36
ATOM     35  C   UNL     1       4.874  16.960  19.799  0.00  0.00    +0.000 C 
ATOM     36  N   UNL     1       4.338  15.597  19.692  0.00  0.00    +0.000 NA
ATOM     37  H   UNL     1       4.217  15.247  20.640  0.00  0.00    +0.000 HD
ENDBRANCH  33  36
ENDBRANCH   1  33
TORSDOF 5
ENDMDL
MODEL 9
REMARK VINA RESULT:      -8.0      7.858     11.342
REMARK  Name = 
REMARK  8 active torsions:
REMARK  status: ('A' for Active; 'I' for Inactive)
REMARK    1  A    between atoms: C_1  and  N_2
REMARK    2  A    between atoms: N_2  and  C_3
REMARK    3  A    between atoms: C_3  and  C_4
REMARK    4  A    between atoms: C_3  and  C_5
REMARK    5  A    between atoms: C_10  and  C_11
REMARK    6  A    between atoms: C_19  and  C_20
REMARK    7  A    between atoms: C_23  and  N_24
REMARK    8  A    between atoms: C_25  and  C_27
REMARK                            x       y       z     vdW  Elec       q    Type
REMARK                         _______ _______ _______ _____ _____    ______ ____
ROOT
ATOM      1  C   UNL     1       2.006  14.016  21.138  0.00  0.00    +0.000 C 
ATOM      2  O   UNL     1       2.909  13.174  21.004  0.00  0.00    +0.000 OA
ATOM      3  N   UNL     1       0.720  13.937  20.612  0.00  0.00    +0.000 N 
ATOM      4  C   UNL     1       0.181  12.812  19.978  0.00  0.00    +0.000 A 
ATOM      5  C   UNL     1      -1.142  12.867  19.521  0.00  0.00    +0.000 A 
ATOM      6  C   UNL     1      -1.824  11.705  19.029  0.00  0.00    +0.000 A 
ATOM      7  C   UNL     1      -1.095  10.521  19.065  0.00  0.00    +0.000 A 
ATOM      8  C   UNL     1       0.242  10.556  19.452  0.00  0.00    +0.000 A 
ATOM      9  N   UNL     1       0.887  11.687  19.845  0.00  0.00    +0.000 NA
ATOM     10  H   UNL     1       0.118  14.743  20.774  0.00  0.00    +0.000 HD
ENDROOT
BRANCH   6  11
ATOM     11  C   UNL     1      -3.276  11.801  18.684  0.00  0.00    +0.000 A 
ATOM     12  N   UNL     1      -3.413  11.471  17.358  0.00  0.00    +0.000 NA
ATOM     13  C   UNL     1      -4.621  11.438  16.790  0.00  0.00    +0.000 A 
ATOM     14  C   UNL     1      -5.768  11.619  17.504  0.00  0.00    +0.000 A 
ATOM     15  C   UNL     1      -5.655  11.992  18.839  0.00  0.00    +0.000 A 
ATOM     16  C   UNL     1      -6.865  12.204  19.492  0.00  0.00    +0.000 A 
ATOM     17  C   UNL     1      -6.975  13.163  20.467  0.00  0.00    +0.000 A 
ATOM     18  C   UNL     1      -5.827  13.429  21.170  0.00  0.00    +0.000 A 
ATOM     19  C   UNL     1      -4.598  12.797  20.818  0.00  0.00    +0.000 A 
ATOM     20  C   UNL     1      -3.673  12.654  21.994  0.00  0.00    +0.000 C 
ATOM     21  C   UNL     1      -4.416  12.214  19.493  0.00  0.00    +0.000 A 
ENDBRANCH   6  11
BRANCH   8  22
ATOM     22  N   UNL     1       1.041   9.408  19.493  0.00  0.00    +0.000 N 
ATOM     23  C   UNL     1       1.827   8.983  18.444  0.00  0.00    +0.000 C 
ATOM     24  O   UNL     1       1.890   9.536  17.351  0.00  0.00    +0.000 OA
ATOM     25  H   UNL     1       0.755   8.715  20.171  0.00  0.00    +0.000 HD
BRANCH  23  26
ATOM     26  C   UNL     1       2.563   7.709  18.677  0.00  0.00    +0.000 A 
ATOM     27  C   UNL     1       2.211   6.899  19.771  0.00  0.00    +0.000 A 
ATOM     28  C   UNL     1       2.828   5.669  19.892  0.00  0.00    +0.000 A 
ATOM     29  C   UNL     1       3.747   5.263  18.931  0.00  0.00    +0.000 A 
ATOM     30 CL   UNL     1       4.467   3.709  19.017  0.00  0.00    +0.000 Cl
ATOM     31  C   UNL     1       4.051   6.138  17.895  0.00  0.00    +0.000 A 
ATOM     32  N   UNL     1       3.488   7.362  17.741  0.00  0.00    +0.000 NA
ENDBRANCH  23  26
ENDBRANCH   8  22
BRANCH   1  33
ATOM     33  C   UNL     1       2.292  15.292  21.979  0.00  0.00    +0.000 C 
ATOM     34  C   UNL     1       1.380  16.442  21.514  0.00  0.00    +0.000 C 
BRANCH  33  36
ATOM     35  C   UNL     1       4.014  16.566  20.817  0.00  0.00    +0.000 C 
ATOM     36  N   UNL     1       3.731  15.661  21.938  0.00  0.00    +0.000 NA
ATOM     37  H   UNL     1       3.923  16.176  22.795  0.00  0.00    +0.000 HD
ENDBRANCH  33  36
ENDBRANCH   1  33
TORSDOF 5
ENDMDL
