MODEL 1
REMARK VINA RESULT:      -7.1      0.000      0.000
REMARK  Name = 
REMARK  3 active torsions:
REMARK  status: ('A' for Active; 'I' for Inactive)
REMARK    1  A    between atoms: O_1  and  C_2
REMARK    2  A    between atoms: N_5  and  C_6
REMARK    3  A    between atoms: C_9  and  C_10
REMARK                            x       y       z     vdW  Elec       q    Type
REMARK                         _______ _______ _______ _____ _____    ______ ____
ROOT
ATOM      1  C   UNL     1       4.011   5.012  17.369  0.00  0.00    +0.000 A 
ATOM      2  N   UNL     1       4.044   3.652  17.443  0.00  0.00    +0.000 NA
ATOM      3  C   UNL     1       3.057   2.987  18.091  0.00  0.00    +0.000 A 
ATOM      4  C   UNL     1       1.990   3.604  18.711  0.00  0.00    +0.000 A 
ATOM      5  C   UNL     1       1.933   4.995  18.629  0.00  0.00    +0.000 A 
ATOM      6  C   UNL     1       2.939   5.706  17.964  0.00  0.00    +0.000 A 
ATOM      7 CL   UNL     1       2.815   7.431  18.015  0.00  0.00    +0.000 Cl
ENDROOT
BRANCH   1  11
ATOM      8  C   UNL     1       7.136   5.206  15.621  0.00  0.00    +0.000 C 
ATOM      9  C   UNL     1       7.332   6.328  16.629  0.00  0.00    +0.000 C 
ATOM     10  C   UNL     1       6.180   6.119  17.600  0.00  0.00    +0.000 C 
ATOM     11  N   UNL     1       5.088   5.632  16.758  0.00  0.00    +0.000 N 
ATOM     12  C   UNL     1       5.609   5.153  15.471  0.00  0.00    +0.000 C 
BRANCH   8  13
ATOM     13  O   UNL     1       7.791   5.491  14.395  0.00  0.00    +0.000 OA
ATOM     14  H   UNL     1       8.673   5.841  14.608  0.00  0.00    +0.000 HD
ENDBRANCH   8  13
ENDBRANCH   1  11
BRANCH   4  15
ATOM     15  C   UNL     1       0.967   2.819  19.470  0.00  0.00    +0.000 C 
ATOM     16  F   UNL     1       0.089   2.150  18.673  0.00  0.00    +0.000 F 
ATOM     17  F   UNL     1       1.534   1.877  20.272  0.00  0.00    +0.000 F 
ATOM     18  F   UNL     1       0.210   3.598  20.288  0.00  0.00    +0.000 F 
ENDBRANCH   4  15
TORSDOF 3
ENDMDL
MODEL 2
REMARK VINA RESULT:      -6.9      0.720      1.132
REMARK  Name = 
REMARK  3 active torsions:
REMARK  status: ('A' for Active; 'I' for Inactive)
REMARK    1  A    between atoms: O_1  and  C_2
REMARK    2  A    between atoms: N_5  and  C_6
REMARK    3  A    between atoms: C_9  and  C_10
REMARK                            x       y       z     vdW  Elec       q    Type
REMARK                         _______ _______ _______ _____ _____    ______ ____
ROOT
ATOM      1  C   UNL     1       4.325   4.681  17.673  0.00  0.00    +0.000 A 
ATOM      2  N   UNL     1       4.233   3.358  17.980  0.00  0.00    +0.000 NA
ATOM      3  C   UNL     1       3.141   2.890  18.632  0.00  0.00    +0.000 A 
ATOM      4  C   UNL     1       2.082   3.682  19.029  0.00  0.00    +0.000 A 
ATOM      5  C   UNL     1       2.154   5.036  18.706  0.00  0.00    +0.000 A 
ATOM      6  C   UNL     1       3.271   5.545  18.032  0.00  0.00    +0.000 A 
ATOM      7 CL   UNL     1       3.294   7.255  17.777  0.00  0.00    +0.000 Cl
ENDROOT
BRANCH   1  11
ATOM      8  C   UNL     1       6.952   4.699  15.233  0.00  0.00    +0.000 C 
ATOM      9  C   UNL     1       7.772   4.899  16.498  0.00  0.00    +0.000 C 
ATOM     10  C   UNL     1       6.769   4.607  17.604  0.00  0.00    +0.000 C 
ATOM     11  N   UNL     1       5.500   5.105  17.075  0.00  0.00    +0.000 N 
ATOM     12  C   UNL     1       5.588   5.287  15.620  0.00  0.00    +0.000 C 
BRANCH   8  13
ATOM     13  O   UNL     1       7.536   5.369  14.126  0.00  0.00    +0.000 OA
ATOM     14  H   UNL     1       6.849   5.928  13.725  0.00  0.00    +0.000 HD
ENDBRANCH   8  13
ENDBRANCH   1  11
BRANCH   4  15
ATOM     15  C   UNL     1       0.934   3.118  19.806  0.00  0.00    +0.000 C 
ATOM     16  F   UNL     1       0.163   4.065  20.407  0.00  0.00    +0.000 F 
ATOM     17  F   UNL     1       0.090   2.393  19.021  0.00  0.00    +0.000 F 
ATOM     18  F   UNL     1       1.335   2.278  20.797  0.00  0.00    +0.000 F 
ENDBRANCH   4  15
TORSDOF 3
ENDMDL
MODEL 3
REMARK VINA RESULT:      -6.9      5.008      5.962
REMARK  Name = 
REMARK  3 active torsions:
REMARK  status: ('A' for Active; 'I' for Inactive)
REMARK    1  A    between atoms: O_1  and  C_2
REMARK    2  A    between atoms: N_5  and  C_6
REMARK    3  A    between atoms: C_9  and  C_10
REMARK                            x       y       z     vdW  Elec       q    Type
REMARK                         _______ _______ _______ _____ _____    ______ ____
ROOT
ATOM      1  C   UNL     1       6.981   5.031  15.778  0.00  0.00    +0.000 A 
ATOM      2  N   UNL     1       7.661   5.165  14.606  0.00  0.00    +0.000 NA
ATOM      3  C   UNL     1       7.150   4.643  13.465  0.00  0.00    +0.000 A 
ATOM      4  C   UNL     1       5.956   3.954  13.399  0.00  0.00    +0.000 A 
ATOM      5  C   UNL     1       5.240   3.822  14.588  0.00  0.00    +0.000 A 
ATOM      6  C   UNL     1       5.745   4.354  15.781  0.00  0.00    +0.000 A 
ATOM      7 CL   UNL     1       4.818   4.040  17.208  0.00  0.00    +0.000 Cl
ENDROOT
BRANCH   1  11
ATOM      8  C   UNL     1       7.373   5.674  19.283  0.00  0.00    +0.000 C 
ATOM      9  C   UNL     1       7.817   7.016  18.722  0.00  0.00    +0.000 C 
ATOM     10  C   UNL     1       7.399   6.930  17.262  0.00  0.00    +0.000 C 
ATOM     11  N   UNL     1       7.594   5.521  16.918  0.00  0.00    +0.000 N 
ATOM     12  C   UNL     1       7.696   4.707  18.136  0.00  0.00    +0.000 C 
BRANCH   8  13
ATOM     13  O   UNL     1       8.074   5.353  20.475  0.00  0.00    +0.000 OA
ATOM     14  H   UNL     1       7.413   5.166  21.163  0.00  0.00    +0.000 HD
ENDBRANCH   8  13
ENDBRANCH   1  11
BRANCH   4  15
ATOM     15  C   UNL     1       5.477   3.341  12.120  0.00  0.00    +0.000 C 
ATOM     16  F   UNL     1       5.728   2.006  12.026  0.00  0.00    +0.000 F 
ATOM     17  F   UNL     1       4.133   3.480  11.956  0.00  0.00    +0.000 F 
ATOM     18  F   UNL     1       6.048   3.908  11.023  0.00  0.00    +0.000 F 
ENDBRANCH   4  15
TORSDOF 3
ENDMDL
MODEL 4
REMARK VINA RESULT:      -6.9      0.769      1.242
REMARK  Name = 
REMARK  3 active torsions:
REMARK  status: ('A' for Active; 'I' for Inactive)
REMARK    1  A    between atoms: O_1  and  C_2
REMARK    2  A    between atoms: N_5  and  C_6
REMARK    3  A    between atoms: C_9  and  C_10
REMARK                            x       y       z     vdW  Elec       q    Type
REMARK                         _______ _______ _______ _____ _____    ______ ____
ROOT
ATOM      1  C   UNL     1       4.164   4.594  17.157  0.00  0.00    +0.000 A 
ATOM      2  N   UNL     1       3.981   3.253  17.301  0.00  0.00    +0.000 NA
ATOM      3  C   UNL     1       2.962   2.788  18.064  0.00  0.00    +0.000 A 
ATOM      4  C   UNL     1       2.070   3.599  18.737  0.00  0.00    +0.000 A 
ATOM      5  C   UNL     1       2.235   4.975  18.586  0.00  0.00    +0.000 A 
ATOM      6  C   UNL     1       3.279   5.482  17.802  0.00  0.00    +0.000 A 
ATOM      7 CL   UNL     1       3.444   7.203  17.771  0.00  0.00    +0.000 Cl
ENDROOT
BRANCH   1  11
ATOM      8  C   UNL     1       6.697   4.373  14.630  0.00  0.00    +0.000 C 
ATOM      9  C   UNL     1       7.530   4.908  15.785  0.00  0.00    +0.000 C 
ATOM     10  C   UNL     1       6.599   4.750  16.977  0.00  0.00    +0.000 C 
ATOM     11  N   UNL     1       5.267   5.001  16.426  0.00  0.00    +0.000 N 
ATOM     12  C   UNL     1       5.291   4.890  14.962  0.00  0.00    +0.000 C 
BRANCH   8  13
ATOM     13  O   UNL     1       7.172   4.857  13.382  0.00  0.00    +0.000 OA
ATOM     14  H   UNL     1       7.072   4.141  12.733  0.00  0.00    +0.000 HD
ENDBRANCH   8  13
ENDBRANCH   1  11
BRANCH   4  15
ATOM     15  C   UNL     1       1.006   3.026  19.619  0.00  0.00    +0.000 C 
ATOM     16  F   UNL     1       1.485   2.183  20.575  0.00  0.00    +0.000 F 
ATOM     17  F   UNL     1       0.317   3.992  20.286  0.00  0.00    +0.000 F 
ATOM     18  F   UNL     1       0.077   2.316  18.925  0.00  0.00    +0.000 F 
ENDBRANCH   4  15
TORSDOF 3
ENDMDL
MODEL 5
REMARK VINA RESULT:      -6.8      4.654      6.174
REMARK  Name = 
REMARK  3 active torsions:
REMARK  status: ('A' for Active; 'I' for Inactive)
REMARK    1  A    between atoms: O_1  and  C_2
REMARK    2  A    between atoms: N_5  and  C_6
REMARK    3  A    between atoms: C_9  and  C_10
REMARK                            x       y       z     vdW  Elec       q    Type
REMARK                         _______ _______ _______ _____ _____    ______ ____
ROOT
ATOM      1  C   UNL     1       4.162   4.516  19.045  0.00  0.00    +0.000 A 
ATOM      2  N   UNL     1       5.463   4.188  19.274  0.00  0.00    +0.000 NA
ATOM      3  C   UNL     1       6.453   5.012  18.850  0.00  0.00    +0.000 A 
ATOM      4  C   UNL     1       6.233   6.193  18.171  0.00  0.00    +0.000 A 
ATOM      5  C   UNL     1       4.906   6.550  17.943  0.00  0.00    +0.000 A 
ATOM      6  C   UNL     1       3.865   5.718  18.373  0.00  0.00    +0.000 A 
ATOM      7 CL   UNL     1       2.264   6.215  17.944  0.00  0.00    +0.000 Cl
ENDROOT
BRANCH   1  11
ATOM      8  C   UNL     1       1.006   2.816  18.967  0.00  0.00    +0.000 C 
ATOM      9  C   UNL     1       1.192   2.949  20.471  0.00  0.00    +0.000 C 
ATOM     10  C   UNL     1       2.358   3.919  20.586  0.00  0.00    +0.000 C 
ATOM     11  N   UNL     1       3.206   3.595  19.438  0.00  0.00    +0.000 N 
ATOM     12  C   UNL     1       2.451   2.815  18.449  0.00  0.00    +0.000 C 
BRANCH   8  13
ATOM     13  O   UNL     1       0.311   1.624  18.635  0.00  0.00    +0.000 OA
ATOM     14  H   UNL     1       0.787   1.202  17.900  0.00  0.00    +0.000 HD
ENDBRANCH   8  13
ENDBRANCH   1  11
BRANCH   4  15
ATOM     15  C   UNL     1       7.370   7.027  17.667  0.00  0.00    +0.000 C 
ATOM     16  F   UNL     1       8.435   7.067  18.514  0.00  0.00    +0.000 F 
ATOM     17  F   UNL     1       7.855   6.571  16.480  0.00  0.00    +0.000 F 
ATOM     18  F   UNL     1       7.014   8.322  17.452  0.00  0.00    +0.000 F 
ENDBRANCH   4  15
TORSDOF 3
ENDMDL
MODEL 6
REMARK VINA RESULT:      -6.6      4.419      6.056
REMARK  Name = 
REMARK  3 active torsions:
REMARK  status: ('A' for Active; 'I' for Inactive)
REMARK    1  A    between atoms: O_1  and  C_2
REMARK    2  A    between atoms: N_5  and  C_6
REMARK    3  A    between atoms: C_9  and  C_10
REMARK                            x       y       z     vdW  Elec       q    Type
REMARK                         _______ _______ _______ _____ _____    ______ ____
ROOT
ATOM      1  C   UNL     1       3.549   4.368  18.197  0.00  0.00    +0.000 A 
ATOM      2  N   UNL     1       4.161   3.248  17.724  0.00  0.00    +0.000 NA
ATOM      3  C   UNL     1       5.056   3.344  16.710  0.00  0.00    +0.000 A 
ATOM      4  C   UNL     1       5.397   4.531  16.093  0.00  0.00    +0.000 A 
ATOM      5  C   UNL     1       4.790   5.688  16.577  0.00  0.00    +0.000 A 
ATOM      6  C   UNL     1       3.864   5.617  17.625  0.00  0.00    +0.000 A 
ATOM      7 CL   UNL     1       3.101   7.105  18.071  0.00  0.00    +0.000 Cl
ENDROOT
BRANCH   1  11
ATOM      8  C   UNL     1       1.832   2.666  20.844  0.00  0.00    +0.000 C 
ATOM      9  C   UNL     1       0.641   3.232  20.085  0.00  0.00    +0.000 C 
ATOM     10  C   UNL     1       1.265   3.716  18.785  0.00  0.00    +0.000 C 
ATOM     11  N   UNL     1       2.592   4.190  19.181  0.00  0.00    +0.000 N 
ATOM     12  C   UNL     1       2.951   3.659  20.502  0.00  0.00    +0.000 C 
BRANCH   8  13
ATOM     13  O   UNL     1       1.573   2.600  22.238  0.00  0.00    +0.000 OA
ATOM     14  H   UNL     1       1.229   3.466  22.514  0.00  0.00    +0.000 HD
ENDBRANCH   8  13
ENDBRANCH   1  11
BRANCH   4  15
ATOM     15  C   UNL     1       6.341   4.564  14.933  0.00  0.00    +0.000 C 
ATOM     16  F   UNL     1       6.194   5.660  14.139  0.00  0.00    +0.000 F 
ATOM     17  F   UNL     1       7.643   4.563  15.329  0.00  0.00    +0.000 F 
ATOM     18  F   UNL     1       6.201   3.487  14.113  0.00  0.00    +0.000 F 
ENDBRANCH   4  15
TORSDOF 3
ENDMDL
MODEL 7
REMARK VINA RESULT:      -6.6      0.882      1.055
REMARK  Name = 
REMARK  3 active torsions:
REMARK  status: ('A' for Active; 'I' for Inactive)
REMARK    1  A    between atoms: O_1  and  C_2
REMARK    2  A    between atoms: N_5  and  C_6
REMARK    3  A    between atoms: C_9  and  C_10
REMARK                            x       y       z     vdW  Elec       q    Type
REMARK                         _______ _______ _______ _____ _____    ______ ____
ROOT
ATOM      1  C   UNL     1       4.214   5.202  17.932  0.00  0.00    +0.000 A 
ATOM      2  N   UNL     1       4.412   3.919  18.342  0.00  0.00    +0.000 NA
ATOM      3  C   UNL     1       3.524   3.334  19.182  0.00  0.00    +0.000 A 
ATOM      4  C   UNL     1       2.401   3.964  19.677  0.00  0.00    +0.000 A 
ATOM      5  C   UNL     1       2.176   5.273  19.253  0.00  0.00    +0.000 A 
ATOM      6  C   UNL     1       3.077   5.900  18.385  0.00  0.00    +0.000 A 
ATOM      7 CL   UNL     1       2.747   7.557  18.010  0.00  0.00    +0.000 Cl
ENDROOT
BRANCH   1  11
ATOM      8  C   UNL     1       7.120   5.242  15.832  0.00  0.00    +0.000 C 
ATOM      9  C   UNL     1       7.392   6.479  16.675  0.00  0.00    +0.000 C 
ATOM     10  C   UNL     1       6.361   6.367  17.787  0.00  0.00    +0.000 C 
ATOM     11  N   UNL     1       5.198   5.764  17.136  0.00  0.00    +0.000 N 
ATOM     12  C   UNL     1       5.589   5.145  15.862  0.00  0.00    +0.000 C 
BRANCH   8  13
ATOM     13  O   UNL     1       7.627   5.391  14.515  0.00  0.00    +0.000 OA
ATOM     14  H   UNL     1       7.425   6.296  14.223  0.00  0.00    +0.000 HD
ENDBRANCH   8  13
ENDBRANCH   1  11
BRANCH   4  15
ATOM     15  C   UNL     1       1.493   3.287  20.656  0.00  0.00    +0.000 C 
ATOM     16  F   UNL     1       1.510   1.928  20.567  0.00  0.00    +0.000 F 
ATOM     17  F   UNL     1       1.818   3.580  21.945  0.00  0.00    +0.000 F 
ATOM     18  F   UNL     1       0.193   3.656  20.505  0.00  0.00    +0.000 F 
ENDBRANCH   4  15
TORSDOF 3
ENDMDL
MODEL 8
REMARK VINA RESULT:      -6.6      4.704      6.346
REMARK  Name = 
REMARK  3 active torsions:
REMARK  status: ('A' for Active; 'I' for Inactive)
REMARK    1  A    between atoms: O_1  and  C_2
REMARK    2  A    between atoms: N_5  and  C_6
REMARK    3  A    between atoms: C_9  and  C_10
REMARK                            x       y       z     vdW  Elec       q    Type
REMARK                         _______ _______ _______ _____ _____    ______ ____
ROOT
ATOM      1  C   UNL     1       3.556   5.246  19.168  0.00  0.00    +0.000 A 
ATOM      2  N   UNL     1       4.754   4.658  19.440  0.00  0.00    +0.000 NA
ATOM      3  C   UNL     1       5.893   5.173  18.919  0.00  0.00    +0.000 A 
ATOM      4  C   UNL     1       5.933   6.281  18.097  0.00  0.00    +0.000 A 
ATOM      5  C   UNL     1       4.716   6.904  17.823  0.00  0.00    +0.000 A 
ATOM      6  C   UNL     1       3.524   6.393  18.350  0.00  0.00    +0.000 A 
ATOM      7 CL   UNL     1       2.069   7.189  17.859  0.00  0.00    +0.000 Cl
ENDROOT
BRANCH   1  11
ATOM      8  C   UNL     1       1.693   2.808  21.024  0.00  0.00    +0.000 C 
ATOM      9  C   UNL     1       0.831   2.897  19.773  0.00  0.00    +0.000 C 
ATOM     10  C   UNL     1       1.707   3.684  18.811  0.00  0.00    +0.000 C 
ATOM     11  N   UNL     1       2.425   4.625  19.671  0.00  0.00    +0.000 N 
ATOM     12  C   UNL     1       2.357   4.191  21.073  0.00  0.00    +0.000 C 
BRANCH   8  13
ATOM     13  O   UNL     1       0.908   2.543  22.176  0.00  0.00    +0.000 OA
ATOM     14  H   UNL     1      -0.019   2.729  21.949  0.00  0.00    +0.000 HD
ENDBRANCH   8  13
ENDBRANCH   1  11
BRANCH   4  15
ATOM     15  C   UNL     1       7.216   6.763  17.496  0.00  0.00    +0.000 C 
ATOM     16  F   UNL     1       8.289   6.635  18.324  0.00  0.00    +0.000 F 
ATOM     17  F   UNL     1       7.538   6.083  16.362  0.00  0.00    +0.000 F 
ATOM     18  F   UNL     1       7.169   8.076  17.144  0.00  0.00    +0.000 F 
ENDBRANCH   4  15
TORSDOF 3
ENDMDL
MODEL 9
REMARK VINA RESULT:      -6.6      4.442      6.071
REMARK  Name = 
REMARK  3 active torsions:
REMARK  status: ('A' for Active; 'I' for Inactive)
REMARK    1  A    between atoms: O_1  and  C_2
REMARK    2  A    between atoms: N_5  and  C_6
REMARK    3  A    between atoms: C_9  and  C_10
REMARK                            x       y       z     vdW  Elec       q    Type
REMARK                         _______ _______ _______ _____ _____    ______ ____
ROOT
ATOM      1  C   UNL     1       3.517   4.456  18.212  0.00  0.00    +0.000 A 
ATOM      2  N   UNL     1       4.165   3.367  17.715  0.00  0.00    +0.000 NA
ATOM      3  C   UNL     1       5.068   3.516  16.715  0.00  0.00    +0.000 A 
ATOM      4  C   UNL     1       5.383   4.728  16.135  0.00  0.00    +0.000 A 
ATOM      5  C   UNL     1       4.739   5.854  16.645  0.00  0.00    +0.000 A 
ATOM      6  C   UNL     1       3.804   5.728  17.679  0.00  0.00    +0.000 A 
ATOM      7 CL   UNL     1       2.997   7.181  18.159  0.00  0.00    +0.000 Cl
ENDROOT
BRANCH   1  11
ATOM      8  C   UNL     1       1.854   2.660  20.832  0.00  0.00    +0.000 C 
ATOM      9  C   UNL     1       0.647   3.157  20.051  0.00  0.00    +0.000 C 
ATOM     10  C   UNL     1       1.265   3.675  18.762  0.00  0.00    +0.000 C 
ATOM     11  N   UNL     1       2.555   4.224  19.180  0.00  0.00    +0.000 N 
ATOM     12  C   UNL     1       2.921   3.715  20.508  0.00  0.00    +0.000 C 
BRANCH   8  13
ATOM     13  O   UNL     1       1.576   2.580  22.221  0.00  0.00    +0.000 OA
ATOM     14  H   UNL     1       2.300   2.084  22.638  0.00  0.00    +0.000 HD
ENDBRANCH   8  13
ENDBRANCH   1  11
BRANCH   4  15
ATOM     15  C   UNL     1       6.338   4.819  14.987  0.00  0.00    +0.000 C 
ATOM     16  F   UNL     1       6.624   3.617  14.417  0.00  0.00    +0.000 F 
ATOM     17  F   UNL     1       5.859   5.603  13.982  0.00  0.00    +0.000 F 
ATOM     18  F   UNL     1       7.535   5.359  15.343  0.00  0.00    +0.000 F 
ENDBRANCH   4  15
TORSDOF 3
ENDMDL
