MODEL 1
REMARK VINA RESULT:      -7.8      0.000      0.000
REMARK  Name = 
REMARK  10 active torsions:
REMARK  status: ('A' for Active; 'I' for Inactive)
REMARK    1  A    between atoms: C_1  and  C_2
REMARK    2  A    between atoms: C_3  and  C_4
REMARK    3  A    between atoms: N_6  and  C_7
REMARK    4  A    between atoms: C_7  and  C_8
REMARK    5  A    between atoms: C_8  and  C_9
REMARK    6  A    between atoms: C_8  and  C_10
REMARK    7  A    between atoms: N_13  and  C_14
REMARK    8  A    between atoms: N_22  and  C_23
REMARK    9  A    between atoms: C_23  and  C_24
REMARK   10  A    between atoms: C_23  and  C_25
REMARK                            x       y       z     vdW  Elec       q    Type
REMARK                         _______ _______ _______ _____ _____    ______ ____
ROOT
ATOM      1  C   UNL     1       3.737   4.037  16.099  0.00  0.00    +0.000 C 
ATOM      2  C   UNL     1       5.021   4.194  16.829  0.00  0.00    +0.000 A 
ATOM      3  C   UNL     1       6.314   4.419  16.377  0.00  0.00    +0.000 A 
ATOM      4  N   UNL     1       7.133   4.631  17.456  0.00  0.00    +0.000 NA
ATOM      5  N   UNL     1       6.404   4.535  18.552  0.00  0.00    +0.000 NA
ATOM      6  N   UNL     1       5.122   4.252  18.214  0.00  0.00    +0.000 N 
ENDROOT
BRANCH   6   7
ATOM      7  C   UNL     1       4.143   4.004  19.221  0.00  0.00    +0.000 A 
ATOM      8  C   UNL     1       4.191   2.800  19.948  0.00  0.00    +0.000 A 
ATOM      9  C   UNL     1       3.297   2.556  20.995  0.00  0.00    +0.000 A 
ATOM     10  C   UNL     1       2.351   3.514  21.348  0.00  0.00    +0.000 A 
ATOM     11  C   UNL     1       2.293   4.724  20.649  0.00  0.00    +0.000 A 
ATOM     12  C   UNL     1       3.171   4.960  19.562  0.00  0.00    +0.000 A 
ATOM     13  C   UNL     1       2.895   6.257  18.841  0.00  0.00    +0.000 C 
ATOM     14  C   UNL     1       2.790   7.346  19.907  0.00  0.00    +0.000 C 
ATOM     15  N   UNL     1       1.645   7.181  20.827  0.00  0.00    +0.000 NA
ATOM     16  C   UNL     1       1.220   5.761  20.953  0.00  0.00    +0.000 C 
BRANCH  15  17
ATOM     17  C   UNL     1       0.514   8.086  20.510  0.00  0.00    +0.000 C 
ATOM     18  C   UNL     1      -0.245   8.538  21.770  0.00  0.00    +0.000 C 
ATOM     19  C   UNL     1       0.971   9.368  19.787  0.00  0.00    +0.000 C 
ENDBRANCH  15  17
ENDBRANCH   6   7
BRANCH   3  20
ATOM     20  C   UNL     1       6.827   4.474  15.007  0.00  0.00    +0.000 C 
ATOM     21  O   UNL     1       7.770   5.179  14.672  0.00  0.00    +0.000 OA
ATOM     22  N   UNL     1       6.144   3.659  14.126  0.00  0.00    +0.000 N 
ATOM     23  H   UNL     1       5.403   3.077  14.510  0.00  0.00    +0.000 HD
BRANCH  22  24
ATOM     24  C   UNL     1       6.484   3.535  12.719  0.00  0.00    +0.000 C 
BRANCH  24  25
ATOM     25  C   UNL     1       5.622   2.496  11.988  0.00  0.00    +0.000 C 
ATOM     26  C   UNL     1       4.438   3.147  11.268  0.00  0.00    +0.000 C 
ATOM     27  C   UNL     1       6.462   1.712  10.977  0.00  0.00    +0.000 C 
ENDBRANCH  24  25
ENDBRANCH  22  24
ENDBRANCH   3  20
TORSDOF 5
ENDMDL
MODEL 2
REMARK VINA RESULT:      -7.7      3.044      8.789
REMARK  Name = 
REMARK  10 active torsions:
REMARK  status: ('A' for Active; 'I' for Inactive)
REMARK    1  A    between atoms: C_1  and  C_2
REMARK    2  A    between atoms: C_3  and  C_4
REMARK    3  A    between atoms: N_6  and  C_7
REMARK    4  A    between atoms: C_7  and  C_8
REMARK    5  A    between atoms: C_8  and  C_9
REMARK    6  A    between atoms: C_8  and  C_10
REMARK    7  A    between atoms: N_13  and  C_14
REMARK    8  A    between atoms: N_22  and  C_23
REMARK    9  A    between atoms: C_23  and  C_24
REMARK   10  A    between atoms: C_23  and  C_25
REMARK                            x       y       z     vdW  Elec       q    Type
REMARK                         _______ _______ _______ _____ _____    ______ ____
ROOT
ATOM      1  C   UNL     1       1.480   8.579  21.677  0.00  0.00    +0.000 C 
ATOM      2  C   UNL     1       1.458   8.669  20.195  0.00  0.00    +0.000 A 
ATOM      3  C   UNL     1       1.081   9.698  19.342  0.00  0.00    +0.000 A 
ATOM      4  N   UNL     1       1.380   9.340  18.053  0.00  0.00    +0.000 NA
ATOM      5  N   UNL     1       1.914   8.133  18.073  0.00  0.00    +0.000 NA
ATOM      6  N   UNL     1       1.959   7.684  19.352  0.00  0.00    +0.000 N 
ENDROOT
BRANCH   6   7
ATOM      7  C   UNL     1       2.408   6.363  19.642  0.00  0.00    +0.000 A 
ATOM      8  C   UNL     1       1.708   5.588  20.586  0.00  0.00    +0.000 A 
ATOM      9  C   UNL     1       2.070   4.262  20.839  0.00  0.00    +0.000 A 
ATOM     10  C   UNL     1       3.127   3.679  20.146  0.00  0.00    +0.000 A 
ATOM     11  C   UNL     1       3.830   4.424  19.194  0.00  0.00    +0.000 A 
ATOM     12  C   UNL     1       3.491   5.781  18.961  0.00  0.00    +0.000 A 
ATOM     13  C   UNL     1       4.423   6.473  17.997  0.00  0.00    +0.000 C 
ATOM     14  C   UNL     1       4.558   5.564  16.776  0.00  0.00    +0.000 C 
ATOM     15  N   UNL     1       5.209   4.268  17.059  0.00  0.00    +0.000 NA
ATOM     16  C   UNL     1       5.041   3.846  18.475  0.00  0.00    +0.000 C 
BRANCH  15  17
ATOM     17  C   UNL     1       6.625   4.225  16.619  0.00  0.00    +0.000 C 
ATOM     18  C   UNL     1       6.863   5.036  15.333  0.00  0.00    +0.000 C 
ATOM     19  C   UNL     1       7.588   4.791  17.681  0.00  0.00    +0.000 C 
ENDBRANCH  15  17
ENDBRANCH   6   7
BRANCH   3  20
ATOM     20  C   UNL     1       0.487  10.999  19.655  0.00  0.00    +0.000 C 
ATOM     21  O   UNL     1       0.906  12.054  19.200  0.00  0.00    +0.000 OA
ATOM     22  N   UNL     1      -0.590  10.924  20.517  0.00  0.00    +0.000 N 
ATOM     23  H   UNL     1      -0.890   9.995  20.806  0.00  0.00    +0.000 HD
BRANCH  22  24
ATOM     24  C   UNL     1      -1.349  12.081  20.955  0.00  0.00    +0.000 C 
BRANCH  24  25
ATOM     25  C   UNL     1      -1.575  12.105  22.474  0.00  0.00    +0.000 C 
ATOM     26  C   UNL     1      -3.040  12.380  22.825  0.00  0.00    +0.000 C 
ATOM     27  C   UNL     1      -1.142  10.780  23.105  0.00  0.00    +0.000 C 
ENDBRANCH  24  25
ENDBRANCH  22  24
ENDBRANCH   3  20
TORSDOF 5
ENDMDL
MODEL 3
REMARK VINA RESULT:      -7.6      4.181      7.478
REMARK  Name = 
REMARK  10 active torsions:
REMARK  status: ('A' for Active; 'I' for Inactive)
REMARK    1  A    between atoms: C_1  and  C_2
REMARK    2  A    between atoms: C_3  and  C_4
REMARK    3  A    between atoms: N_6  and  C_7
REMARK    4  A    between atoms: C_7  and  C_8
REMARK    5  A    between atoms: C_8  and  C_9
REMARK    6  A    between atoms: C_8  and  C_10
REMARK    7  A    between atoms: N_13  and  C_14
REMARK    8  A    between atoms: N_22  and  C_23
REMARK    9  A    between atoms: C_23  and  C_24
REMARK   10  A    between atoms: C_23  and  C_25
REMARK                            x       y       z     vdW  Elec       q    Type
REMARK                         _______ _______ _______ _____ _____    ______ ____
ROOT
ATOM      1  C   UNL     1       1.091   7.757  20.759  0.00  0.00    +0.000 C 
ATOM      2  C   UNL     1       1.598   8.249  19.453  0.00  0.00    +0.000 A 
ATOM      3  C   UNL     1       2.437   7.664  18.513  0.00  0.00    +0.000 A 
ATOM      4  N   UNL     1       2.490   8.467  17.403  0.00  0.00    +0.000 NA
ATOM      5  N   UNL     1       1.732   9.525  17.622  0.00  0.00    +0.000 NA
ATOM      6  N   UNL     1       1.190   9.439  18.862  0.00  0.00    +0.000 N 
ENDROOT
BRANCH   6   7
ATOM      7  C   UNL     1       0.400  10.504  19.385  0.00  0.00    +0.000 A 
ATOM      8  C   UNL     1       0.974  11.402  20.304  0.00  0.00    +0.000 A 
ATOM      9  C   UNL     1       0.256  12.504  20.778  0.00  0.00    +0.000 A 
ATOM     10  C   UNL     1      -1.042  12.740  20.333  0.00  0.00    +0.000 A 
ATOM     11  C   UNL     1      -1.629  11.869  19.410  0.00  0.00    +0.000 A 
ATOM     12  C   UNL     1      -0.919  10.730  18.955  0.00  0.00    +0.000 A 
ATOM     13  C   UNL     1      -1.739   9.832  18.061  0.00  0.00    +0.000 C 
ATOM     14  C   UNL     1      -2.384  10.725  17.002  0.00  0.00    +0.000 C 
ATOM     15  N   UNL     1      -3.355  11.698  17.545  0.00  0.00    +0.000 NA
ATOM     16  C   UNL     1      -3.074  12.050  18.962  0.00  0.00    +0.000 C 
BRANCH  15  17
ATOM     17  C   UNL     1      -4.764  11.287  17.332  0.00  0.00    +0.000 C 
ATOM     18  C   UNL     1      -5.347  10.542  18.546  0.00  0.00    +0.000 C 
ATOM     19  C   UNL     1      -5.693  12.488  17.064  0.00  0.00    +0.000 C 
ENDBRANCH  15  17
ENDBRANCH   6   7
BRANCH   3  20
ATOM     20  C   UNL     1       3.166   6.397  18.574  0.00  0.00    +0.000 C 
ATOM     21  O   UNL     1       4.388   6.327  18.595  0.00  0.00    +0.000 OA
ATOM     22  N   UNL     1       2.347   5.286  18.599  0.00  0.00    +0.000 N 
ATOM     23  H   UNL     1       1.343   5.449  18.623  0.00  0.00    +0.000 HD
BRANCH  22  24
ATOM     24  C   UNL     1       2.845   3.924  18.678  0.00  0.00    +0.000 C 
BRANCH  24  25
ATOM     25  C   UNL     1       1.992   3.030  19.591  0.00  0.00    +0.000 C 
ATOM     26  C   UNL     1       1.235   3.850  20.639  0.00  0.00    +0.000 C 
ATOM     27  C   UNL     1       0.994   2.213  18.768  0.00  0.00    +0.000 C 
ENDBRANCH  24  25
ENDBRANCH  22  24
ENDBRANCH   3  20
TORSDOF 5
ENDMDL
MODEL 4
REMARK VINA RESULT:      -7.6      3.428      8.239
REMARK  Name = 
REMARK  10 active torsions:
REMARK  status: ('A' for Active; 'I' for Inactive)
REMARK    1  A    between atoms: C_1  and  C_2
REMARK    2  A    between atoms: C_3  and  C_4
REMARK    3  A    between atoms: N_6  and  C_7
REMARK    4  A    between atoms: C_7  and  C_8
REMARK    5  A    between atoms: C_8  and  C_9
REMARK    6  A    between atoms: C_8  and  C_10
REMARK    7  A    between atoms: N_13  and  C_14
REMARK    8  A    between atoms: N_22  and  C_23
REMARK    9  A    between atoms: C_23  and  C_24
REMARK   10  A    between atoms: C_23  and  C_25
REMARK                            x       y       z     vdW  Elec       q    Type
REMARK                         _______ _______ _______ _____ _____    ______ ____
ROOT
ATOM      1  C   UNL     1       0.852   8.586  21.078  0.00  0.00    +0.000 C 
ATOM      2  C   UNL     1       1.273   8.711  19.659  0.00  0.00    +0.000 A 
ATOM      3  C   UNL     1       1.068   9.719  18.726  0.00  0.00    +0.000 A 
ATOM      4  N   UNL     1       1.780   9.426  17.591  0.00  0.00    +0.000 NA
ATOM      5  N   UNL     1       2.404   8.278  17.780  0.00  0.00    +0.000 NA
ATOM      6  N   UNL     1       2.105   7.803  19.015  0.00  0.00    +0.000 N 
ENDROOT
BRANCH   6   7
ATOM      7  C   UNL     1       2.578   6.527  19.436  0.00  0.00    +0.000 A 
ATOM      8  C   UNL     1       1.908   5.851  20.473  0.00  0.00    +0.000 A 
ATOM      9  C   UNL     1       2.294   4.564  20.860  0.00  0.00    +0.000 A 
ATOM     10  C   UNL     1       3.344   3.922  20.211  0.00  0.00    +0.000 A 
ATOM     11  C   UNL     1       4.017   4.567  19.170  0.00  0.00    +0.000 A 
ATOM     12  C   UNL     1       3.654   5.887  18.799  0.00  0.00    +0.000 A 
ATOM     13  C   UNL     1       4.557   6.481  17.746  0.00  0.00    +0.000 C 
ATOM     14  C   UNL     1       4.680   5.447  16.628  0.00  0.00    +0.000 C 
ATOM     15  N   UNL     1       5.355   4.197  17.035  0.00  0.00    +0.000 NA
ATOM     16  C   UNL     1       5.221   3.929  18.491  0.00  0.00    +0.000 C 
BRANCH  15  17
ATOM     17  C   UNL     1       6.762   4.123  16.571  0.00  0.00    +0.000 C 
ATOM     18  C   UNL     1       7.008   4.972  15.311  0.00  0.00    +0.000 C 
ATOM     19  C   UNL     1       7.759   4.617  17.638  0.00  0.00    +0.000 C 
ENDBRANCH  15  17
ENDBRANCH   6   7
BRANCH   3  20
ATOM     20  C   UNL     1       0.276  10.945  18.834  0.00  0.00    +0.000 C 
ATOM     21  O   UNL     1       0.632  11.917  19.487  0.00  0.00    +0.000 OA
ATOM     22  N   UNL     1      -0.914  10.900  18.135  0.00  0.00    +0.000 N 
ATOM     23  H   UNL     1      -1.099  10.064  17.585  0.00  0.00    +0.000 HD
BRANCH  22  24
ATOM     24  C   UNL     1      -1.854  12.005  18.081  0.00  0.00    +0.000 C 
BRANCH  24  25
ATOM     25  C   UNL     1      -3.280  11.556  17.728  0.00  0.00    +0.000 C 
ATOM     26  C   UNL     1      -3.354  10.048  17.476  0.00  0.00    +0.000 C 
ATOM     27  C   UNL     1      -4.257  11.933  18.844  0.00  0.00    +0.000 C 
ENDBRANCH  24  25
ENDBRANCH  22  24
ENDBRANCH   3  20
TORSDOF 5
ENDMDL
MODEL 5
REMARK VINA RESULT:      -7.5      3.847      6.940
REMARK  Name = 
REMARK  10 active torsions:
REMARK  status: ('A' for Active; 'I' for Inactive)
REMARK    1  A    between atoms: C_1  and  C_2
REMARK    2  A    between atoms: C_3  and  C_4
REMARK    3  A    between atoms: N_6  and  C_7
REMARK    4  A    between atoms: C_7  and  C_8
REMARK    5  A    between atoms: C_8  and  C_9
REMARK    6  A    between atoms: C_8  and  C_10
REMARK    7  A    between atoms: N_13  and  C_14
REMARK    8  A    between atoms: N_22  and  C_23
REMARK    9  A    between atoms: C_23  and  C_24
REMARK   10  A    between atoms: C_23  and  C_25
REMARK                            x       y       z     vdW  Elec       q    Type
REMARK                         _______ _______ _______ _____ _____    ______ ____
ROOT
ATOM      1  C   UNL     1       1.548   7.241  20.513  0.00  0.00    +0.000 C 
ATOM      2  C   UNL     1       1.966   7.949  19.276  0.00  0.00    +0.000 A 
ATOM      3  C   UNL     1       2.817   7.573  18.245  0.00  0.00    +0.000 A 
ATOM      4  N   UNL     1       2.765   8.521  17.256  0.00  0.00    +0.000 NA
ATOM      5  N   UNL     1       1.929   9.469  17.637  0.00  0.00    +0.000 NA
ATOM      6  N   UNL     1       1.439   9.167  18.865  0.00  0.00    +0.000 N 
ENDROOT
BRANCH   6   7
ATOM      7  C   UNL     1       0.581  10.077  19.548  0.00  0.00    +0.000 A 
ATOM      8  C   UNL     1       1.021  10.674  20.745  0.00  0.00    +0.000 A 
ATOM      9  C   UNL     1       0.241  11.631  21.402  0.00  0.00    +0.000 A 
ATOM     10  C   UNL     1      -0.984  12.022  20.869  0.00  0.00    +0.000 A 
ATOM     11  C   UNL     1      -1.437  11.454  19.675  0.00  0.00    +0.000 A 
ATOM     12  C   UNL     1      -0.667  10.456  19.025  0.00  0.00    +0.000 A 
ATOM     13  C   UNL     1      -1.354   9.861  17.821  0.00  0.00    +0.000 C 
ATOM     14  C   UNL     1      -1.851  11.028  16.969  0.00  0.00    +0.000 C 
ATOM     15  N   UNL     1      -2.891  11.850  17.622  0.00  0.00    +0.000 NA
ATOM     16  C   UNL     1      -2.807  11.797  19.106  0.00  0.00    +0.000 C 
BRANCH  15  17
ATOM     17  C   UNL     1      -4.256  11.560  17.120  0.00  0.00    +0.000 C 
ATOM     18  C   UNL     1      -4.239  10.738  15.820  0.00  0.00    +0.000 C 
ATOM     19  C   UNL     1      -5.098  10.763  18.136  0.00  0.00    +0.000 C 
ENDBRANCH  15  17
ENDBRANCH   6   7
BRANCH   3  20
ATOM     20  C   UNL     1       3.652   6.378  18.113  0.00  0.00    +0.000 C 
ATOM     21  O   UNL     1       3.241   5.246  18.329  0.00  0.00    +0.000 OA
ATOM     22  N   UNL     1       4.950   6.649  17.727  0.00  0.00    +0.000 N 
ATOM     23  H   UNL     1       5.184   7.619  17.528  0.00  0.00    +0.000 HD
BRANCH  22  24
ATOM     24  C   UNL     1       5.955   5.621  17.515  0.00  0.00    +0.000 C 
BRANCH  24  25
ATOM     25  C   UNL     1       7.383   6.122  17.777  0.00  0.00    +0.000 C 
ATOM     26  C   UNL     1       7.510   7.628  17.532  0.00  0.00    +0.000 C 
ATOM     27  C   UNL     1       7.812   5.803  19.211  0.00  0.00    +0.000 C 
ENDBRANCH  24  25
ENDBRANCH  22  24
ENDBRANCH   3  20
TORSDOF 5
ENDMDL
MODEL 6
REMARK VINA RESULT:      -7.4      3.504      8.335
REMARK  Name = 
REMARK  10 active torsions:
REMARK  status: ('A' for Active; 'I' for Inactive)
REMARK    1  A    between atoms: C_1  and  C_2
REMARK    2  A    between atoms: C_3  and  C_4
REMARK    3  A    between atoms: N_6  and  C_7
REMARK    4  A    between atoms: C_7  and  C_8
REMARK    5  A    between atoms: C_8  and  C_9
REMARK    6  A    between atoms: C_8  and  C_10
REMARK    7  A    between atoms: N_13  and  C_14
REMARK    8  A    between atoms: N_22  and  C_23
REMARK    9  A    between atoms: C_23  and  C_24
REMARK   10  A    between atoms: C_23  and  C_25
REMARK                            x       y       z     vdW  Elec       q    Type
REMARK                         _______ _______ _______ _____ _____    ______ ____
ROOT
ATOM      1  C   UNL     1       1.359   8.842  21.426  0.00  0.00    +0.000 C 
ATOM      2  C   UNL     1       1.397   8.845  19.942  0.00  0.00    +0.000 A 
ATOM      3  C   UNL     1       1.033   9.813  19.015  0.00  0.00    +0.000 A 
ATOM      4  N   UNL     1       1.393   9.388  17.762  0.00  0.00    +0.000 NA
ATOM      5  N   UNL     1       1.951   8.197  17.875  0.00  0.00    +0.000 NA
ATOM      6  N   UNL     1       1.954   7.825  19.179  0.00  0.00    +0.000 N 
ENDROOT
BRANCH   6   7
ATOM      7  C   UNL     1       2.419   6.535  19.565  0.00  0.00    +0.000 A 
ATOM      8  C   UNL     1       1.732   5.825  20.568  0.00  0.00    +0.000 A 
ATOM      9  C   UNL     1       2.111   4.526  20.918  0.00  0.00    +0.000 A 
ATOM     10  C   UNL     1       3.170   3.904  20.265  0.00  0.00    +0.000 A 
ATOM     11  C   UNL     1       3.860   4.583  19.256  0.00  0.00    +0.000 A 
ATOM     12  C   UNL     1       3.505   5.915  18.924  0.00  0.00    +0.000 A 
ATOM     13  C   UNL     1       4.424   6.543  17.905  0.00  0.00    +0.000 C 
ATOM     14  C   UNL     1       4.564   5.546  16.755  0.00  0.00    +0.000 C 
ATOM     15  N   UNL     1       5.231   4.282  17.131  0.00  0.00    +0.000 NA
ATOM     16  C   UNL     1       5.075   3.966  18.576  0.00  0.00    +0.000 C 
BRANCH  15  17
ATOM     17  C   UNL     1       6.645   4.222  16.687  0.00  0.00    +0.000 C 
ATOM     18  C   UNL     1       6.899   5.066  15.426  0.00  0.00    +0.000 C 
ATOM     19  C   UNL     1       7.622   4.734  17.765  0.00  0.00    +0.000 C 
ENDBRANCH  15  17
ENDBRANCH   6   7
BRANCH   3  20
ATOM     20  C   UNL     1       0.398  11.115  19.226  0.00  0.00    +0.000 C 
ATOM     21  O   UNL     1      -0.583  11.274  19.940  0.00  0.00    +0.000 OA
ATOM     22  N   UNL     1       1.005  12.146  18.537  0.00  0.00    +0.000 N 
ATOM     23  H   UNL     1       1.842  11.920  18.004  0.00  0.00    +0.000 HD
BRANCH  22  24
ATOM     24  C   UNL     1       0.562  13.528  18.607  0.00  0.00    +0.000 C 
BRANCH  24  25
ATOM     25  C   UNL     1       1.691  14.496  18.991  0.00  0.00    +0.000 C 
ATOM     26  C   UNL     1       2.082  14.355  20.464  0.00  0.00    +0.000 C 
ATOM     27  C   UNL     1       2.924  14.264  18.115  0.00  0.00    +0.000 C 
ENDBRANCH  24  25
ENDBRANCH  22  24
ENDBRANCH   3  20
TORSDOF 5
ENDMDL
MODEL 7
REMARK VINA RESULT:      -7.4      3.405      8.593
REMARK  Name = 
REMARK  10 active torsions:
REMARK  status: ('A' for Active; 'I' for Inactive)
REMARK    1  A    between atoms: C_1  and  C_2
REMARK    2  A    between atoms: C_3  and  C_4
REMARK    3  A    between atoms: N_6  and  C_7
REMARK    4  A    between atoms: C_7  and  C_8
REMARK    5  A    between atoms: C_8  and  C_9
REMARK    6  A    between atoms: C_8  and  C_10
REMARK    7  A    between atoms: N_13  and  C_14
REMARK    8  A    between atoms: N_22  and  C_23
REMARK    9  A    between atoms: C_23  and  C_24
REMARK   10  A    between atoms: C_23  and  C_25
REMARK                            x       y       z     vdW  Elec       q    Type
REMARK                         _______ _______ _______ _____ _____    ______ ____
ROOT
ATOM      1  C   UNL     1       1.325   8.657  21.578  0.00  0.00    +0.000 C 
ATOM      2  C   UNL     1       1.419   8.762  20.100  0.00  0.00    +0.000 A 
ATOM      3  C   UNL     1       1.107   9.800  19.231  0.00  0.00    +0.000 A 
ATOM      4  N   UNL     1       1.507   9.455  17.965  0.00  0.00    +0.000 NA
ATOM      5  N   UNL     1       2.039   8.249  18.014  0.00  0.00    +0.000 NA
ATOM      6  N   UNL     1       1.986   7.787  19.288  0.00  0.00    +0.000 N 
ENDROOT
BRANCH   6   7
ATOM      7  C   UNL     1       2.414   6.463  19.599  0.00  0.00    +0.000 A 
ATOM      8  C   UNL     1       1.694   5.710  20.546  0.00  0.00    +0.000 A 
ATOM      9  C   UNL     1       2.035   4.382  20.819  0.00  0.00    +0.000 A 
ATOM     10  C   UNL     1       3.089   3.776  20.143  0.00  0.00    +0.000 A 
ATOM     11  C   UNL     1       3.811   4.499  19.189  0.00  0.00    +0.000 A 
ATOM     12  C   UNL     1       3.494   5.857  18.935  0.00  0.00    +0.000 A 
ATOM     13  C   UNL     1       4.444   6.524  17.971  0.00  0.00    +0.000 C 
ATOM     14  C   UNL     1       4.577   5.597  16.763  0.00  0.00    +0.000 C 
ATOM     15  N   UNL     1       5.208   4.296  17.068  0.00  0.00    +0.000 NA
ATOM     16  C   UNL     1       5.021   3.894  18.488  0.00  0.00    +0.000 C 
BRANCH  15  17
ATOM     17  C   UNL     1       6.626   4.228  16.641  0.00  0.00    +0.000 C 
ATOM     18  C   UNL     1       6.912   5.110  15.414  0.00  0.00    +0.000 C 
ATOM     19  C   UNL     1       7.596   4.686  17.749  0.00  0.00    +0.000 C 
ENDBRANCH  15  17
ENDBRANCH   6   7
BRANCH   3  20
ATOM     20  C   UNL     1       0.488  11.096  19.509  0.00  0.00    +0.000 C 
ATOM     21  O   UNL     1       1.077  12.016  20.062  0.00  0.00    +0.000 OA
ATOM     22  N   UNL     1      -0.827  11.183  19.095  0.00  0.00    +0.000 N 
ATOM     23  H   UNL     1      -1.214  10.379  18.605  0.00  0.00    +0.000 HD
BRANCH  22  24
ATOM     24  C   UNL     1      -1.639  12.377  19.249  0.00  0.00    +0.000 C 
BRANCH  24  25
ATOM     25  C   UNL     1      -3.082  12.064  19.675  0.00  0.00    +0.000 C 
ATOM     26  C   UNL     1      -3.699  13.215  20.473  0.00  0.00    +0.000 C 
ATOM     27  C   UNL     1      -3.954  11.769  18.452  0.00  0.00    +0.000 C 
ENDBRANCH  24  25
ENDBRANCH  22  24
ENDBRANCH   3  20
TORSDOF 5
ENDMDL
MODEL 8
REMARK VINA RESULT:      -7.4      3.906      7.129
REMARK  Name = 
REMARK  10 active torsions:
REMARK  status: ('A' for Active; 'I' for Inactive)
REMARK    1  A    between atoms: C_1  and  C_2
REMARK    2  A    between atoms: C_3  and  C_4
REMARK    3  A    between atoms: N_6  and  C_7
REMARK    4  A    between atoms: C_7  and  C_8
REMARK    5  A    between atoms: C_8  and  C_9
REMARK    6  A    between atoms: C_8  and  C_10
REMARK    7  A    between atoms: N_13  and  C_14
REMARK    8  A    between atoms: N_22  and  C_23
REMARK    9  A    between atoms: C_23  and  C_24
REMARK   10  A    between atoms: C_23  and  C_25
REMARK                            x       y       z     vdW  Elec       q    Type
REMARK                         _______ _______ _______ _____ _____    ______ ____
ROOT
ATOM      1  C   UNL     1       2.277   9.039  17.830  0.00  0.00    +0.000 C 
ATOM      2  C   UNL     1       1.869   8.314  19.060  0.00  0.00    +0.000 A 
ATOM      3  C   UNL     1       2.152   7.029  19.507  0.00  0.00    +0.000 A 
ATOM      4  N   UNL     1       1.656   6.880  20.776  0.00  0.00    +0.000 NA
ATOM      5  N   UNL     1       1.070   8.010  21.126  0.00  0.00    +0.000 NA
ATOM      6  N   UNL     1       1.161   8.897  20.104  0.00  0.00    +0.000 N 
ENDROOT
BRANCH   6   7
ATOM      7  C   UNL     1       0.526  10.170  20.189  0.00  0.00    +0.000 A 
ATOM      8  C   UNL     1       1.062  11.153  21.043  0.00  0.00    +0.000 A 
ATOM      9  C   UNL     1       0.514  12.438  21.094  0.00  0.00    +0.000 A 
ATOM     10  C   UNL     1      -0.568  12.772  20.284  0.00  0.00    +0.000 A 
ATOM     11  C   UNL     1      -1.110  11.817  19.419  0.00  0.00    +0.000 A 
ATOM     12  C   UNL     1      -0.582  10.501  19.391  0.00  0.00    +0.000 A 
ATOM     13  C   UNL     1      -1.357   9.565  18.497  0.00  0.00    +0.000 C 
ATOM     14  C   UNL     1      -1.539  10.276  17.157  0.00  0.00    +0.000 C 
ATOM     15  N   UNL     1      -2.371  11.495  17.230  0.00  0.00    +0.000 NA
ATOM     16  C   UNL     1      -2.343  12.121  18.579  0.00  0.00    +0.000 C 
BRANCH  15  17
ATOM     17  C   UNL     1      -3.752  11.282  16.732  0.00  0.00    +0.000 C 
ATOM     18  C   UNL     1      -3.808  10.263  15.580  0.00  0.00    +0.000 C 
ATOM     19  C   UNL     1      -4.699  10.760  17.830  0.00  0.00    +0.000 C 
ENDBRANCH  15  17
ENDBRANCH   6   7
BRANCH   3  20
ATOM     20  C   UNL     1       2.875   5.947  18.838  0.00  0.00    +0.000 C 
ATOM     21  O   UNL     1       4.093   5.833  18.872  0.00  0.00    +0.000 OA
ATOM     22  N   UNL     1       2.055   5.069  18.158  0.00  0.00    +0.000 N 
ATOM     23  H   UNL     1       1.051   5.223  18.226  0.00  0.00    +0.000 HD
BRANCH  22  24
ATOM     24  C   UNL     1       2.545   3.908  17.435  0.00  0.00    +0.000 C 
BRANCH  24  25
ATOM     25  C   UNL     1       2.206   2.584  18.135  0.00  0.00    +0.000 C 
ATOM     26  C   UNL     1       3.334   2.128  19.064  0.00  0.00    +0.000 C 
ATOM     27  C   UNL     1       0.910   2.714  18.939  0.00  0.00    +0.000 C 
ENDBRANCH  24  25
ENDBRANCH  22  24
ENDBRANCH   3  20
TORSDOF 5
ENDMDL
MODEL 9
REMARK VINA RESULT:      -7.3      4.586      7.730
REMARK  Name = 
REMARK  10 active torsions:
REMARK  status: ('A' for Active; 'I' for Inactive)
REMARK    1  A    between atoms: C_1  and  C_2
REMARK    2  A    between atoms: C_3  and  C_4
REMARK    3  A    between atoms: N_6  and  C_7
REMARK    4  A    between atoms: C_7  and  C_8
REMARK    5  A    between atoms: C_8  and  C_9
REMARK    6  A    between atoms: C_8  and  C_10
REMARK    7  A    between atoms: N_13  and  C_14
REMARK    8  A    between atoms: N_22  and  C_23
REMARK    9  A    between atoms: C_23  and  C_24
REMARK   10  A    between atoms: C_23  and  C_25
REMARK                            x       y       z     vdW  Elec       q    Type
REMARK                         _______ _______ _______ _____ _____    ______ ____
ROOT
ATOM      1  C   UNL     1       1.182   8.357  20.909  0.00  0.00    +0.000 C 
ATOM      2  C   UNL     1       1.692   8.590  19.534  0.00  0.00    +0.000 A 
ATOM      3  C   UNL     1       2.405   7.772  18.667  0.00  0.00    +0.000 A 
ATOM      4  N   UNL     1       2.516   8.400  17.453  0.00  0.00    +0.000 NA
ATOM      5  N   UNL     1       1.913   9.571  17.537  0.00  0.00    +0.000 NA
ATOM      6  N   UNL     1       1.418   9.731  18.790  0.00  0.00    +0.000 N 
ENDROOT
BRANCH   6   7
ATOM      7  C   UNL     1       0.798  10.956  19.174  0.00  0.00    +0.000 A 
ATOM      8  C   UNL     1       1.600  12.030  19.605  0.00  0.00    +0.000 A 
ATOM      9  C   UNL     1       1.035  13.270  19.915  0.00  0.00    +0.000 A 
ATOM     10  C   UNL     1      -0.337  13.468  19.785  0.00  0.00    +0.000 A 
ATOM     11  C   UNL     1      -1.152  12.421  19.346  0.00  0.00    +0.000 A 
ATOM     12  C   UNL     1      -0.589  11.150  19.067  0.00  0.00    +0.000 A 
ATOM     13  C   UNL     1      -1.619  10.102  18.725  0.00  0.00    +0.000 C 
ATOM     14  C   UNL     1      -2.540  10.709  17.667  0.00  0.00    +0.000 C 
ATOM     15  N   UNL     1      -3.328  11.864  18.145  0.00  0.00    +0.000 NA
ATOM     16  C   UNL     1      -2.665  12.577  19.270  0.00  0.00    +0.000 C 
BRANCH  15  17
ATOM     17  C   UNL     1      -4.738  11.516  18.445  0.00  0.00    +0.000 C 
ATOM     18  C   UNL     1      -5.209  12.095  19.791  0.00  0.00    +0.000 C 
ATOM     19  C   UNL     1      -5.714  12.041  17.374  0.00  0.00    +0.000 C 
ENDBRANCH  15  17
ENDBRANCH   6   7
BRANCH   3  20
ATOM     20  C   UNL     1       2.965   6.438  18.891  0.00  0.00    +0.000 C 
ATOM     21  O   UNL     1       4.167   6.208  18.897  0.00  0.00    +0.000 OA
ATOM     22  N   UNL     1       2.008   5.462  19.089  0.00  0.00    +0.000 N 
ATOM     23  H   UNL     1       1.035   5.762  19.111  0.00  0.00    +0.000 HD
BRANCH  22  24
ATOM     24  C   UNL     1       2.326   4.069  19.348  0.00  0.00    +0.000 C 
BRANCH  24  25
ATOM     25  C   UNL     1       1.134   3.283  19.916  0.00  0.00    +0.000 C 
ATOM     26  C   UNL     1       0.690   2.165  18.968  0.00  0.00    +0.000 C 
ATOM     27  C   UNL     1       1.483   2.683  21.280  0.00  0.00    +0.000 C 
ENDBRANCH  24  25
ENDBRANCH  22  24
ENDBRANCH   3  20
TORSDOF 5
ENDMDL
