MODEL 1
REMARK VINA RESULT:      -9.0      0.000      0.000
REMARK  Name = 
REMARK  6 active torsions:
REMARK  status: ('A' for Active; 'I' for Inactive)
REMARK    1  A    between atoms: C_2  and  C_27
REMARK    2  A    between atoms: N_3  and  C_4
REMARK    3  A    between atoms: C_7  and  C_8
REMARK    4  A    between atoms: C_8  and  C_9
REMARK    5  A    between atoms: C_9  and  N_10
REMARK    6  A    between atoms: C_13  and  C_14
REMARK                            x       y       z     vdW  Elec       q    Type
REMARK                         _______ _______ _______ _____ _____    ______ ____
ROOT
ATOM      1  C   UNL     1       1.811   7.517  20.542  0.00  0.00    +0.000 C 
ENDROOT
BRANCH   1   5
ATOM      2  C   UNL     1      -0.459  11.073  21.672  0.00  0.00    +0.000 C 
ATOM      3  C   UNL     1      -0.541   9.866  22.606  0.00  0.00    +0.000 C 
ATOM      4  C   UNL     1       0.576   8.865  22.322  0.00  0.00    +0.000 C 
ATOM      5  C   UNL     1       0.599   8.415  20.851  0.00  0.00    +0.000 C 
ATOM      6  C   UNL     1       0.627   9.629  19.908  0.00  0.00    +0.000 C 
ATOM      7  C   UNL     1      -0.491  10.621  20.210  0.00  0.00    +0.000 C 
BRANCH   2  10
ATOM      8  O   UNL     1      -0.335  13.438  23.238  0.00  0.00    +0.000 OA
ATOM      9  C   UNL     1      -1.409  13.092  22.759  0.00  0.00    +0.000 C 
ATOM     10  N   UNL     1      -1.551  11.995  21.930  0.00  0.00    +0.000 N 
ATOM     11  H   UNL     1      -2.483  11.705  21.663  0.00  0.00    +0.000 HD
BRANCH   9  12
ATOM     12  C   UNL     1      -2.711  13.848  22.979  0.00  0.00    +0.000 C 
ATOM     13  C   UNL     1      -3.240  13.749  24.393  0.00  0.00    +0.000 C 
ATOM     14  C   UNL     1      -4.039  12.463  24.364  0.00  0.00    +0.000 C 
ATOM     15  O   UNL     1      -4.543  12.319  23.030  0.00  0.00    +0.000 OA
ATOM     16  C   UNL     1      -3.838  13.228  22.173  0.00  0.00    +0.000 C 
ENDBRANCH   9  12
ENDBRANCH   2  10
ENDBRANCH   1   5
BRANCH   1  17
ATOM     17  C   UNL     1       1.620   6.072  21.020  0.00  0.00    +0.000 C 
BRANCH  17  18
ATOM     18  N   UNL     1       1.830   5.056  19.968  0.00  0.00    +0.000 NA
ATOM     19  C   UNL     1       2.085   5.696  18.667  0.00  0.00    +0.000 C 
ATOM     20  C   UNL     1       2.578   4.745  17.581  0.00  0.00    +0.000 C 
ATOM     21  C   UNL     1       3.742   3.854  18.025  0.00  0.00    +0.000 C 
ATOM     22  C   UNL     1       3.382   3.175  19.349  0.00  0.00    +0.000 C 
ATOM     23  C   UNL     1       2.908   4.156  20.415  0.00  0.00    +0.000 C 
BRANCH  21  24
ATOM     24  C   UNL     1       5.103   4.538  18.021  0.00  0.00    +0.000 A 
ATOM     25  C   UNL     1       5.752   4.984  19.189  0.00  0.00    +0.000 A 
ATOM     26  C   UNL     1       6.995   5.643  19.157  0.00  0.00    +0.000 A 
ATOM     27  C   UNL     1       7.635   5.872  17.949  0.00  0.00    +0.000 A 
ATOM     28  C   UNL     1       7.017   5.416  16.805  0.00  0.00    +0.000 A 
ATOM     29  C   UNL     1       5.786   4.764  16.827  0.00  0.00    +0.000 A 
ATOM     30  C   UNL     1       5.389   4.481  15.424  0.00  0.00    +0.000 C 
ATOM     31  C   UNL     1       6.737   4.694  14.737  0.00  0.00    +0.000 C 
ATOM     32  O   UNL     1       7.540   5.576  15.547  0.00  0.00    +0.000 OA
ENDBRANCH  21  24
ENDBRANCH  17  18
ENDBRANCH   1  17
TORSDOF 6
ENDMDL
MODEL 2
REMARK VINA RESULT:      -8.8      2.371      2.890
REMARK  Name = 
REMARK  6 active torsions:
REMARK  status: ('A' for Active; 'I' for Inactive)
REMARK    1  A    between atoms: C_2  and  C_27
REMARK    2  A    between atoms: N_3  and  C_4
REMARK    3  A    between atoms: C_7  and  C_8
REMARK    4  A    between atoms: C_8  and  C_9
REMARK    5  A    between atoms: C_9  and  N_10
REMARK    6  A    between atoms: C_13  and  C_14
REMARK                            x       y       z     vdW  Elec       q    Type
REMARK                         _______ _______ _______ _____ _____    ______ ____
ROOT
ATOM      1  C   UNL     1       2.120   6.140  20.579  0.00  0.00    +0.000 C 
ENDROOT
BRANCH   1   5
ATOM      2  C   UNL     1       1.307  10.366  19.834  0.00  0.00    +0.000 C 
ATOM      3  C   UNL     1       0.594   9.715  21.019  0.00  0.00    +0.000 C 
ATOM      4  C   UNL     1       1.249   8.392  21.405  0.00  0.00    +0.000 C 
ATOM      5  C   UNL     1       1.335   7.414  20.219  0.00  0.00    +0.000 C 
ATOM      6  C   UNL     1       2.003   8.084  19.007  0.00  0.00    +0.000 C 
ATOM      7  C   UNL     1       1.342   9.408  18.641  0.00  0.00    +0.000 C 
BRANCH   2  10
ATOM      8  O   UNL     1       2.505  12.584  18.528  0.00  0.00    +0.000 OA
ATOM      9  C   UNL     1       1.332  12.656  18.877  0.00  0.00    +0.000 C 
ATOM     10  N   UNL     1       0.648  11.604  19.457  0.00  0.00    +0.000 N 
ATOM     11  H   UNL     1      -0.282  11.771  19.819  0.00  0.00    +0.000 HD
BRANCH   9  12
ATOM     12  C   UNL     1       0.468  13.892  18.676  0.00  0.00    +0.000 C 
ATOM     13  C   UNL     1       1.021  15.133  19.341  0.00  0.00    +0.000 C 
ATOM     14  C   UNL     1       0.476  15.032  20.750  0.00  0.00    +0.000 C 
ATOM     15  O   UNL     1      -0.779  14.346  20.659  0.00  0.00    +0.000 OA
ATOM     16  C   UNL     1      -0.874  13.731  19.366  0.00  0.00    +0.000 C 
ENDBRANCH   9  12
ENDBRANCH   2  10
ENDBRANCH   1   5
BRANCH   1  17
ATOM     17  C   UNL     1       1.277   4.865  20.452  0.00  0.00    +0.000 C 
BRANCH  17  18
ATOM     18  N   UNL     1       1.815   3.881  19.488  0.00  0.00    +0.000 NA
ATOM     19  C   UNL     1       1.986   4.491  18.159  0.00  0.00    +0.000 C 
ATOM     20  C   UNL     1       2.782   3.642  17.173  0.00  0.00    +0.000 C 
ATOM     21  C   UNL     1       4.102   3.113  17.741  0.00  0.00    +0.000 C 
ATOM     22  C   UNL     1       3.838   2.439  19.090  0.00  0.00    +0.000 C 
ATOM     23  C   UNL     1       3.054   3.320  20.055  0.00  0.00    +0.000 C 
BRANCH  21  24
ATOM     24  C   UNL     1       5.239   4.127  17.759  0.00  0.00    +0.000 A 
ATOM     25  C   UNL     1       5.706   4.750  18.933  0.00  0.00    +0.000 A 
ATOM     26  C   UNL     1       6.735   5.709  18.921  0.00  0.00    +0.000 A 
ATOM     27  C   UNL     1       7.339   6.073  17.728  0.00  0.00    +0.000 A 
ATOM     28  C   UNL     1       6.903   5.449  16.578  0.00  0.00    +0.000 A 
ATOM     29  C   UNL     1       5.883   4.499  16.581  0.00  0.00    +0.000 A 
ATOM     30  C   UNL     1       5.626   4.095  15.176  0.00  0.00    +0.000 C 
ATOM     31  C   UNL     1       6.897   4.638  14.524  0.00  0.00    +0.000 C 
ATOM     32  O   UNL     1       7.413   5.715  15.334  0.00  0.00    +0.000 OA
ENDBRANCH  21  24
ENDBRANCH  17  18
ENDBRANCH   1  17
TORSDOF 6
ENDMDL
MODEL 3
REMARK VINA RESULT:      -8.7      1.173      1.390
REMARK  Name = 
REMARK  6 active torsions:
REMARK  status: ('A' for Active; 'I' for Inactive)
REMARK    1  A    between atoms: C_2  and  C_27
REMARK    2  A    between atoms: N_3  and  C_4
REMARK    3  A    between atoms: C_7  and  C_8
REMARK    4  A    between atoms: C_8  and  C_9
REMARK    5  A    between atoms: C_9  and  N_10
REMARK    6  A    between atoms: C_13  and  C_14
REMARK                            x       y       z     vdW  Elec       q    Type
REMARK                         _______ _______ _______ _____ _____    ______ ____
ROOT
ATOM      1  C   UNL     1       2.067   6.846  20.358  0.00  0.00    +0.000 C 
ENDROOT
BRANCH   1   5
ATOM      2  C   UNL     1       0.754  10.964  20.994  0.00  0.00    +0.000 C 
ATOM      3  C   UNL     1       0.398   9.942  22.074  0.00  0.00    +0.000 C 
ATOM      4  C   UNL     1       1.233   8.671  21.935  0.00  0.00    +0.000 C 
ATOM      5  C   UNL     1       1.116   8.045  20.534  0.00  0.00    +0.000 C 
ATOM      6  C   UNL     1       1.420   9.085  19.443  0.00  0.00    +0.000 C 
ATOM      7  C   UNL     1       0.584  10.350  19.602  0.00  0.00    +0.000 C 
BRANCH   2  10
ATOM      8  O   UNL     1       1.654  13.603  21.525  0.00  0.00    +0.000 OA
ATOM      9  C   UNL     1       0.450  13.386  21.439  0.00  0.00    +0.000 C 
ATOM     10  N   UNL     1      -0.076  12.149  21.118  0.00  0.00    +0.000 N 
ATOM     11  H   UNL     1      -1.078  12.017  21.175  0.00  0.00    +0.000 HD
BRANCH   9  12
ATOM     12  C   UNL     1      -0.614  14.456  21.632  0.00  0.00    +0.000 C 
ATOM     13  C   UNL     1      -0.757  14.919  23.065  0.00  0.00    +0.000 C 
ATOM     14  C   UNL     1      -1.723  13.911  23.650  0.00  0.00    +0.000 C 
ATOM     15  O   UNL     1      -2.579  13.490  22.581  0.00  0.00    +0.000 OA
ATOM     16  C   UNL     1      -1.996  13.903  21.337  0.00  0.00    +0.000 C 
ENDBRANCH   9  12
ENDBRANCH   2  10
ENDBRANCH   1   5
BRANCH   1  17
ATOM     17  C   UNL     1       1.376   5.498  20.593  0.00  0.00    +0.000 C 
BRANCH  17  18
ATOM     18  N   UNL     1       1.804   4.431  19.663  0.00  0.00    +0.000 NA
ATOM     19  C   UNL     1       2.030   4.974  18.314  0.00  0.00    +0.000 C 
ATOM     20  C   UNL     1       2.728   4.014  17.356  0.00  0.00    +0.000 C 
ATOM     21  C   UNL     1       3.990   3.371  17.940  0.00  0.00    +0.000 C 
ATOM     22  C   UNL     1       3.665   2.775  19.311  0.00  0.00    +0.000 C 
ATOM     23  C   UNL     1       2.981   3.765  20.247  0.00  0.00    +0.000 C 
BRANCH  21  24
ATOM     24  C   UNL     1       5.225   4.263  17.920  0.00  0.00    +0.000 A 
ATOM     25  C   UNL     1       5.790   4.833  19.078  0.00  0.00    +0.000 A 
ATOM     26  C   UNL     1       6.911   5.681  19.031  0.00  0.00    +0.000 A 
ATOM     27  C   UNL     1       7.512   5.982  17.819  0.00  0.00    +0.000 A 
ATOM     28  C   UNL     1       6.979   5.407  16.685  0.00  0.00    +0.000 A 
ATOM     29  C   UNL     1       5.868   4.568  16.721  0.00  0.00    +0.000 A 
ATOM     30  C   UNL     1       5.527   4.193  15.326  0.00  0.00    +0.000 C 
ATOM     31  C   UNL     1       6.825   4.603  14.634  0.00  0.00    +0.000 C 
ATOM     32  O   UNL     1       7.475   5.620  15.424  0.00  0.00    +0.000 OA
ENDBRANCH  21  24
ENDBRANCH  17  18
ENDBRANCH   1  17
TORSDOF 6
ENDMDL
MODEL 4
REMARK VINA RESULT:      -8.7      2.477      3.135
REMARK  Name = 
REMARK  6 active torsions:
REMARK  status: ('A' for Active; 'I' for Inactive)
REMARK    1  A    between atoms: C_2  and  C_27
REMARK    2  A    between atoms: N_3  and  C_4
REMARK    3  A    between atoms: C_7  and  C_8
REMARK    4  A    between atoms: C_8  and  C_9
REMARK    5  A    between atoms: C_9  and  N_10
REMARK    6  A    between atoms: C_13  and  C_14
REMARK                            x       y       z     vdW  Elec       q    Type
REMARK                         _______ _______ _______ _____ _____    ______ ____
ROOT
ATOM      1  C   UNL     1       1.885   5.323  20.887  0.00  0.00    +0.000 C 
ENDROOT
BRANCH   1   5
ATOM      2  C   UNL     1       1.440   9.588  20.053  0.00  0.00    +0.000 C 
ATOM      3  C   UNL     1       0.381   8.935  20.942  0.00  0.00    +0.000 C 
ATOM      4  C   UNL     1       0.854   7.584  21.471  0.00  0.00    +0.000 C 
ATOM      5  C   UNL     1       1.279   6.629  20.341  0.00  0.00    +0.000 C 
ATOM      6  C   UNL     1       2.303   7.303  19.413  0.00  0.00    +0.000 C 
ATOM      7  C   UNL     1       1.818   8.654  18.900  0.00  0.00    +0.000 C 
BRANCH   2  10
ATOM      8  O   UNL     1       1.232  12.034  21.478  0.00  0.00    +0.000 OA
ATOM      9  C   UNL     1       0.835  11.980  20.319  0.00  0.00    +0.000 C 
ATOM     10  N   UNL     1       0.957  10.853  19.528  0.00  0.00    +0.000 N 
ATOM     11  H   UNL     1       0.509  10.846  18.621  0.00  0.00    +0.000 HD
BRANCH   9  12
ATOM     12  C   UNL     1       0.200  13.155  19.592  0.00  0.00    +0.000 C 
ATOM     13  C   UNL     1       1.068  13.733  18.496  0.00  0.00    +0.000 C 
ATOM     14  C   UNL     1       1.940  14.720  19.243  0.00  0.00    +0.000 C 
ATOM     15  O   UNL     1       1.166  15.202  20.348  0.00  0.00    +0.000 OA
ATOM     16  C   UNL     1       0.032  14.341  20.525  0.00  0.00    +0.000 C 
ENDBRANCH   9  12
ENDBRANCH   2  10
ENDBRANCH   1   5
BRANCH   1  17
ATOM     17  C   UNL     1       1.071   4.082  20.503  0.00  0.00    +0.000 C 
BRANCH  17  18
ATOM     18  N   UNL     1       1.676   3.275  19.421  0.00  0.00    +0.000 NA
ATOM     19  C   UNL     1       1.811   4.070  18.190  0.00  0.00    +0.000 C 
ATOM     20  C   UNL     1       2.665   3.418  17.107  0.00  0.00    +0.000 C 
ATOM     21  C   UNL     1       4.016   2.904  17.615  0.00  0.00    +0.000 C 
ATOM     22  C   UNL     1       3.792   2.037  18.857  0.00  0.00    +0.000 C 
ATOM     23  C   UNL     1       2.948   2.726  19.923  0.00  0.00    +0.000 C 
BRANCH  21  24
ATOM     24  C   UNL     1       5.082   3.979  17.785  0.00  0.00    +0.000 A 
ATOM     25  C   UNL     1       5.401   4.568  19.023  0.00  0.00    +0.000 A 
ATOM     26  C   UNL     1       6.366   5.584  19.150  0.00  0.00    +0.000 A 
ATOM     27  C   UNL     1       7.054   6.040  18.036  0.00  0.00    +0.000 A 
ATOM     28  C   UNL     1       6.764   5.450  16.824  0.00  0.00    +0.000 A 
ATOM     29  C   UNL     1       5.808   4.445  16.689  0.00  0.00    +0.000 A 
ATOM     30  C   UNL     1       5.705   4.096  15.250  0.00  0.00    +0.000 C 
ATOM     31  C   UNL     1       6.994   4.742  14.745  0.00  0.00    +0.000 C 
ATOM     32  O   UNL     1       7.368   5.805  15.646  0.00  0.00    +0.000 OA
ENDBRANCH  21  24
ENDBRANCH  17  18
ENDBRANCH   1  17
TORSDOF 6
ENDMDL
MODEL 5
REMARK VINA RESULT:      -8.6      2.578     10.457
REMARK  Name = 
REMARK  6 active torsions:
REMARK  status: ('A' for Active; 'I' for Inactive)
REMARK    1  A    between atoms: C_2  and  C_27
REMARK    2  A    between atoms: N_3  and  C_4
REMARK    3  A    between atoms: C_7  and  C_8
REMARK    4  A    between atoms: C_8  and  C_9
REMARK    5  A    between atoms: C_9  and  N_10
REMARK    6  A    between atoms: C_13  and  C_14
REMARK                            x       y       z     vdW  Elec       q    Type
REMARK                         _______ _______ _______ _____ _____    ______ ____
ROOT
ATOM      1  C   UNL     1       0.797   8.430  21.007  0.00  0.00    +0.000 C 
ENDROOT
BRANCH   1   5
ATOM      2  C   UNL     1       3.064   6.118  18.076  0.00  0.00    +0.000 C 
ATOM      3  C   UNL     1       3.234   5.739  19.547  0.00  0.00    +0.000 C 
ATOM      4  C   UNL     1       2.120   6.332  20.407  0.00  0.00    +0.000 C 
ATOM      5  C   UNL     1       2.008   7.859  20.247  0.00  0.00    +0.000 C 
ATOM      6  C   UNL     1       1.893   8.246  18.764  0.00  0.00    +0.000 C 
ATOM      7  C   UNL     1       3.008   7.639  17.919  0.00  0.00    +0.000 C 
BRANCH   2  10
ATOM      8  O   UNL     1       3.217   3.501  16.984  0.00  0.00    +0.000 OA
ATOM      9  C   UNL     1       4.164   4.266  16.842  0.00  0.00    +0.000 C 
ATOM     10  N   UNL     1       4.153   5.577  17.280  0.00  0.00    +0.000 N 
ATOM     11  H   UNL     1       5.009   6.114  17.228  0.00  0.00    +0.000 HD
BRANCH   9  12
ATOM     12  C   UNL     1       5.454   3.885  16.130  0.00  0.00    +0.000 C 
ATOM     13  C   UNL     1       6.703   4.319  16.863  0.00  0.00    +0.000 C 
ATOM     14  C   UNL     1       6.903   5.739  16.378  0.00  0.00    +0.000 C 
ATOM     15  O   UNL     1       6.381   5.798  15.045  0.00  0.00    +0.000 OA
ATOM     16  C   UNL     1       5.582   4.629  14.813  0.00  0.00    +0.000 C 
ENDBRANCH   9  12
ENDBRANCH   2  10
ENDBRANCH   1   5
BRANCH   1  17
ATOM     17  C   UNL     1       1.183   9.522  22.011  0.00  0.00    +0.000 C 
BRANCH  17  18
ATOM     18  N   UNL     1       0.563  10.837  21.740  0.00  0.00    +0.000 NA
ATOM     19  C   UNL     1       0.950  11.334  20.410  0.00  0.00    +0.000 C 
ATOM     20  C   UNL     1       0.153  12.543  19.931  0.00  0.00    +0.000 C 
ATOM     21  C   UNL     1      -1.363  12.374  20.066  0.00  0.00    +0.000 C 
ATOM     22  C   UNL     1      -1.695  11.917  21.489  0.00  0.00    +0.000 C 
ATOM     23  C   UNL     1      -0.892  10.699  21.929  0.00  0.00    +0.000 C 
BRANCH  21  24
ATOM     24  C   UNL     1      -2.009  11.535  18.971  0.00  0.00    +0.000 A 
ATOM     25  C   UNL     1      -1.287  10.666  18.131  0.00  0.00    +0.000 A 
ATOM     26  C   UNL     1      -1.901   9.926  17.103  0.00  0.00    +0.000 A 
ATOM     27  C   UNL     1      -3.267  10.027  16.887  0.00  0.00    +0.000 A 
ATOM     28  C   UNL     1      -3.983  10.858  17.722  0.00  0.00    +0.000 A 
ATOM     29  C   UNL     1      -3.382  11.596  18.741  0.00  0.00    +0.000 A 
ATOM     30  C   UNL     1      -4.429  12.427  19.386  0.00  0.00    +0.000 C 
ATOM     31  C   UNL     1      -5.674  11.720  18.851  0.00  0.00    +0.000 C 
ATOM     32  O   UNL     1      -5.336  11.050  17.618  0.00  0.00    +0.000 OA
ENDBRANCH  21  24
ENDBRANCH  17  18
ENDBRANCH   1  17
TORSDOF 6
ENDMDL
MODEL 6
REMARK VINA RESULT:      -8.6      2.627      3.321
REMARK  Name = 
REMARK  6 active torsions:
REMARK  status: ('A' for Active; 'I' for Inactive)
REMARK    1  A    between atoms: C_2  and  C_27
REMARK    2  A    between atoms: N_3  and  C_4
REMARK    3  A    between atoms: C_7  and  C_8
REMARK    4  A    between atoms: C_8  and  C_9
REMARK    5  A    between atoms: C_9  and  N_10
REMARK    6  A    between atoms: C_13  and  C_14
REMARK                            x       y       z     vdW  Elec       q    Type
REMARK                         _______ _______ _______ _____ _____    ______ ____
ROOT
ATOM      1  C   UNL     1       1.975   5.462  20.921  0.00  0.00    +0.000 C 
ENDROOT
BRANCH   1   5
ATOM      2  C   UNL     1       0.988   9.364  19.223  0.00  0.00    +0.000 C 
ATOM      3  C   UNL     1       2.126   8.583  18.566  0.00  0.00    +0.000 C 
ATOM      4  C   UNL     1       2.106   7.114  18.980  0.00  0.00    +0.000 C 
ATOM      5  C   UNL     1       2.136   6.937  20.508  0.00  0.00    +0.000 C 
ATOM      6  C   UNL     1       1.026   7.765  21.177  0.00  0.00    +0.000 C 
ATOM      7  C   UNL     1       1.057   9.227  20.746  0.00  0.00    +0.000 C 
BRANCH   2  10
ATOM      8  O   UNL     1      -1.086  11.278  19.530  0.00  0.00    +0.000 OA
ATOM      9  C   UNL     1      -0.041  11.609  18.981  0.00  0.00    +0.000 C 
ATOM     10  N   UNL     1       1.046  10.766  18.848  0.00  0.00    +0.000 N 
ATOM     11  H   UNL     1       1.832  11.070  18.287  0.00  0.00    +0.000 HD
BRANCH   9  12
ATOM     12  C   UNL     1       0.210  13.000  18.418  0.00  0.00    +0.000 C 
ATOM     13  C   UNL     1       1.638  13.472  18.576  0.00  0.00    +0.000 C 
ATOM     14  C   UNL     1       1.641  14.078  19.963  0.00  0.00    +0.000 C 
ATOM     15  O   UNL     1       0.323  14.591  20.193  0.00  0.00    +0.000 OA
ATOM     16  C   UNL     1      -0.560  14.047  19.202  0.00  0.00    +0.000 C 
ENDBRANCH   9  12
ENDBRANCH   2  10
ENDBRANCH   1   5
BRANCH   1  17
ATOM     17  C   UNL     1       1.000   4.694  20.020  0.00  0.00    +0.000 C 
BRANCH  17  18
ATOM     18  N   UNL     1       1.649   3.702  19.137  0.00  0.00    +0.000 NA
ATOM     19  C   UNL     1       1.909   4.278  17.807  0.00  0.00    +0.000 C 
ATOM     20  C   UNL     1       2.813   3.431  16.918  0.00  0.00    +0.000 C 
ATOM     21  C   UNL     1       4.098   2.967  17.609  0.00  0.00    +0.000 C 
ATOM     22  C   UNL     1       3.746   2.324  18.953  0.00  0.00    +0.000 C 
ATOM     23  C   UNL     1       2.855   3.205  19.822  0.00  0.00    +0.000 C 
BRANCH  21  24
ATOM     24  C   UNL     1       5.194   4.023  17.687  0.00  0.00    +0.000 A 
ATOM     25  C   UNL     1       5.579   4.655  18.885  0.00  0.00    +0.000 A 
ATOM     26  C   UNL     1       6.571   5.652  18.928  0.00  0.00    +0.000 A 
ATOM     27  C   UNL     1       7.219   6.045  17.767  0.00  0.00    +0.000 A 
ATOM     28  C   UNL     1       6.864   5.412  16.595  0.00  0.00    +0.000 A 
ATOM     29  C   UNL     1       5.882   4.425  16.544  0.00  0.00    +0.000 A 
ATOM     30  C   UNL     1       5.709   4.020  15.126  0.00  0.00    +0.000 C 
ATOM     31  C   UNL     1       6.989   4.613  14.540  0.00  0.00    +0.000 C 
ATOM     32  O   UNL     1       7.425   5.704  15.378  0.00  0.00    +0.000 OA
ENDBRANCH  21  24
ENDBRANCH  17  18
ENDBRANCH   1  17
TORSDOF 6
ENDMDL
MODEL 7
REMARK VINA RESULT:      -8.4      1.426      1.758
REMARK  Name = 
REMARK  6 active torsions:
REMARK  status: ('A' for Active; 'I' for Inactive)
REMARK    1  A    between atoms: C_2  and  C_27
REMARK    2  A    between atoms: N_3  and  C_4
REMARK    3  A    between atoms: C_7  and  C_8
REMARK    4  A    between atoms: C_8  and  C_9
REMARK    5  A    between atoms: C_9  and  N_10
REMARK    6  A    between atoms: C_13  and  C_14
REMARK                            x       y       z     vdW  Elec       q    Type
REMARK                         _______ _______ _______ _____ _____    ______ ____
ROOT
ATOM      1  C   UNL     1       1.925   7.227  20.234  0.00  0.00    +0.000 C 
ENDROOT
BRANCH   1   5
ATOM      2  C   UNL     1       0.367  11.135  21.407  0.00  0.00    +0.000 C 
ATOM      3  C   UNL     1       0.211   9.991  22.409  0.00  0.00    +0.000 C 
ATOM      4  C   UNL     1       1.123   8.818  22.061  0.00  0.00    +0.000 C 
ATOM      5  C   UNL     1       0.907   8.315  20.623  0.00  0.00    +0.000 C 
ATOM      6  C   UNL     1       1.009   9.474  19.617  0.00  0.00    +0.000 C 
ATOM      7  C   UNL     1       0.098  10.639  19.984  0.00  0.00    +0.000 C 
BRANCH   2  10
ATOM      8  O   UNL     1       1.102  13.813  21.999  0.00  0.00    +0.000 OA
ATOM      9  C   UNL     1      -0.078  13.486  22.066  0.00  0.00    +0.000 C 
ATOM     10  N   UNL     1      -0.536  12.226  21.731  0.00  0.00    +0.000 N 
ATOM     11  H   UNL     1      -1.504  11.995  21.916  0.00  0.00    +0.000 HD
BRANCH   9  12
ATOM     12  C   UNL     1      -1.192  14.436  22.482  0.00  0.00    +0.000 C 
ATOM     13  C   UNL     1      -0.840  15.897  22.310  0.00  0.00    +0.000 C 
ATOM     14  C   UNL     1      -0.130  16.228  23.605  0.00  0.00    +0.000 C 
ATOM     15  O   UNL     1      -0.698  15.386  24.615  0.00  0.00    +0.000 OA
ATOM     16  C   UNL     1      -1.449  14.344  23.975  0.00  0.00    +0.000 C 
ENDBRANCH   9  12
ENDBRANCH   2  10
ENDBRANCH   1   5
BRANCH   1  17
ATOM     17  C   UNL     1       1.522   5.831  20.724  0.00  0.00    +0.000 C 
BRANCH  17  18
ATOM     18  N   UNL     1       1.879   4.739  19.794  0.00  0.00    +0.000 NA
ATOM     19  C   UNL     1       2.109   5.262  18.438  0.00  0.00    +0.000 C 
ATOM     20  C   UNL     1       2.742   4.263  17.474  0.00  0.00    +0.000 C 
ATOM     21  C   UNL     1       3.979   3.561  18.040  0.00  0.00    +0.000 C 
ATOM     22  C   UNL     1       3.648   2.989  19.421  0.00  0.00    +0.000 C 
ATOM     23  C   UNL     1       3.032   4.018  20.362  0.00  0.00    +0.000 C 
BRANCH  21  24
ATOM     24  C   UNL     1       5.257   4.389  17.994  0.00  0.00    +0.000 A 
ATOM     25  C   UNL     1       5.868   4.939  19.138  0.00  0.00    +0.000 A 
ATOM     26  C   UNL     1       7.030   5.729  19.067  0.00  0.00    +0.000 A 
ATOM     27  C   UNL     1       7.626   5.989  17.843  0.00  0.00    +0.000 A 
ATOM     28  C   UNL     1       7.047   5.433  16.722  0.00  0.00    +0.000 A 
ATOM     29  C   UNL     1       5.896   4.651  16.783  0.00  0.00    +0.000 A 
ATOM     30  C   UNL     1       5.514   4.283  15.396  0.00  0.00    +0.000 C 
ATOM     31  C   UNL     1       6.821   4.621  14.681  0.00  0.00    +0.000 C 
ATOM     32  O   UNL     1       7.534   5.611  15.452  0.00  0.00    +0.000 OA
ENDBRANCH  21  24
ENDBRANCH  17  18
ENDBRANCH   1  17
TORSDOF 6
ENDMDL
MODEL 8
REMARK VINA RESULT:      -8.4      1.051      1.877
REMARK  Name = 
REMARK  6 active torsions:
REMARK  status: ('A' for Active; 'I' for Inactive)
REMARK    1  A    between atoms: C_2  and  C_27
REMARK    2  A    between atoms: N_3  and  C_4
REMARK    3  A    between atoms: C_7  and  C_8
REMARK    4  A    between atoms: C_8  and  C_9
REMARK    5  A    between atoms: C_9  and  N_10
REMARK    6  A    between atoms: C_13  and  C_14
REMARK                            x       y       z     vdW  Elec       q    Type
REMARK                         _______ _______ _______ _____ _____    ______ ____
ROOT
ATOM      1  C   UNL     1       2.053   7.310  20.019  0.00  0.00    +0.000 C 
ENDROOT
BRANCH   1   5
ATOM      2  C   UNL     1      -0.655  10.490  21.298  0.00  0.00    +0.000 C 
ATOM      3  C   UNL     1       0.600  10.907  20.531  0.00  0.00    +0.000 C 
ATOM      4  C   UNL     1       1.234   9.718  19.813  0.00  0.00    +0.000 C 
ATOM      5  C   UNL     1       1.544   8.554  20.770  0.00  0.00    +0.000 C 
ATOM      6  C   UNL     1       0.297   8.168  21.584  0.00  0.00    +0.000 C 
ATOM      7  C   UNL     1      -0.327   9.368  22.287  0.00  0.00    +0.000 C 
BRANCH   2  10
ATOM      8  O   UNL     1      -2.568  12.324  20.281  0.00  0.00    +0.000 OA
ATOM      9  C   UNL     1      -2.106  12.500  21.403  0.00  0.00    +0.000 C 
ATOM     10  N   UNL     1      -1.222  11.624  22.005  0.00  0.00    +0.000 N 
ATOM     11  H   UNL     1      -0.798  11.891  22.884  0.00  0.00    +0.000 HD
BRANCH   9  12
ATOM     12  C   UNL     1      -2.478  13.679  22.291  0.00  0.00    +0.000 C 
ATOM     13  C   UNL     1      -2.089  15.021  21.713  0.00  0.00    +0.000 C 
ATOM     14  C   UNL     1      -0.655  15.182  22.170  0.00  0.00    +0.000 C 
ATOM     15  O   UNL     1      -0.540  14.492  23.420  0.00  0.00    +0.000 OA
ATOM     16  C   UNL     1      -1.688  13.649  23.587  0.00  0.00    +0.000 C 
ENDBRANCH   9  12
ENDBRANCH   2  10
ENDBRANCH   1   5
BRANCH   1  17
ATOM     17  C   UNL     1       1.402   6.010  20.507  0.00  0.00    +0.000 C 
BRANCH  17  18
ATOM     18  N   UNL     1       1.818   4.808  19.755  0.00  0.00    +0.000 NA
ATOM     19  C   UNL     1       2.065   5.136  18.341  0.00  0.00    +0.000 C 
ATOM     20  C   UNL     1       2.754   4.031  17.547  0.00  0.00    +0.000 C 
ATOM     21  C   UNL     1       3.999   3.463  18.235  0.00  0.00    +0.000 C 
ATOM     22  C   UNL     1       3.652   3.088  19.678  0.00  0.00    +0.000 C 
ATOM     23  C   UNL     1       2.979   4.220  20.445  0.00  0.00    +0.000 C 
BRANCH  21  24
ATOM     24  C   UNL     1       5.250   4.321  18.094  0.00  0.00    +0.000 A 
ATOM     25  C   UNL     1       5.896   4.938  19.183  0.00  0.00    +0.000 A 
ATOM     26  C   UNL     1       7.031   5.754  19.024  0.00  0.00    +0.000 A 
ATOM     27  C   UNL     1       7.564   5.974  17.763  0.00  0.00    +0.000 A 
ATOM     28  C   UNL     1       6.951   5.353  16.696  0.00  0.00    +0.000 A 
ATOM     29  C   UNL     1       5.826   4.545  16.844  0.00  0.00    +0.000 A 
ATOM     30  C   UNL     1       5.393   4.105  15.494  0.00  0.00    +0.000 C 
ATOM     31  C   UNL     1       6.657   4.444  14.705  0.00  0.00    +0.000 C 
ATOM     32  O   UNL     1       7.375   5.486  15.399  0.00  0.00    +0.000 OA
ENDBRANCH  21  24
ENDBRANCH  17  18
ENDBRANCH   1  17
TORSDOF 6
ENDMDL
MODEL 9
REMARK VINA RESULT:      -8.4      1.881      2.187
REMARK  Name = 
REMARK  6 active torsions:
REMARK  status: ('A' for Active; 'I' for Inactive)
REMARK    1  A    between atoms: C_2  and  C_27
REMARK    2  A    between atoms: N_3  and  C_4
REMARK    3  A    between atoms: C_7  and  C_8
REMARK    4  A    between atoms: C_8  and  C_9
REMARK    5  A    between atoms: C_9  and  N_10
REMARK    6  A    between atoms: C_13  and  C_14
REMARK                            x       y       z     vdW  Elec       q    Type
REMARK                         _______ _______ _______ _____ _____    ______ ____
ROOT
ATOM      1  C   UNL     1       2.063   6.811  20.359  0.00  0.00    +0.000 C 
ENDROOT
BRANCH   1   5
ATOM      2  C   UNL     1       0.647  10.881  21.075  0.00  0.00    +0.000 C 
ATOM      3  C   UNL     1       0.370   9.843  22.162  0.00  0.00    +0.000 C 
ATOM      4  C   UNL     1       1.238   8.601  21.981  0.00  0.00    +0.000 C 
ATOM      5  C   UNL     1       1.083   7.978  20.582  0.00  0.00    +0.000 C 
ATOM      6  C   UNL     1       1.308   9.033  19.486  0.00  0.00    +0.000 C 
ATOM      7  C   UNL     1       0.439  10.269  19.687  0.00  0.00    +0.000 C 
BRANCH   2  10
ATOM      8  O   UNL     1       1.484  13.547  21.573  0.00  0.00    +0.000 OA
ATOM      9  C   UNL     1       0.286  13.291  21.542  0.00  0.00    +0.000 C 
ATOM     10  N   UNL     1      -0.215  12.038  21.241  0.00  0.00    +0.000 N 
ATOM     11  H   UNL     1      -1.207  11.874  21.343  0.00  0.00    +0.000 HD
BRANCH   9  12
ATOM     12  C   UNL     1      -0.803  14.326  21.788  0.00  0.00    +0.000 C 
ATOM     13  C   UNL     1      -1.617  14.654  20.556  0.00  0.00    +0.000 C 
ATOM     14  C   UNL     1      -0.796  15.737  19.888  0.00  0.00    +0.000 C 
ATOM     15  O   UNL     1      -0.120  16.446  20.933  0.00  0.00    +0.000 OA
ATOM     16  C   UNL     1      -0.198  15.673  22.138  0.00  0.00    +0.000 C 
ENDBRANCH   9  12
ENDBRANCH   2  10
ENDBRANCH   1   5
BRANCH   1  17
ATOM     17  C   UNL     1       1.426   5.440  20.613  0.00  0.00    +0.000 C 
BRANCH  17  18
ATOM     18  N   UNL     1       1.872   4.385  19.678  0.00  0.00    +0.000 NA
ATOM     19  C   UNL     1       2.063   4.933  18.325  0.00  0.00    +0.000 C 
ATOM     20  C   UNL     1       2.776   3.994  17.358  0.00  0.00    +0.000 C 
ATOM     21  C   UNL     1       4.064   3.388  17.925  0.00  0.00    +0.000 C 
ATOM     22  C   UNL     1       3.775   2.784  19.301  0.00  0.00    +0.000 C 
ATOM     23  C   UNL     1       3.076   3.755  20.246  0.00  0.00    +0.000 C 
BRANCH  21  24
ATOM     24  C   UNL     1       5.272   4.316  17.888  0.00  0.00    +0.000 A 
ATOM     25  C   UNL     1       5.829   4.912  19.036  0.00  0.00    +0.000 A 
ATOM     26  C   UNL     1       6.925   5.792  18.973  0.00  0.00    +0.000 A 
ATOM     27  C   UNL     1       7.507   6.099  17.753  0.00  0.00    +0.000 A 
ATOM     28  C   UNL     1       6.983   5.500  16.629  0.00  0.00    +0.000 A 
ATOM     29  C   UNL     1       5.896   4.628  16.681  0.00  0.00    +0.000 A 
ATOM     30  C   UNL     1       5.556   4.232  15.292  0.00  0.00    +0.000 C 
ATOM     31  C   UNL     1       6.837   4.673  14.586  0.00  0.00    +0.000 C 
ATOM     32  O   UNL     1       7.463   5.716  15.363  0.00  0.00    +0.000 OA
ENDBRANCH  21  24
ENDBRANCH  17  18
ENDBRANCH   1  17
TORSDOF 6
ENDMDL
