MODEL 1
REMARK VINA RESULT:      -6.9      0.000      0.000
REMARK  Name = 
REMARK  4 active torsions:
REMARK  status: ('A' for Active; 'I' for Inactive)
REMARK    1  A    between atoms: C_1  and  N_2
REMARK    2  A    between atoms: C_3  and  C_4
REMARK    3  A    between atoms: N_13  and  C_14
REMARK    4  A    between atoms: C_14  and  C_15
REMARK                            x       y       z     vdW  Elec       q    Type
REMARK                         _______ _______ _______ _____ _____    ______ ____
ROOT
ATOM      1  C   UNL     1       0.915   8.228  21.177  0.00  0.00    +0.000 C 
ATOM      2  N   UNL     1       1.386   8.583  19.858  0.00  0.00    +0.000 N 
ATOM      3  C   UNL     1       0.941   9.621  19.050  0.00  0.00    +0.000 A 
ATOM      4  C   UNL     1       1.588   9.375  17.850  0.00  0.00    +0.000 A 
ATOM      5  N   UNL     1       2.403   8.280  17.915  0.00  0.00    +0.000 NA
ATOM      6  C   UNL     1       2.308   7.838  19.144  0.00  0.00    +0.000 A 
ATOM      7  N   UNL     1       2.988   6.808  19.695  0.00  0.00    +0.000 N 
ATOM      8  H   UNL     1       2.836   6.509  20.648  0.00  0.00    +0.000 HD
ENDROOT
BRANCH   3   9
ATOM      9  C   UNL     1      -0.024  10.678  19.384  0.00  0.00    +0.000 A 
ATOM     10  C   UNL     1       0.267  11.696  20.306  0.00  0.00    +0.000 A 
ATOM     11  C   UNL     1      -0.687  12.662  20.639  0.00  0.00    +0.000 A 
ATOM     12  C   UNL     1      -1.934  12.658  20.020  0.00  0.00    +0.000 A 
ATOM     13  C   UNL     1      -2.223  11.690  19.063  0.00  0.00    +0.000 A 
ATOM     14  C   UNL     1      -1.278  10.706  18.753  0.00  0.00    +0.000 A 
ENDBRANCH   3   9
BRANCH   7  15
ATOM     15  C   UNL     1       3.481   5.757  18.822  0.00  0.00    +0.000 C 
BRANCH  15  16
ATOM     16  C   UNL     1       2.620   4.519  18.952  0.00  0.00    +0.000 A 
ATOM     17  C   UNL     1       1.681   4.391  19.986  0.00  0.00    +0.000 A 
ATOM     18  C   UNL     1       0.853   3.266  20.056  0.00  0.00    +0.000 A 
ATOM     19  C   UNL     1       0.957   2.261  19.097  0.00  0.00    +0.000 A 
ATOM     20  C   UNL     1       1.892   2.372  18.071  0.00  0.00    +0.000 A 
ATOM     21  C   UNL     1       2.720   3.493  17.999  0.00  0.00    +0.000 A 
ENDBRANCH  15  16
ENDBRANCH   7  15
TORSDOF 3
ENDMDL
MODEL 2
REMARK VINA RESULT:      -6.9      1.040      1.151
REMARK  Name = 
REMARK  4 active torsions:
REMARK  status: ('A' for Active; 'I' for Inactive)
REMARK    1  A    between atoms: C_1  and  N_2
REMARK    2  A    between atoms: C_3  and  C_4
REMARK    3  A    between atoms: N_13  and  C_14
REMARK    4  A    between atoms: C_14  and  C_15
REMARK                            x       y       z     vdW  Elec       q    Type
REMARK                         _______ _______ _______ _____ _____    ______ ____
ROOT
ATOM      1  C   UNL     1      -0.176   8.615  21.574  0.00  0.00    +0.000 C 
ATOM      2  N   UNL     1       0.450   9.119  20.373  0.00  0.00    +0.000 N 
ATOM      3  C   UNL     1       0.049  10.199  19.597  0.00  0.00    +0.000 A 
ATOM      4  C   UNL     1       0.877  10.106  18.490  0.00  0.00    +0.000 A 
ATOM      5  N   UNL     1       1.753   9.062  18.584  0.00  0.00    +0.000 NA
ATOM      6  C   UNL     1       1.517   8.503  19.744  0.00  0.00    +0.000 A 
ATOM      7  N   UNL     1       2.188   7.469  20.303  0.00  0.00    +0.000 N 
ATOM      8  H   UNL     1       1.924   7.074  21.195  0.00  0.00    +0.000 HD
ENDROOT
BRANCH   3   9
ATOM      9  C   UNL     1      -1.030  11.158  19.871  0.00  0.00    +0.000 A 
ATOM     10  C   UNL     1      -1.013  12.007  20.989  0.00  0.00    +0.000 A 
ATOM     11  C   UNL     1      -2.076  12.878  21.250  0.00  0.00    +0.000 A 
ATOM     12  C   UNL     1      -3.153  12.951  20.370  0.00  0.00    +0.000 A 
ATOM     13  C   UNL     1      -3.163  12.159  19.227  0.00  0.00    +0.000 A 
ATOM     14  C   UNL     1      -2.114  11.266  18.984  0.00  0.00    +0.000 A 
ENDBRANCH   3   9
BRANCH   7  15
ATOM     15  C   UNL     1       2.876   6.536  19.428  0.00  0.00    +0.000 C 
BRANCH  15  16
ATOM     16  C   UNL     1       2.196   5.185  19.461  0.00  0.00    +0.000 A 
ATOM     17  C   UNL     1       1.746   4.626  20.666  0.00  0.00    +0.000 A 
ATOM     18  C   UNL     1       1.067   3.404  20.669  0.00  0.00    +0.000 A 
ATOM     19  C   UNL     1       0.834   2.729  19.473  0.00  0.00    +0.000 A 
ATOM     20  C   UNL     1       1.284   3.270  18.271  0.00  0.00    +0.000 A 
ATOM     21  C   UNL     1       1.963   4.489  18.264  0.00  0.00    +0.000 A 
ENDBRANCH  15  16
ENDBRANCH   7  15
TORSDOF 3
ENDMDL
MODEL 3
REMARK VINA RESULT:      -6.9      0.335      1.111
REMARK  Name = 
REMARK  4 active torsions:
REMARK  status: ('A' for Active; 'I' for Inactive)
REMARK    1  A    between atoms: C_1  and  N_2
REMARK    2  A    between atoms: C_3  and  C_4
REMARK    3  A    between atoms: N_13  and  C_14
REMARK    4  A    between atoms: C_14  and  C_15
REMARK                            x       y       z     vdW  Elec       q    Type
REMARK                         _______ _______ _______ _____ _____    ______ ____
ROOT
ATOM      1  C   UNL     1       0.815   8.482  21.325  0.00  0.00    +0.000 C 
ATOM      2  N   UNL     1       1.246   8.748  19.972  0.00  0.00    +0.000 N 
ATOM      3  C   UNL     1       0.756   9.712  19.101  0.00  0.00    +0.000 A 
ATOM      4  C   UNL     1       1.383   9.394  17.906  0.00  0.00    +0.000 A 
ATOM      5  N   UNL     1       2.228   8.327  18.033  0.00  0.00    +0.000 NA
ATOM      6  C   UNL     1       2.172   7.976  19.293  0.00  0.00    +0.000 A 
ATOM      7  N   UNL     1       2.892   7.008  19.903  0.00  0.00    +0.000 N 
ATOM      8  H   UNL     1       2.770   6.777  20.879  0.00  0.00    +0.000 HD
ENDROOT
BRANCH   3   9
ATOM      9  C   UNL     1      -0.230  10.765  19.378  0.00  0.00    +0.000 A 
ATOM     10  C   UNL     1       0.040  11.836  20.246  0.00  0.00    +0.000 A 
ATOM     11  C   UNL     1      -0.933  12.799  20.528  0.00  0.00    +0.000 A 
ATOM     12  C   UNL     1      -2.179  12.739  19.909  0.00  0.00    +0.000 A 
ATOM     13  C   UNL     1      -2.447  11.718  19.003  0.00  0.00    +0.000 A 
ATOM     14  C   UNL     1      -1.484  10.737  18.746  0.00  0.00    +0.000 A 
ENDBRANCH   3   9
BRANCH   7  15
ATOM     15  C   UNL     1       3.394   5.907  19.099  0.00  0.00    +0.000 C 
BRANCH  15  16
ATOM     16  C   UNL     1       2.448   4.728  19.173  0.00  0.00    +0.000 A 
ATOM     17  C   UNL     1       2.284   3.857  18.087  0.00  0.00    +0.000 A 
ATOM     18  C   UNL     1       1.450   2.739  18.195  0.00  0.00    +0.000 A 
ATOM     19  C   UNL     1       0.773   2.484  19.385  0.00  0.00    +0.000 A 
ATOM     20  C   UNL     1       0.921   3.347  20.468  0.00  0.00    +0.000 A 
ATOM     21  C   UNL     1       1.751   4.464  20.363  0.00  0.00    +0.000 A 
ENDBRANCH  15  16
ENDBRANCH   7  15
TORSDOF 3
ENDMDL
MODEL 4
REMARK VINA RESULT:      -6.8      0.823      1.365
REMARK  Name = 
REMARK  4 active torsions:
REMARK  status: ('A' for Active; 'I' for Inactive)
REMARK    1  A    between atoms: C_1  and  N_2
REMARK    2  A    between atoms: C_3  and  C_4
REMARK    3  A    between atoms: N_13  and  C_14
REMARK    4  A    between atoms: C_14  and  C_15
REMARK                            x       y       z     vdW  Elec       q    Type
REMARK                         _______ _______ _______ _____ _____    ______ ____
ROOT
ATOM      1  C   UNL     1       0.179   8.572  21.518  0.00  0.00    +0.000 C 
ATOM      2  N   UNL     1       0.752   8.993  20.260  0.00  0.00    +0.000 N 
ATOM      3  C   UNL     1       0.339  10.042  19.449  0.00  0.00    +0.000 A 
ATOM      4  C   UNL     1       1.103   9.866  18.306  0.00  0.00    +0.000 A 
ATOM      5  N   UNL     1       1.953   8.802  18.410  0.00  0.00    +0.000 NA
ATOM      6  C   UNL     1       1.766   8.312  19.610  0.00  0.00    +0.000 A 
ATOM      7  N   UNL     1       2.436   7.290  20.187  0.00  0.00    +0.000 N 
ATOM      8  H   UNL     1       2.211   6.950  21.112  0.00  0.00    +0.000 HD
ENDROOT
BRANCH   3   9
ATOM      9  C   UNL     1      -0.696  11.047  19.727  0.00  0.00    +0.000 A 
ATOM     10  C   UNL     1      -1.899  11.105  19.007  0.00  0.00    +0.000 A 
ATOM     11  C   UNL     1      -2.847  12.101  19.261  0.00  0.00    +0.000 A 
ATOM     12  C   UNL     1      -2.631  13.029  20.276  0.00  0.00    +0.000 A 
ATOM     13  C   UNL     1      -1.470  12.956  21.039  0.00  0.00    +0.000 A 
ATOM     14  C   UNL     1      -0.509  11.978  20.763  0.00  0.00    +0.000 A 
ENDBRANCH   3   9
BRANCH   7  15
ATOM     15  C   UNL     1       3.050   6.291  19.329  0.00  0.00    +0.000 C 
BRANCH  15  16
ATOM     16  C   UNL     1       2.288   4.987  19.412  0.00  0.00    +0.000 A 
ATOM     17  C   UNL     1       1.837   4.484  20.641  0.00  0.00    +0.000 A 
ATOM     18  C   UNL     1       1.083   3.308  20.691  0.00  0.00    +0.000 A 
ATOM     19  C   UNL     1       0.776   2.623  19.518  0.00  0.00    +0.000 A 
ATOM     20  C   UNL     1       1.226   3.107  18.292  0.00  0.00    +0.000 A 
ATOM     21  C   UNL     1       1.980   4.280  18.239  0.00  0.00    +0.000 A 
ENDBRANCH  15  16
ENDBRANCH   7  15
TORSDOF 3
ENDMDL
MODEL 5
REMARK VINA RESULT:      -6.8      0.641      1.670
REMARK  Name = 
REMARK  4 active torsions:
REMARK  status: ('A' for Active; 'I' for Inactive)
REMARK    1  A    between atoms: C_1  and  N_2
REMARK    2  A    between atoms: C_3  and  C_4
REMARK    3  A    between atoms: N_13  and  C_14
REMARK    4  A    between atoms: C_14  and  C_15
REMARK                            x       y       z     vdW  Elec       q    Type
REMARK                         _______ _______ _______ _____ _____    ______ ____
ROOT
ATOM      1  C   UNL     1       1.192   8.170  21.052  0.00  0.00    +0.000 C 
ATOM      2  N   UNL     1       1.502   8.701  19.745  0.00  0.00    +0.000 N 
ATOM      3  C   UNL     1       1.054   9.891  19.186  0.00  0.00    +0.000 A 
ATOM      4  C   UNL     1       1.493   9.799  17.874  0.00  0.00    +0.000 A 
ATOM      5  N   UNL     1       2.192   8.648  17.642  0.00  0.00    +0.000 NA
ATOM      6  C   UNL     1       2.231   8.017  18.788  0.00  0.00    +0.000 A 
ATOM      7  N   UNL     1       2.875   6.860  19.061  0.00  0.00    +0.000 N 
ATOM      8  H   UNL     1       2.832   6.419  19.970  0.00  0.00    +0.000 HD
ENDROOT
BRANCH   3   9
ATOM      9  C   UNL     1       0.260  10.949  19.825  0.00  0.00    +0.000 A 
ATOM     10  C   UNL     1      -1.116  11.102  19.589  0.00  0.00    +0.000 A 
ATOM     11  C   UNL     1      -1.837  12.146  20.175  0.00  0.00    +0.000 A 
ATOM     12  C   UNL     1      -1.207  13.029  21.049  0.00  0.00    +0.000 A 
ATOM     13  C   UNL     1       0.143  12.861  21.340  0.00  0.00    +0.000 A 
ATOM     14  C   UNL     1       0.870  11.835  20.729  0.00  0.00    +0.000 A 
ENDBRANCH   3   9
BRANCH   7  15
ATOM     15  C   UNL     1       3.127   5.933  17.971  0.00  0.00    +0.000 C 
BRANCH  15  16
ATOM     16  C   UNL     1       2.487   4.593  18.262  0.00  0.00    +0.000 A 
ATOM     17  C   UNL     1       2.797   3.458  17.500  0.00  0.00    +0.000 A 
ATOM     18  C   UNL     1       2.241   2.216  17.820  0.00  0.00    +0.000 A 
ATOM     19  C   UNL     1       1.371   2.097  18.902  0.00  0.00    +0.000 A 
ATOM     20  C   UNL     1       1.048   3.219  19.661  0.00  0.00    +0.000 A 
ATOM     21  C   UNL     1       1.601   4.460  19.343  0.00  0.00    +0.000 A 
ENDBRANCH  15  16
ENDBRANCH   7  15
TORSDOF 3
ENDMDL
MODEL 6
REMARK VINA RESULT:      -6.8      2.487      4.339
REMARK  Name = 
REMARK  4 active torsions:
REMARK  status: ('A' for Active; 'I' for Inactive)
REMARK    1  A    between atoms: C_1  and  N_2
REMARK    2  A    between atoms: C_3  and  C_4
REMARK    3  A    between atoms: N_13  and  C_14
REMARK    4  A    between atoms: C_14  and  C_15
REMARK                            x       y       z     vdW  Elec       q    Type
REMARK                         _______ _______ _______ _____ _____    ______ ____
ROOT
ATOM      1  C   UNL     1       2.337   8.929  18.046  0.00  0.00    +0.000 C 
ATOM      2  N   UNL     1       2.186   7.793  18.926  0.00  0.00    +0.000 N 
ATOM      3  C   UNL     1       1.566   7.760  20.169  0.00  0.00    +0.000 A 
ATOM      4  C   UNL     1       1.881   6.494  20.637  0.00  0.00    +0.000 A 
ATOM      5  N   UNL     1       2.618   5.778  19.736  0.00  0.00    +0.000 NA
ATOM      6  C   UNL     1       2.756   6.554  18.691  0.00  0.00    +0.000 A 
ATOM      7  N   UNL     1       3.357   6.246  17.519  0.00  0.00    +0.000 N 
ATOM      8  H   UNL     1       3.447   6.915  16.767  0.00  0.00    +0.000 HD
ENDROOT
BRANCH   3   9
ATOM      9  C   UNL     1       0.815   8.834  20.834  0.00  0.00    +0.000 A 
ATOM     10  C   UNL     1       0.104   9.808  20.116  0.00  0.00    +0.000 A 
ATOM     11  C   UNL     1      -0.564  10.846  20.773  0.00  0.00    +0.000 A 
ATOM     12  C   UNL     1      -0.576  10.900  22.164  0.00  0.00    +0.000 A 
ATOM     13  C   UNL     1       0.075   9.913  22.896  0.00  0.00    +0.000 A 
ATOM     14  C   UNL     1       0.769   8.893  22.237  0.00  0.00    +0.000 A 
ENDBRANCH   3   9
BRANCH   7  15
ATOM     15  C   UNL     1       4.381   5.216  17.516  0.00  0.00    +0.000 C 
BRANCH  15  16
ATOM     16  C   UNL     1       5.729   5.815  17.853  0.00  0.00    +0.000 A 
ATOM     17  C   UNL     1       6.226   6.927  17.159  0.00  0.00    +0.000 A 
ATOM     18  C   UNL     1       7.447   7.503  17.524  0.00  0.00    +0.000 A 
ATOM     19  C   UNL     1       8.182   6.973  18.582  0.00  0.00    +0.000 A 
ATOM     20  C   UNL     1       7.704   5.862  19.273  0.00  0.00    +0.000 A 
ATOM     21  C   UNL     1       6.486   5.285  18.910  0.00  0.00    +0.000 A 
ENDBRANCH  15  16
ENDBRANCH   7  15
TORSDOF 3
ENDMDL
MODEL 7
REMARK VINA RESULT:      -6.8      2.369      7.653
REMARK  Name = 
REMARK  4 active torsions:
REMARK  status: ('A' for Active; 'I' for Inactive)
REMARK    1  A    between atoms: C_1  and  N_2
REMARK    2  A    between atoms: C_3  and  C_4
REMARK    3  A    between atoms: N_13  and  C_14
REMARK    4  A    between atoms: C_14  and  C_15
REMARK                            x       y       z     vdW  Elec       q    Type
REMARK                         _______ _______ _______ _____ _____    ______ ____
ROOT
ATOM      1  C   UNL     1       3.374   7.742  17.828  0.00  0.00    +0.000 C 
ATOM      2  N   UNL     1       3.340   6.636  18.757  0.00  0.00    +0.000 N 
ATOM      3  C   UNL     1       3.967   5.402  18.629  0.00  0.00    +0.000 A 
ATOM      4  C   UNL     1       3.443   4.681  19.690  0.00  0.00    +0.000 A 
ATOM      5  N   UNL     1       2.576   5.421  20.443  0.00  0.00    +0.000 NA
ATOM      6  C   UNL     1       2.558   6.611  19.898  0.00  0.00    +0.000 A 
ATOM      7  N   UNL     1       1.892   7.702  20.341  0.00  0.00    +0.000 N 
ATOM      8  H   UNL     1       1.907   8.582  19.845  0.00  0.00    +0.000 HD
ENDROOT
BRANCH   3   9
ATOM      9  C   UNL     1       4.906   4.969  17.586  0.00  0.00    +0.000 A 
ATOM     10  C   UNL     1       4.475   4.509  16.332  0.00  0.00    +0.000 A 
ATOM     11  C   UNL     1       5.389   4.058  15.375  0.00  0.00    +0.000 A 
ATOM     12  C   UNL     1       6.756   4.105  15.635  0.00  0.00    +0.000 A 
ATOM     13  C   UNL     1       7.207   4.609  16.851  0.00  0.00    +0.000 A 
ATOM     14  C   UNL     1       6.290   5.030  17.819  0.00  0.00    +0.000 A 
ENDBRANCH   3   9
BRANCH   7  15
ATOM     15  C   UNL     1       0.703   7.505  21.152  0.00  0.00    +0.000 C 
BRANCH  15  16
ATOM     16  C   UNL     1       0.061   8.836  21.474  0.00  0.00    +0.000 A 
ATOM     17  C   UNL     1      -0.304   9.170  22.786  0.00  0.00    +0.000 A 
ATOM     18  C   UNL     1      -0.842  10.428  23.074  0.00  0.00    +0.000 A 
ATOM     19  C   UNL     1      -1.022  11.361  22.056  0.00  0.00    +0.000 A 
ATOM     20  C   UNL     1      -0.673  11.039  20.747  0.00  0.00    +0.000 A 
ATOM     21  C   UNL     1      -0.136   9.783  20.457  0.00  0.00    +0.000 A 
ENDBRANCH  15  16
ENDBRANCH   7  15
TORSDOF 3
ENDMDL
MODEL 8
REMARK VINA RESULT:      -6.8      2.468      4.229
REMARK  Name = 
REMARK  4 active torsions:
REMARK  status: ('A' for Active; 'I' for Inactive)
REMARK    1  A    between atoms: C_1  and  N_2
REMARK    2  A    between atoms: C_3  and  C_4
REMARK    3  A    between atoms: N_13  and  C_14
REMARK    4  A    between atoms: C_14  and  C_15
REMARK                            x       y       z     vdW  Elec       q    Type
REMARK                         _______ _______ _______ _____ _____    ______ ____
ROOT
ATOM      1  C   UNL     1       2.293   8.886  18.069  0.00  0.00    +0.000 C 
ATOM      2  N   UNL     1       2.153   7.765  18.969  0.00  0.00    +0.000 N 
ATOM      3  C   UNL     1       1.548   7.752  20.220  0.00  0.00    +0.000 A 
ATOM      4  C   UNL     1       1.871   6.495  20.704  0.00  0.00    +0.000 A 
ATOM      5  N   UNL     1       2.598   5.764  19.807  0.00  0.00    +0.000 NA
ATOM      6  C   UNL     1       2.722   6.523  18.748  0.00  0.00    +0.000 A 
ATOM      7  N   UNL     1       3.309   6.196  17.574  0.00  0.00    +0.000 N 
ATOM      8  H   UNL     1       3.389   6.852  16.810  0.00  0.00    +0.000 HD
ENDROOT
BRANCH   3   9
ATOM      9  C   UNL     1       0.804   8.836  20.875  0.00  0.00    +0.000 A 
ATOM     10  C   UNL     1       0.751   8.973  22.272  0.00  0.00    +0.000 A 
ATOM     11  C   UNL     1      -0.003   9.986  22.870  0.00  0.00    +0.000 A 
ATOM     12  C   UNL     1      -0.680  10.913  22.082  0.00  0.00    +0.000 A 
ATOM     13  C   UNL     1      -0.596  10.829  20.696  0.00  0.00    +0.000 A 
ATOM     14  C   UNL     1       0.134   9.796  20.099  0.00  0.00    +0.000 A 
ENDBRANCH   3   9
BRANCH   7  15
ATOM     15  C   UNL     1       4.334   5.167  17.575  0.00  0.00    +0.000 C 
BRANCH  15  16
ATOM     16  C   UNL     1       5.686   5.773  17.883  0.00  0.00    +0.000 A 
ATOM     17  C   UNL     1       6.176   6.868  17.156  0.00  0.00    +0.000 A 
ATOM     18  C   UNL     1       7.400   7.452  17.493  0.00  0.00    +0.000 A 
ATOM     19  C   UNL     1       8.147   6.947  18.556  0.00  0.00    +0.000 A 
ATOM     20  C   UNL     1       7.676   5.854  19.279  0.00  0.00    +0.000 A 
ATOM     21  C   UNL     1       6.454   5.269  18.944  0.00  0.00    +0.000 A 
ENDBRANCH  15  16
ENDBRANCH   7  15
TORSDOF 3
ENDMDL
MODEL 9
REMARK VINA RESULT:      -6.8      2.391      7.576
REMARK  Name = 
REMARK  4 active torsions:
REMARK  status: ('A' for Active; 'I' for Inactive)
REMARK    1  A    between atoms: C_1  and  N_2
REMARK    2  A    between atoms: C_3  and  C_4
REMARK    3  A    between atoms: N_13  and  C_14
REMARK    4  A    between atoms: C_14  and  C_15
REMARK                            x       y       z     vdW  Elec       q    Type
REMARK                         _______ _______ _______ _____ _____    ______ ____
ROOT
ATOM      1  C   UNL     1       3.362   7.715  17.767  0.00  0.00    +0.000 C 
ATOM      2  N   UNL     1       3.359   6.625  18.716  0.00  0.00    +0.000 N 
ATOM      3  C   UNL     1       4.008   5.403  18.605  0.00  0.00    +0.000 A 
ATOM      4  C   UNL     1       3.509   4.691  19.684  0.00  0.00    +0.000 A 
ATOM      5  N   UNL     1       2.635   5.428  20.432  0.00  0.00    +0.000 NA
ATOM      6  C   UNL     1       2.589   6.607  19.866  0.00  0.00    +0.000 A 
ATOM      7  N   UNL     1       1.905   7.692  20.295  0.00  0.00    +0.000 N 
ATOM      8  H   UNL     1       1.897   8.563  19.783  0.00  0.00    +0.000 HD
ENDROOT
BRANCH   3   9
ATOM      9  C   UNL     1       4.946   4.968  17.561  0.00  0.00    +0.000 A 
ATOM     10  C   UNL     1       6.334   4.931  17.766  0.00  0.00    +0.000 A 
ATOM     11  C   UNL     1       7.206   4.558  16.739  0.00  0.00    +0.000 A 
ATOM     12  C   UNL     1       6.703   4.165  15.502  0.00  0.00    +0.000 A 
ATOM     13  C   UNL     1       5.328   4.141  15.295  0.00  0.00    +0.000 A 
ATOM     14  C   UNL     1       4.458   4.544  16.313  0.00  0.00    +0.000 A 
ENDBRANCH   3   9
BRANCH   7  15
ATOM     15  C   UNL     1       0.728   7.488  21.122  0.00  0.00    +0.000 C 
BRANCH  15  16
ATOM     16  C   UNL     1       0.085   8.815  21.458  0.00  0.00    +0.000 A 
ATOM     17  C   UNL     1      -0.287   9.131  22.773  0.00  0.00    +0.000 A 
ATOM     18  C   UNL     1      -0.826  10.385  23.075  0.00  0.00    +0.000 A 
ATOM     19  C   UNL     1      -1.000  11.332  22.068  0.00  0.00    +0.000 A 
ATOM     20  C   UNL     1      -0.643  11.027  20.757  0.00  0.00    +0.000 A 
ATOM     21  C   UNL     1      -0.106   9.776  20.453  0.00  0.00    +0.000 A 
ENDBRANCH  15  16
ENDBRANCH   7  15
TORSDOF 3
ENDMDL
