MODEL 1
REMARK VINA RESULT:      -7.2      0.000      0.000
REMARK  Name = 
REMARK  4 active torsions:
REMARK  status: ('A' for Active; 'I' for Inactive)
REMARK    1  A    between atoms: C_1  and  C_2
REMARK    2  A    between atoms: C_8  and  C_9
REMARK    3  A    between atoms: N_11  and  C_12
REMARK    4  A    between atoms: C_17  and  O_18
REMARK                            x       y       z     vdW  Elec       q    Type
REMARK                         _______ _______ _______ _____ _____    ______ ____
ROOT
ATOM      1  C   UNL     1       3.578   6.194  18.839  0.00  0.00    +0.000 C 
ATOM      2  O   UNL     1       4.081   5.370  19.590  0.00  0.00    +0.000 OA
ATOM      3  N   UNL     1       3.939   6.440  17.531  0.00  0.00    +0.000 N 
ATOM      4  H   UNL     1       3.610   7.286  17.074  0.00  0.00    +0.000 HD
ENDROOT
BRANCH   1  12
ATOM      5  C   UNL     1      -0.831  11.559  22.498  0.00  0.00    +0.000 C 
ATOM      6  C   UNL     1       0.047  10.367  22.222  0.00  0.00    +0.000 C 
ATOM      7  O   UNL     1       0.728   9.858  23.105  0.00  0.00    +0.000 OA
ATOM      8  N   UNL     1      -0.017   9.947  20.909  0.00  0.00    +0.000 N 
ATOM      9  C   UNL     1       0.769   8.906  20.412  0.00  0.00    +0.000 A 
ATOM     10  C   UNL     1       0.974   7.722  21.117  0.00  0.00    +0.000 A 
ATOM     11  C   UNL     1       1.845   6.765  20.591  0.00  0.00    +0.000 A 
ATOM     12  C   UNL     1       2.509   7.048  19.400  0.00  0.00    +0.000 A 
ATOM     13  C   UNL     1       2.217   8.244  18.756  0.00  0.00    +0.000 A 
ATOM     14  N   UNL     1       1.317   9.152  19.209  0.00  0.00    +0.000 NA
ATOM     15  H   UNL     1      -0.226  10.644  20.207  0.00  0.00    +0.000 HD
ENDBRANCH   1  12
BRANCH   3  16
ATOM     16  C   UNL     1       4.933   5.739  16.808  0.00  0.00    +0.000 A 
ATOM     17  C   UNL     1       4.760   4.478  16.243  0.00  0.00    +0.000 A 
ATOM     18  C   UNL     1       5.826   3.866  15.580  0.00  0.00    +0.000 A 
ATOM     19  C   UNL     1       7.034   4.542  15.500  0.00  0.00    +0.000 A 
ATOM     20  N   UNL     1       7.242   5.776  16.011  0.00  0.00    +0.000 NA
ATOM     21  C   UNL     1       6.186   6.325  16.636  0.00  0.00    +0.000 A 
BRANCH  21  22
ATOM     22  O   UNL     1       6.449   7.557  17.154  0.00  0.00    +0.000 OA
ATOM     23  H   UNL     1       6.108   8.104  16.420  0.00  0.00    +0.000 HD
ENDBRANCH  21  22
ENDBRANCH   3  16
TORSDOF 3
ENDMDL
MODEL 2
REMARK VINA RESULT:      -7.1      1.102      1.143
REMARK  Name = 
REMARK  4 active torsions:
REMARK  status: ('A' for Active; 'I' for Inactive)
REMARK    1  A    between atoms: C_1  and  C_2
REMARK    2  A    between atoms: C_8  and  C_9
REMARK    3  A    between atoms: N_11  and  C_12
REMARK    4  A    between atoms: C_17  and  O_18
REMARK                            x       y       z     vdW  Elec       q    Type
REMARK                         _______ _______ _______ _____ _____    ______ ____
ROOT
ATOM      1  C   UNL     1       3.416   6.587  18.428  0.00  0.00    +0.000 C 
ATOM      2  O   UNL     1       3.629   5.686  19.229  0.00  0.00    +0.000 OA
ATOM      3  N   UNL     1       4.054   6.778  17.220  0.00  0.00    +0.000 N 
ATOM      4  H   UNL     1       3.958   7.670  16.742  0.00  0.00    +0.000 HD
ENDROOT
BRANCH   1  12
ATOM      5  C   UNL     1      -0.586  12.951  20.682  0.00  0.00    +0.000 C 
ATOM      6  C   UNL     1       0.269  11.713  20.698  0.00  0.00    +0.000 C 
ATOM      7  O   UNL     1       1.064  11.497  21.607  0.00  0.00    +0.000 OA
ATOM      8  N   UNL     1       0.049  10.895  19.609  0.00  0.00    +0.000 N 
ATOM      9  C   UNL     1       0.783   9.730  19.380  0.00  0.00    +0.000 A 
ATOM     10  C   UNL     1       1.094   8.830  20.397  0.00  0.00    +0.000 A 
ATOM     11  C   UNL     1       1.908   7.734  20.104  0.00  0.00    +0.000 A 
ATOM     12  C   UNL     1       2.413   7.602  18.812  0.00  0.00    +0.000 A 
ATOM     13  C   UNL     1       2.023   8.536  17.859  0.00  0.00    +0.000 A 
ATOM     14  N   UNL     1       1.172   9.563  18.104  0.00  0.00    +0.000 NA
ATOM     15  H   UNL     1      -0.258  11.334  18.752  0.00  0.00    +0.000 HD
ENDBRANCH   1  12
BRANCH   3  16
ATOM     16  C   UNL     1       5.041   5.927  16.669  0.00  0.00    +0.000 A 
ATOM     17  C   UNL     1       4.798   4.647  16.180  0.00  0.00    +0.000 A 
ATOM     18  C   UNL     1       5.858   3.882  15.690  0.00  0.00    +0.000 A 
ATOM     19  C   UNL     1       7.133   4.429  15.701  0.00  0.00    +0.000 A 
ATOM     20  N   UNL     1       7.413   5.675  16.143  0.00  0.00    +0.000 NA
ATOM     21  C   UNL     1       6.359   6.374  16.601  0.00  0.00    +0.000 A 
BRANCH  21  22
ATOM     22  O   UNL     1       6.693   7.613  17.056  0.00  0.00    +0.000 OA
ATOM     23  H   UNL     1       6.880   7.387  17.987  0.00  0.00    +0.000 HD
ENDBRANCH  21  22
ENDBRANCH   3  16
TORSDOF 3
ENDMDL
MODEL 3
REMARK VINA RESULT:      -7.0      2.323      7.946
REMARK  Name = 
REMARK  4 active torsions:
REMARK  status: ('A' for Active; 'I' for Inactive)
REMARK    1  A    between atoms: C_1  and  C_2
REMARK    2  A    between atoms: C_8  and  C_9
REMARK    3  A    between atoms: N_11  and  C_12
REMARK    4  A    between atoms: C_17  and  O_18
REMARK                            x       y       z     vdW  Elec       q    Type
REMARK                         _______ _______ _______ _____ _____    ______ ____
ROOT
ATOM      1  C   UNL     1       2.901   6.330  18.343  0.00  0.00    +0.000 C 
ATOM      2  O   UNL     1       2.190   5.464  18.836  0.00  0.00    +0.000 OA
ATOM      3  N   UNL     1       2.781   7.692  18.526  0.00  0.00    +0.000 N 
ATOM      4  H   UNL     1       3.277   8.323  17.903  0.00  0.00    +0.000 HD
ENDROOT
BRANCH   1  12
ATOM      5  C   UNL     1       7.432   4.318  12.258  0.00  0.00    +0.000 C 
ATOM      6  C   UNL     1       6.364   4.306  13.319  0.00  0.00    +0.000 C 
ATOM      7  O   UNL     1       5.339   3.645  13.186  0.00  0.00    +0.000 OA
ATOM      8  N   UNL     1       6.677   5.098  14.404  0.00  0.00    +0.000 N 
ATOM      9  C   UNL     1       5.800   5.295  15.472  0.00  0.00    +0.000 A 
ATOM     10  C   UNL     1       5.064   4.256  16.037  0.00  0.00    +0.000 A 
ATOM     11  C   UNL     1       4.142   4.550  17.044  0.00  0.00    +0.000 A 
ATOM     12  C   UNL     1       3.963   5.880  17.419  0.00  0.00    +0.000 A 
ATOM     13  C   UNL     1       4.763   6.843  16.817  0.00  0.00    +0.000 A 
ATOM     14  N   UNL     1       5.718   6.570  15.893  0.00  0.00    +0.000 NA
ATOM     15  H   UNL     1       7.273   5.898  14.240  0.00  0.00    +0.000 HD
ENDBRANCH   1  12
BRANCH   3  16
ATOM     16  C   UNL     1       1.835   8.327  19.366  0.00  0.00    +0.000 A 
ATOM     17  C   UNL     1       1.548   7.937  20.670  0.00  0.00    +0.000 A 
ATOM     18  C   UNL     1       0.568   8.619  21.395  0.00  0.00    +0.000 A 
ATOM     19  C   UNL     1      -0.091   9.678  20.787  0.00  0.00    +0.000 A 
ATOM     20  N   UNL     1       0.170  10.107  19.533  0.00  0.00    +0.000 NA
ATOM     21  C   UNL     1       1.124   9.422  18.877  0.00  0.00    +0.000 A 
BRANCH  21  22
ATOM     22  O   UNL     1       1.338   9.876  17.611  0.00  0.00    +0.000 OA
ATOM     23  H   UNL     1       1.956   9.185  17.306  0.00  0.00    +0.000 HD
ENDBRANCH  21  22
ENDBRANCH   3  16
TORSDOF 3
ENDMDL
MODEL 4
REMARK VINA RESULT:      -7.0      3.137      3.782
REMARK  Name = 
REMARK  4 active torsions:
REMARK  status: ('A' for Active; 'I' for Inactive)
REMARK    1  A    between atoms: C_1  and  C_2
REMARK    2  A    between atoms: C_8  and  C_9
REMARK    3  A    between atoms: N_11  and  C_12
REMARK    4  A    between atoms: C_17  and  O_18
REMARK                            x       y       z     vdW  Elec       q    Type
REMARK                         _______ _______ _______ _____ _____    ______ ____
ROOT
ATOM      1  C   UNL     1       2.845   6.596  18.513  0.00  0.00    +0.000 C 
ATOM      2  O   UNL     1       3.769   6.601  17.711  0.00  0.00    +0.000 OA
ATOM      3  N   UNL     1       2.299   5.490  19.130  0.00  0.00    +0.000 N 
ATOM      4  H   UNL     1       1.403   5.574  19.601  0.00  0.00    +0.000 HD
ENDROOT
BRANCH   1  12
ATOM      5  C   UNL     1      -1.921  12.693  19.828  0.00  0.00    +0.000 C 
ATOM      6  C   UNL     1      -1.112  11.624  19.143  0.00  0.00    +0.000 C 
ATOM      7  O   UNL     1      -1.389  11.241  18.012  0.00  0.00    +0.000 OA
ATOM      8  N   UNL     1      -0.070  11.159  19.919  0.00  0.00    +0.000 N 
ATOM      9  C   UNL     1       0.764  10.117  19.514  0.00  0.00    +0.000 A 
ATOM     10  C   UNL     1       1.264  10.019  18.218  0.00  0.00    +0.000 A 
ATOM     11  C   UNL     1       2.021   8.899  17.866  0.00  0.00    +0.000 A 
ATOM     12  C   UNL     1       2.214   7.899  18.817  0.00  0.00    +0.000 A 
ATOM     13  C   UNL     1       1.699   8.099  20.092  0.00  0.00    +0.000 A 
ATOM     14  N   UNL     1       1.029   9.214  20.475  0.00  0.00    +0.000 NA
ATOM     15  H   UNL     1      -0.186  11.195  20.923  0.00  0.00    +0.000 HD
ENDBRANCH   1  12
BRANCH   3  16
ATOM     16  C   UNL     1       2.753   4.158  18.977  0.00  0.00    +0.000 A 
ATOM     17  C   UNL     1       3.768   3.577  19.731  0.00  0.00    +0.000 A 
ATOM     18  C   UNL     1       4.157   2.262  19.468  0.00  0.00    +0.000 A 
ATOM     19  C   UNL     1       3.510   1.567  18.457  0.00  0.00    +0.000 A 
ATOM     20  N   UNL     1       2.504   2.081  17.716  0.00  0.00    +0.000 NA
ATOM     21  C   UNL     1       2.162   3.348  18.009  0.00  0.00    +0.000 A 
BRANCH  21  22
ATOM     22  O   UNL     1       1.160   3.830  17.222  0.00  0.00    +0.000 OA
ATOM     23  H   UNL     1       0.622   3.018  17.150  0.00  0.00    +0.000 HD
ENDBRANCH  21  22
ENDBRANCH   3  16
TORSDOF 3
ENDMDL
MODEL 5
REMARK VINA RESULT:      -7.0      4.220      5.011
REMARK  Name = 
REMARK  4 active torsions:
REMARK  status: ('A' for Active; 'I' for Inactive)
REMARK    1  A    between atoms: C_1  and  C_2
REMARK    2  A    between atoms: C_8  and  C_9
REMARK    3  A    between atoms: N_11  and  C_12
REMARK    4  A    between atoms: C_17  and  O_18
REMARK                            x       y       z     vdW  Elec       q    Type
REMARK                         _______ _______ _______ _____ _____    ______ ____
ROOT
ATOM      1  C   UNL     1       4.993   5.206  16.194  0.00  0.00    +0.000 C 
ATOM      2  O   UNL     1       4.913   6.364  15.809  0.00  0.00    +0.000 OA
ATOM      3  N   UNL     1       5.540   4.146  15.500  0.00  0.00    +0.000 N 
ATOM      4  H   UNL     1       5.357   3.198  15.816  0.00  0.00    +0.000 HD
ENDROOT
BRANCH   1  12
ATOM      5  C   UNL     1       1.119   2.314  22.377  0.00  0.00    +0.000 C 
ATOM      6  C   UNL     1       1.444   3.024  21.091  0.00  0.00    +0.000 C 
ATOM      7  O   UNL     1       0.580   3.250  20.250  0.00  0.00    +0.000 OA
ATOM      8  N   UNL     1       2.776   3.369  20.990  0.00  0.00    +0.000 N 
ATOM      9  C   UNL     1       3.315   3.969  19.852  0.00  0.00    +0.000 A 
ATOM     10  C   UNL     1       2.668   4.996  19.169  0.00  0.00    +0.000 A 
ATOM     11  C   UNL     1       3.231   5.484  17.988  0.00  0.00    +0.000 A 
ATOM     12  C   UNL     1       4.401   4.896  17.513  0.00  0.00    +0.000 A 
ATOM     13  C   UNL     1       4.988   3.896  18.279  0.00  0.00    +0.000 A 
ATOM     14  N   UNL     1       4.500   3.462  19.467  0.00  0.00    +0.000 NA
ATOM     15  H   UNL     1       3.445   2.787  21.475  0.00  0.00    +0.000 HD
ENDBRANCH   1  12
BRANCH   3  16
ATOM     16  C   UNL     1       6.154   4.228  14.228  0.00  0.00    +0.000 A 
ATOM     17  C   UNL     1       5.734   3.530  13.100  0.00  0.00    +0.000 A 
ATOM     18  C   UNL     1       6.440   3.662  11.903  0.00  0.00    +0.000 A 
ATOM     19  C   UNL     1       7.547   4.498  11.874  0.00  0.00    +0.000 A 
ATOM     20  N   UNL     1       7.978   5.213  12.936  0.00  0.00    +0.000 NA
ATOM     21  C   UNL     1       7.264   5.055  14.064  0.00  0.00    +0.000 A 
BRANCH  21  22
ATOM     22  O   UNL     1       7.748   5.778  15.113  0.00  0.00    +0.000 OA
ATOM     23  H   UNL     1       8.654   5.934  14.782  0.00  0.00    +0.000 HD
ENDBRANCH  21  22
ENDBRANCH   3  16
TORSDOF 3
ENDMDL
MODEL 6
REMARK VINA RESULT:      -6.9      1.941      2.238
REMARK  Name = 
REMARK  4 active torsions:
REMARK  status: ('A' for Active; 'I' for Inactive)
REMARK    1  A    between atoms: C_1  and  C_2
REMARK    2  A    between atoms: C_8  and  C_9
REMARK    3  A    between atoms: N_11  and  C_12
REMARK    4  A    between atoms: C_17  and  O_18
REMARK                            x       y       z     vdW  Elec       q    Type
REMARK                         _______ _______ _______ _____ _____    ______ ____
ROOT
ATOM      1  C   UNL     1       3.364   6.869  18.306  0.00  0.00    +0.000 C 
ATOM      2  O   UNL     1       3.366   5.924  19.084  0.00  0.00    +0.000 OA
ATOM      3  N   UNL     1       4.142   7.003  17.175  0.00  0.00    +0.000 N 
ATOM      4  H   UNL     1       4.220   7.913  16.730  0.00  0.00    +0.000 HD
ENDROOT
BRANCH   1  12
ATOM      5  C   UNL     1      -2.550  11.875  19.557  0.00  0.00    +0.000 C 
ATOM      6  C   UNL     1      -1.499  11.034  18.884  0.00  0.00    +0.000 C 
ATOM      7  O   UNL     1      -1.598  10.711  17.705  0.00  0.00    +0.000 OA
ATOM      8  N   UNL     1      -0.463  10.694  19.728  0.00  0.00    +0.000 N 
ATOM      9  C   UNL     1       0.584   9.858  19.338  0.00  0.00    +0.000 A 
ATOM     10  C   UNL     1       1.207   9.968  18.097  0.00  0.00    +0.000 A 
ATOM     11  C   UNL     1       2.187   9.037  17.746  0.00  0.00    +0.000 A 
ATOM     12  C   UNL     1       2.477   8.005  18.636  0.00  0.00    +0.000 A 
ATOM     13  C   UNL     1       1.823   7.995  19.861  0.00  0.00    +0.000 A 
ATOM     14  N   UNL     1       0.925   8.933  20.253  0.00  0.00    +0.000 NA
ATOM     15  H   UNL     1      -0.672  10.618  20.714  0.00  0.00    +0.000 HD
ENDBRANCH   1  12
BRANCH   3  16
ATOM     16  C   UNL     1       5.051   6.036  16.686  0.00  0.00    +0.000 A 
ATOM     17  C   UNL     1       4.696   4.760  16.259  0.00  0.00    +0.000 A 
ATOM     18  C   UNL     1       5.686   3.875  15.827  0.00  0.00    +0.000 A 
ATOM     19  C   UNL     1       7.006   4.302  15.831  0.00  0.00    +0.000 A 
ATOM     20  N   UNL     1       7.395   5.538  16.213  0.00  0.00    +0.000 NA
ATOM     21  C   UNL     1       6.406   6.354  16.617  0.00  0.00    +0.000 A 
BRANCH  21  22
ATOM     22  O   UNL     1       6.849   7.580  17.013  0.00  0.00    +0.000 OA
ATOM     23  H   UNL     1       6.081   7.851  17.552  0.00  0.00    +0.000 HD
ENDBRANCH  21  22
ENDBRANCH   3  16
TORSDOF 3
ENDMDL
MODEL 7
REMARK VINA RESULT:      -6.8      1.282      1.510
REMARK  Name = 
REMARK  4 active torsions:
REMARK  status: ('A' for Active; 'I' for Inactive)
REMARK    1  A    between atoms: C_1  and  C_2
REMARK    2  A    between atoms: C_8  and  C_9
REMARK    3  A    between atoms: N_11  and  C_12
REMARK    4  A    between atoms: C_17  and  O_18
REMARK                            x       y       z     vdW  Elec       q    Type
REMARK                         _______ _______ _______ _____ _____    ______ ____
ROOT
ATOM      1  C   UNL     1       3.357   7.392  17.978  0.00  0.00    +0.000 C 
ATOM      2  O   UNL     1       3.575   8.026  16.955  0.00  0.00    +0.000 OA
ATOM      3  N   UNL     1       3.988   6.231  18.374  0.00  0.00    +0.000 N 
ATOM      4  H   UNL     1       3.582   5.674  19.121  0.00  0.00    +0.000 HD
ENDROOT
BRANCH   1  12
ATOM      5  C   UNL     1      -1.225  11.094  23.165  0.00  0.00    +0.000 C 
ATOM      6  C   UNL     1      -0.181  10.198  22.554  0.00  0.00    +0.000 C 
ATOM      7  O   UNL     1       0.784   9.807  23.202  0.00  0.00    +0.000 OA
ATOM      8  N   UNL     1      -0.443   9.892  21.235  0.00  0.00    +0.000 N 
ATOM      9  C   UNL     1       0.429   9.137  20.449  0.00  0.00    +0.000 A 
ATOM     10  C   UNL     1       1.061   7.990  20.923  0.00  0.00    +0.000 A 
ATOM     11  C   UNL     1       1.987   7.340  20.104  0.00  0.00    +0.000 A 
ATOM     12  C   UNL     1       2.276   7.888  18.856  0.00  0.00    +0.000 A 
ATOM     13  C   UNL     1       1.574   9.019  18.460  0.00  0.00    +0.000 A 
ATOM     14  N   UNL     1       0.615   9.621  19.207  0.00  0.00    +0.000 NA
ATOM     15  H   UNL     1      -0.963  10.570  20.694  0.00  0.00    +0.000 HD
ENDBRANCH   1  12
BRANCH   3  16
ATOM     16  C   UNL     1       5.043   5.593  17.680  0.00  0.00    +0.000 A 
ATOM     17  C   UNL     1       5.025   5.282  16.324  0.00  0.00    +0.000 A 
ATOM     18  C   UNL     1       6.112   4.619  15.752  0.00  0.00    +0.000 A 
ATOM     19  C   UNL     1       7.191   4.291  16.561  0.00  0.00    +0.000 A 
ATOM     20  N   UNL     1       7.263   4.593  17.877  0.00  0.00    +0.000 NA
ATOM     21  C   UNL     1       6.194   5.235  18.380  0.00  0.00    +0.000 A 
BRANCH  21  22
ATOM     22  O   UNL     1       6.304   5.499  19.712  0.00  0.00    +0.000 OA
ATOM     23  H   UNL     1       7.085   4.947  19.911  0.00  0.00    +0.000 HD
ENDBRANCH  21  22
ENDBRANCH   3  16
TORSDOF 3
ENDMDL
MODEL 8
REMARK VINA RESULT:      -6.7      1.984      2.341
REMARK  Name = 
REMARK  4 active torsions:
REMARK  status: ('A' for Active; 'I' for Inactive)
REMARK    1  A    between atoms: C_1  and  C_2
REMARK    2  A    between atoms: C_8  and  C_9
REMARK    3  A    between atoms: N_11  and  C_12
REMARK    4  A    between atoms: C_17  and  O_18
REMARK                            x       y       z     vdW  Elec       q    Type
REMARK                         _______ _______ _______ _____ _____    ______ ____
ROOT
ATOM      1  C   UNL     1       3.012   6.939  18.051  0.00  0.00    +0.000 C 
ATOM      2  O   UNL     1       2.507   5.838  18.229  0.00  0.00    +0.000 OA
ATOM      3  N   UNL     1       4.225   7.198  17.449  0.00  0.00    +0.000 N 
ATOM      4  H   UNL     1       4.645   8.118  17.551  0.00  0.00    +0.000 HD
ENDROOT
BRANCH   1  12
ATOM      5  C   UNL     1      -2.252  12.260  20.414  0.00  0.00    +0.000 C 
ATOM      6  C   UNL     1      -1.364  11.403  19.552  0.00  0.00    +0.000 C 
ATOM      7  O   UNL     1      -1.627  11.196  18.373  0.00  0.00    +0.000 OA
ATOM      8  N   UNL     1      -0.271  10.908  20.233  0.00  0.00    +0.000 N 
ATOM      9  C   UNL     1       0.645  10.031  19.651  0.00  0.00    +0.000 A 
ATOM     10  C   UNL     1       1.128  10.204  18.356  0.00  0.00    +0.000 A 
ATOM     11  C   UNL     1       1.974   9.234  17.814  0.00  0.00    +0.000 A 
ATOM     12  C   UNL     1       2.273   8.107  18.577  0.00  0.00    +0.000 A 
ATOM     13  C   UNL     1       1.767   8.038  19.869  0.00  0.00    +0.000 A 
ATOM     14  N   UNL     1       1.008   9.005  20.441  0.00  0.00    +0.000 NA
ATOM     15  H   UNL     1      -0.370  10.761  21.228  0.00  0.00    +0.000 HD
ENDBRANCH   1  12
BRANCH   3  16
ATOM     16  C   UNL     1       5.084   6.226  16.883  0.00  0.00    +0.000 A 
ATOM     17  C   UNL     1       5.260   6.027  15.517  0.00  0.00    +0.000 A 
ATOM     18  C   UNL     1       6.110   5.012  15.071  0.00  0.00    +0.000 A 
ATOM     19  C   UNL     1       6.763   4.231  16.012  0.00  0.00    +0.000 A 
ATOM     20  N   UNL     1       6.641   4.403  17.347  0.00  0.00    +0.000 NA
ATOM     21  C   UNL     1       5.816   5.394  17.727  0.00  0.00    +0.000 A 
BRANCH  21  22
ATOM     22  O   UNL     1       5.709   5.515  19.080  0.00  0.00    +0.000 OA
ATOM     23  H   UNL     1       6.650   5.403  19.316  0.00  0.00    +0.000 HD
ENDBRANCH  21  22
ENDBRANCH   3  16
TORSDOF 3
ENDMDL
MODEL 9
REMARK VINA RESULT:      -6.6      1.062      1.161
REMARK  Name = 
REMARK  4 active torsions:
REMARK  status: ('A' for Active; 'I' for Inactive)
REMARK    1  A    between atoms: C_1  and  C_2
REMARK    2  A    between atoms: C_8  and  C_9
REMARK    3  A    between atoms: N_11  and  C_12
REMARK    4  A    between atoms: C_17  and  O_18
REMARK                            x       y       z     vdW  Elec       q    Type
REMARK                         _______ _______ _______ _____ _____    ______ ____
ROOT
ATOM      1  C   UNL     1       3.432   7.386  17.516  0.00  0.00    +0.000 C 
ATOM      2  O   UNL     1       3.612   8.098  16.536  0.00  0.00    +0.000 OA
ATOM      3  N   UNL     1       4.055   6.186  17.783  0.00  0.00    +0.000 N 
ATOM      4  H   UNL     1       3.676   5.578  18.504  0.00  0.00    +0.000 HD
ENDROOT
BRANCH   1  12
ATOM      5  C   UNL     1      -0.831  10.829  23.136  0.00  0.00    +0.000 C 
ATOM      6  C   UNL     1       0.186   9.978  22.423  0.00  0.00    +0.000 C 
ATOM      7  O   UNL     1       1.208   9.599  22.984  0.00  0.00    +0.000 OA
ATOM      8  N   UNL     1      -0.169   9.698  21.119  0.00  0.00    +0.000 N 
ATOM      9  C   UNL     1       0.659   8.987  20.249  0.00  0.00    +0.000 A 
ATOM     10  C   UNL     1       1.355   7.847  20.643  0.00  0.00    +0.000 A 
ATOM     11  C   UNL     1       2.232   7.244  19.738  0.00  0.00    +0.000 A 
ATOM     12  C   UNL     1       2.410   7.830  18.487  0.00  0.00    +0.000 A 
ATOM     13  C   UNL     1       1.649   8.951  18.177  0.00  0.00    +0.000 A 
ATOM     14  N   UNL     1       0.735   9.506  19.011  0.00  0.00    +0.000 NA
ATOM     15  H   UNL     1      -0.747  10.374  20.639  0.00  0.00    +0.000 HD
ENDBRANCH   1  12
BRANCH   3  16
ATOM     16  C   UNL     1       5.059   5.586  16.986  0.00  0.00    +0.000 A 
ATOM     17  C   UNL     1       4.920   4.372  16.319  0.00  0.00    +0.000 A 
ATOM     18  C   UNL     1       5.993   3.860  15.588  0.00  0.00    +0.000 A 
ATOM     19  C   UNL     1       7.174   4.585  15.543  0.00  0.00    +0.000 A 
ATOM     20  N   UNL     1       7.347   5.778  16.153  0.00  0.00    +0.000 NA
ATOM     21  C   UNL     1       6.285   6.232  16.842  0.00  0.00    +0.000 A 
BRANCH  21  22
ATOM     22  O   UNL     1       6.515   7.426  17.457  0.00  0.00    +0.000 OA
ATOM     23  H   UNL     1       6.743   7.959  16.672  0.00  0.00    +0.000 HD
ENDBRANCH  21  22
ENDBRANCH   3  16
TORSDOF 3
ENDMDL
