MODEL 1
REMARK VINA RESULT:      -7.4      0.000      0.000
REMARK  Name = 
REMARK  10 active torsions:
REMARK  status: ('A' for Active; 'I' for Inactive)
REMARK    1  A    between atoms: C_2  and  C_3
REMARK    2  A    between atoms: C_3  and  C_4
REMARK    3  A    between atoms: C_4  and  C_5
REMARK    4  A    between atoms: C_5  and  O_6
REMARK    5  A    between atoms: O_6  and  P_7
REMARK    6  A    between atoms: P_7  and  O_9
REMARK    7  A    between atoms: P_7  and  O_10
REMARK    8  A    between atoms: C_12  and  N_13
REMARK    9  A    between atoms: C_23  and  O_24
REMARK   10  A    between atoms: C_25  and  O_26
REMARK                            x       y       z     vdW  Elec       q    Type
REMARK                         _______ _______ _______ _____ _____    ______ ____
ROOT
ATOM      1  C   UNL     1       4.568   4.880  18.383  0.00  0.00    +0.000 C 
ATOM      2  O   UNL     1       4.262   6.195  18.928  0.00  0.00    +0.000 OA
ATOM      3  C   UNL     1       2.910   6.215  19.448  0.00  0.00    +0.000 C 
ATOM      4  C   UNL     1       2.212   4.949  18.953  0.00  0.00    +0.000 C 
ATOM      5  C   UNL     1       3.389   3.973  18.831  0.00  0.00    +0.000 C 
ENDROOT
BRANCH   3   6
ATOM      6  N   UNL     1       2.265   7.460  19.082  0.00  0.00    +0.000 N 
ATOM      7  C   UNL     1       2.342   8.093  17.873  0.00  0.00    +0.000 A 
ATOM      8  N   UNL     1       1.752   9.273  17.887  0.00  0.00    +0.000 NA
ATOM      9  C   UNL     1       1.279   9.411  19.174  0.00  0.00    +0.000 A 
ATOM     10  C   UNL     1       0.599  10.459  19.822  0.00  0.00    +0.000 A 
ATOM     11  N   UNL     1       0.231  11.637  19.182  0.00  0.00    +0.000 N 
ATOM     12  N   UNL     1       0.299  10.316  21.130  0.00  0.00    +0.000 NA
ATOM     13  C   UNL     1       0.636   9.163  21.747  0.00  0.00    +0.000 A 
ATOM     14  N   UNL     1       1.277   8.088  21.228  0.00  0.00    +0.000 NA
ATOM     15  C   UNL     1       1.573   8.287  19.937  0.00  0.00    +0.000 A 
ATOM     16  H   UNL     1       0.752  11.825  18.334  0.00  0.00    +0.000 HD
ATOM     17  H   UNL     1       0.068  12.401  19.824  0.00  0.00    +0.000 HD
ENDBRANCH   3   6
BRANCH   4  18
ATOM     18  O   UNL     1       1.235   4.480  19.880  0.00  0.00    +0.000 OA
ATOM     19  H   UNL     1       1.577   4.671  20.778  0.00  0.00    +0.000 HD
ENDBRANCH   4  18
BRANCH   5  20
ATOM     20  O   UNL     1       3.543   3.345  20.111  0.00  0.00    +0.000 OA
ATOM     21  H   UNL     1       3.664   4.036  20.792  0.00  0.00    +0.000 HD
ENDBRANCH   5  20
BRANCH   1  22
ATOM     22  C   UNL     1       6.018   4.478  18.802  0.00  0.00    +0.000 C 
BRANCH  22  24
ATOM     23  C   UNL     1       7.846   6.211  18.836  0.00  0.00    +0.000 C 
ATOM     24  C   UNL     1       6.945   5.477  19.469  0.00  0.00    +0.000 C 
ENDBRANCH  22  24
ENDBRANCH   1  22
BRANCH   1  25
ATOM     25  C   UNL     1       4.571   5.035  16.823  0.00  0.00    +0.000 C 
BRANCH  25  26
ATOM     26  O   UNL     1       5.489   4.104  16.230  0.00  0.00    +0.000 OA
BRANCH  26  27
ATOM     27  P   UNL     1       6.584   4.794  15.082  0.00  0.00    +0.000 P 
ATOM     28  O   UNL     1       7.796   4.443  15.938  0.00  0.00    +0.000 OA
BRANCH  27  29
ATOM     29  O   UNL     1       6.386   3.499  14.120  0.00  0.00    +0.000 OA
ATOM     30  H   UNL     1       6.735   2.715  14.586  0.00  0.00    +0.000 HD
ENDBRANCH  27  29
BRANCH  27  31
ATOM     31  O   UNL     1       7.680   5.483  13.935  0.00  0.00    +0.000 OA
ATOM     32  H   UNL     1       7.446   5.023  13.102  0.00  0.00    +0.000 HD
ENDBRANCH  27  31
ENDBRANCH  26  27
ENDBRANCH  25  26
ENDBRANCH   1  25
TORSDOF 10
ENDMDL
MODEL 2
REMARK VINA RESULT:      -7.3      3.265      5.294
REMARK  Name = 
REMARK  10 active torsions:
REMARK  status: ('A' for Active; 'I' for Inactive)
REMARK    1  A    between atoms: C_2  and  C_3
REMARK    2  A    between atoms: C_3  and  C_4
REMARK    3  A    between atoms: C_4  and  C_5
REMARK    4  A    between atoms: C_5  and  O_6
REMARK    5  A    between atoms: O_6  and  P_7
REMARK    6  A    between atoms: P_7  and  O_9
REMARK    7  A    between atoms: P_7  and  O_10
REMARK    8  A    between atoms: C_12  and  N_13
REMARK    9  A    between atoms: C_23  and  O_24
REMARK   10  A    between atoms: C_25  and  O_26
REMARK                            x       y       z     vdW  Elec       q    Type
REMARK                         _______ _______ _______ _____ _____    ______ ____
ROOT
ATOM      1  C   UNL     1       6.266   5.178  15.851  0.00  0.00    +0.000 C 
ATOM      2  O   UNL     1       5.277   4.182  16.241  0.00  0.00    +0.000 OA
ATOM      3  C   UNL     1       4.168   4.822  16.916  0.00  0.00    +0.000 C 
ATOM      4  C   UNL     1       4.593   6.254  17.237  0.00  0.00    +0.000 C 
ATOM      5  C   UNL     1       5.578   6.548  16.099  0.00  0.00    +0.000 C 
ENDROOT
BRANCH   3   6
ATOM      6  N   UNL     1       3.766   4.026  18.058  0.00  0.00    +0.000 N 
ATOM      7  C   UNL     1       3.934   2.678  18.212  0.00  0.00    +0.000 A 
ATOM      8  N   UNL     1       3.349   2.221  19.302  0.00  0.00    +0.000 NA
ATOM      9  C   UNL     1       2.764   3.330  19.875  0.00  0.00    +0.000 A 
ATOM     10  C   UNL     1       1.969   3.490  21.025  0.00  0.00    +0.000 A 
ATOM     11  N   UNL     1       1.639   2.439  21.873  0.00  0.00    +0.000 N 
ATOM     12  N   UNL     1       1.496   4.721  21.312  0.00  0.00    +0.000 NA
ATOM     13  C   UNL     1       1.834   5.747  20.500  0.00  0.00    +0.000 A 
ATOM     14  N   UNL     1       2.596   5.717  19.380  0.00  0.00    +0.000 NA
ATOM     15  C   UNL     1       3.021   4.473  19.126  0.00  0.00    +0.000 A 
ATOM     16  H   UNL     1       1.732   1.523  21.450  0.00  0.00    +0.000 HD
ATOM     17  H   UNL     1       0.820   2.627  22.435  0.00  0.00    +0.000 HD
ENDBRANCH   3   6
BRANCH   4  18
ATOM     18  O   UNL     1       3.488   7.156  17.221  0.00  0.00    +0.000 OA
ATOM     19  H   UNL     1       3.143   7.202  18.137  0.00  0.00    +0.000 HD
ENDBRANCH   4  18
BRANCH   5  20
ATOM     20  O   UNL     1       4.807   7.061  15.003  0.00  0.00    +0.000 OA
ATOM     21  H   UNL     1       5.239   6.804  14.163  0.00  0.00    +0.000 HD
ENDBRANCH   5  20
BRANCH   1  22
ATOM     22  C   UNL     1       6.780   4.851  14.413  0.00  0.00    +0.000 C 
BRANCH  22  24
ATOM     23  C   UNL     1       6.336   3.563  12.294  0.00  0.00    +0.000 C 
ATOM     24  C   UNL     1       6.157   3.737  13.593  0.00  0.00    +0.000 C 
ENDBRANCH  22  24
ENDBRANCH   1  22
BRANCH   1  25
ATOM     25  C   UNL     1       7.484   4.999  16.822  0.00  0.00    +0.000 C 
BRANCH  25  26
ATOM     26  O   UNL     1       7.565   6.106  17.731  0.00  0.00    +0.000 OA
BRANCH  26  27
ATOM     27  P   UNL     1       7.951   5.680  19.363  0.00  0.00    +0.000 P 
ATOM     28  O   UNL     1       6.535   5.182  19.631  0.00  0.00    +0.000 OA
BRANCH  27  29
ATOM     29  O   UNL     1       8.743   4.365  18.830  0.00  0.00    +0.000 OA
ATOM     30  H   UNL     1       8.567   3.630  19.448  0.00  0.00    +0.000 HD
ENDBRANCH  27  29
BRANCH  27  31
ATOM     31  O   UNL     1       8.335   5.254  20.995  0.00  0.00    +0.000 OA
ATOM     32  H   UNL     1       7.864   4.404  21.118  0.00  0.00    +0.000 HD
ENDBRANCH  27  31
ENDBRANCH  26  27
ENDBRANCH  25  26
ENDBRANCH   1  25
TORSDOF 10
ENDMDL
MODEL 3
REMARK VINA RESULT:      -7.1      3.541      5.327
REMARK  Name = 
REMARK  10 active torsions:
REMARK  status: ('A' for Active; 'I' for Inactive)
REMARK    1  A    between atoms: C_2  and  C_3
REMARK    2  A    between atoms: C_3  and  C_4
REMARK    3  A    between atoms: C_4  and  C_5
REMARK    4  A    between atoms: C_5  and  O_6
REMARK    5  A    between atoms: O_6  and  P_7
REMARK    6  A    between atoms: P_7  and  O_9
REMARK    7  A    between atoms: P_7  and  O_10
REMARK    8  A    between atoms: C_12  and  N_13
REMARK    9  A    between atoms: C_23  and  O_24
REMARK   10  A    between atoms: C_25  and  O_26
REMARK                            x       y       z     vdW  Elec       q    Type
REMARK                         _______ _______ _______ _____ _____    ______ ____
ROOT
ATOM      1  C   UNL     1       5.429   4.796  16.047  0.00  0.00    +0.000 C 
ATOM      2  O   UNL     1       4.172   4.393  16.661  0.00  0.00    +0.000 OA
ATOM      3  C   UNL     1       3.562   5.524  17.330  0.00  0.00    +0.000 C 
ATOM      4  C   UNL     1       4.611   6.633  17.401  0.00  0.00    +0.000 C 
ATOM      5  C   UNL     1       5.452   6.345  16.152  0.00  0.00    +0.000 C 
ENDROOT
BRANCH   3   6
ATOM      6  N   UNL     1       3.020   5.103  18.606  0.00  0.00    +0.000 N 
ATOM      7  C   UNL     1       3.357   5.594  19.836  0.00  0.00    +0.000 A 
ATOM      8  N   UNL     1       2.788   4.920  20.818  0.00  0.00    +0.000 NA
ATOM      9  C   UNL     1       2.056   3.937  20.188  0.00  0.00    +0.000 A 
ATOM     10  C   UNL     1       1.266   2.885  20.684  0.00  0.00    +0.000 A 
ATOM     11  N   UNL     1       1.052   2.669  22.041  0.00  0.00    +0.000 N 
ATOM     12  N   UNL     1       0.695   2.039  19.801  0.00  0.00    +0.000 NA
ATOM     13  C   UNL     1       0.883   2.261  18.481  0.00  0.00    +0.000 A 
ATOM     14  N   UNL     1       1.609   3.240  17.889  0.00  0.00    +0.000 NA
ATOM     15  C   UNL     1       2.171   4.037  18.806  0.00  0.00    +0.000 A 
ATOM     16  H   UNL     1       1.741   3.105  22.641  0.00  0.00    +0.000 HD
ATOM     17  H   UNL     1       0.765   1.722  22.250  0.00  0.00    +0.000 HD
ENDBRANCH   3   6
BRANCH   4  18
ATOM     18  O   UNL     1       4.022   7.930  17.351  0.00  0.00    +0.000 OA
ATOM     19  H   UNL     1       3.053   7.803  17.275  0.00  0.00    +0.000 HD
ENDBRANCH   4  18
BRANCH   5  20
ATOM     20  O   UNL     1       4.835   7.048  15.064  0.00  0.00    +0.000 OA
ATOM     21  H   UNL     1       4.424   6.400  14.458  0.00  0.00    +0.000 HD
ENDBRANCH   5  20
BRANCH   1  22
ATOM     22  C   UNL     1       5.538   4.143  14.632  0.00  0.00    +0.000 C 
BRANCH  22  24
ATOM     23  C   UNL     1       6.846   4.018  12.483  0.00  0.00    +0.000 C 
ATOM     24  C   UNL     1       6.751   4.381  13.751  0.00  0.00    +0.000 C 
ENDBRANCH  22  24
ENDBRANCH   1  22
BRANCH   1  25
ATOM     25  C   UNL     1       6.571   4.176  16.923  0.00  0.00    +0.000 C 
BRANCH  25  26
ATOM     26  O   UNL     1       7.551   5.173  17.246  0.00  0.00    +0.000 OA
BRANCH  26  27
ATOM     27  P   UNL     1       7.979   5.258  18.920  0.00  0.00    +0.000 P 
ATOM     28  O   UNL     1       7.955   6.783  18.910  0.00  0.00    +0.000 OA
BRANCH  27  29
ATOM     29  O   UNL     1       6.462   4.838  19.326  0.00  0.00    +0.000 OA
ATOM     30  H   UNL     1       5.845   5.317  18.740  0.00  0.00    +0.000 HD
ENDBRANCH  27  29
BRANCH  27  31
ATOM     31  O   UNL     1       8.406   5.345  20.594  0.00  0.00    +0.000 OA
ATOM     32  H   UNL     1       7.690   5.893  20.977  0.00  0.00    +0.000 HD
ENDBRANCH  27  31
ENDBRANCH  26  27
ENDBRANCH  25  26
ENDBRANCH   1  25
TORSDOF 10
ENDMDL
MODEL 4
REMARK VINA RESULT:      -7.1      1.177      1.513
REMARK  Name = 
REMARK  10 active torsions:
REMARK  status: ('A' for Active; 'I' for Inactive)
REMARK    1  A    between atoms: C_2  and  C_3
REMARK    2  A    between atoms: C_3  and  C_4
REMARK    3  A    between atoms: C_4  and  C_5
REMARK    4  A    between atoms: C_5  and  O_6
REMARK    5  A    between atoms: O_6  and  P_7
REMARK    6  A    between atoms: P_7  and  O_9
REMARK    7  A    between atoms: P_7  and  O_10
REMARK    8  A    between atoms: C_12  and  N_13
REMARK    9  A    between atoms: C_23  and  O_24
REMARK   10  A    between atoms: C_25  and  O_26
REMARK                            x       y       z     vdW  Elec       q    Type
REMARK                         _______ _______ _______ _____ _____    ______ ____
ROOT
ATOM      1  C   UNL     1       5.640   5.330  17.577  0.00  0.00    +0.000 C 
ATOM      2  O   UNL     1       5.011   6.375  18.373  0.00  0.00    +0.000 OA
ATOM      3  C   UNL     1       3.623   6.044  18.619  0.00  0.00    +0.000 C 
ATOM      4  C   UNL     1       3.261   4.880  17.697  0.00  0.00    +0.000 C 
ATOM      5  C   UNL     1       4.610   4.167  17.552  0.00  0.00    +0.000 C 
ENDROOT
BRANCH   3   6
ATOM      6  N   UNL     1       2.804   7.230  18.468  0.00  0.00    +0.000 N 
ATOM      7  C   UNL     1       2.784   8.075  17.394  0.00  0.00    +0.000 A 
ATOM      8  N   UNL     1       2.031   9.137  17.607  0.00  0.00    +0.000 NA
ATOM      9  C   UNL     1       1.550   8.973  18.888  0.00  0.00    +0.000 A 
ATOM     10  C   UNL     1       0.731   9.780  19.699  0.00  0.00    +0.000 A 
ATOM     11  N   UNL     1       0.195  10.990  19.272  0.00  0.00    +0.000 N 
ATOM     12  N   UNL     1       0.461   9.363  20.954  0.00  0.00    +0.000 NA
ATOM     13  C   UNL     1       0.963   8.177  21.362  0.00  0.00    +0.000 A 
ATOM     14  N   UNL     1       1.749   7.315  20.672  0.00  0.00    +0.000 NA
ATOM     15  C   UNL     1       2.005   7.783  19.443  0.00  0.00    +0.000 A 
ATOM     16  H   UNL     1       0.678  11.400  18.482  0.00  0.00    +0.000 HD
ATOM     17  H   UNL     1      -0.073  11.595  20.037  0.00  0.00    +0.000 HD
ENDBRANCH   3   6
BRANCH   4  18
ATOM     18  O   UNL     1       2.275   4.027  18.275  0.00  0.00    +0.000 OA
ATOM     19  H   UNL     1       1.445   4.167  17.773  0.00  0.00    +0.000 HD
ENDBRANCH   4  18
BRANCH   5  20
ATOM     20  O   UNL     1       4.706   3.232  18.635  0.00  0.00    +0.000 OA
ATOM     21  H   UNL     1       3.805   2.995  18.932  0.00  0.00    +0.000 HD
ENDBRANCH   5  20
BRANCH   1  22
ATOM     22  C   UNL     1       7.069   5.047  18.143  0.00  0.00    +0.000 C 
BRANCH  22  24
ATOM     23  C   UNL     1       8.213   7.259  18.519  0.00  0.00    +0.000 C 
ATOM     24  C   UNL     1       7.802   6.086  18.971  0.00  0.00    +0.000 C 
ENDBRANCH  22  24
ENDBRANCH   1  22
BRANCH   1  25
ATOM     25  C   UNL     1       5.829   5.919  16.137  0.00  0.00    +0.000 C 
BRANCH  25  26
ATOM     26  O   UNL     1       7.029   5.407  15.541  0.00  0.00    +0.000 OA
BRANCH  26  27
ATOM     27  P   UNL     1       6.778   4.311  14.225  0.00  0.00    +0.000 P 
ATOM     28  O   UNL     1       5.298   4.668  14.133  0.00  0.00    +0.000 OA
BRANCH  27  29
ATOM     29  O   UNL     1       7.505   5.358  13.217  0.00  0.00    +0.000 OA
ATOM     30  H   UNL     1       7.922   6.060  13.754  0.00  0.00    +0.000 HD
ENDBRANCH  27  29
BRANCH  27  31
ATOM     31  O   UNL     1       6.524   3.216  12.910  0.00  0.00    +0.000 OA
ATOM     32  H   UNL     1       7.192   2.518  13.072  0.00  0.00    +0.000 HD
ENDBRANCH  27  31
ENDBRANCH  26  27
ENDBRANCH  25  26
ENDBRANCH   1  25
TORSDOF 10
ENDMDL
MODEL 5
REMARK VINA RESULT:      -7.0      3.625      5.463
REMARK  Name = 
REMARK  10 active torsions:
REMARK  status: ('A' for Active; 'I' for Inactive)
REMARK    1  A    between atoms: C_2  and  C_3
REMARK    2  A    between atoms: C_3  and  C_4
REMARK    3  A    between atoms: C_4  and  C_5
REMARK    4  A    between atoms: C_5  and  O_6
REMARK    5  A    between atoms: O_6  and  P_7
REMARK    6  A    between atoms: P_7  and  O_9
REMARK    7  A    between atoms: P_7  and  O_10
REMARK    8  A    between atoms: C_12  and  N_13
REMARK    9  A    between atoms: C_23  and  O_24
REMARK   10  A    between atoms: C_25  and  O_26
REMARK                            x       y       z     vdW  Elec       q    Type
REMARK                         _______ _______ _______ _____ _____    ______ ____
ROOT
ATOM      1  C   UNL     1       5.542   4.761  16.128  0.00  0.00    +0.000 C 
ATOM      2  O   UNL     1       4.244   4.219  16.507  0.00  0.00    +0.000 OA
ATOM      3  C   UNL     1       3.450   5.240  17.158  0.00  0.00    +0.000 C 
ATOM      4  C   UNL     1       4.382   6.409  17.476  0.00  0.00    +0.000 C 
ATOM      5  C   UNL     1       5.420   6.293  16.354  0.00  0.00    +0.000 C 
ENDROOT
BRANCH   3   6
ATOM      6  N   UNL     1       2.762   4.670  18.298  0.00  0.00    +0.000 N 
ATOM      7  C   UNL     1       1.555   5.067  18.803  0.00  0.00    +0.000 A 
ATOM      8  N   UNL     1       1.251   4.442  19.924  0.00  0.00    +0.000 NA
ATOM      9  C   UNL     1       2.321   3.607  20.160  0.00  0.00    +0.000 A 
ATOM     10  C   UNL     1       2.611   2.717  21.210  0.00  0.00    +0.000 A 
ATOM     11  N   UNL     1       1.750   2.496  22.278  0.00  0.00    +0.000 N 
ATOM     12  N   UNL     1       3.787   2.054  21.184  0.00  0.00    +0.000 NA
ATOM     13  C   UNL     1       4.615   2.252  20.135  0.00  0.00    +0.000 A 
ATOM     14  N   UNL     1       4.440   3.068  19.068  0.00  0.00    +0.000 NA
ATOM     15  C   UNL     1       3.272   3.719  19.152  0.00  0.00    +0.000 A 
ATOM     16  H   UNL     1       1.068   3.232  22.418  0.00  0.00    +0.000 HD
ATOM     17  H   UNL     1       2.217   2.115  23.090  0.00  0.00    +0.000 HD
ENDBRANCH   3   6
BRANCH   4  18
ATOM     18  O   UNL     1       3.701   7.662  17.436  0.00  0.00    +0.000 OA
ATOM     19  H   UNL     1       2.867   7.551  17.937  0.00  0.00    +0.000 HD
ENDBRANCH   4  18
BRANCH   5  20
ATOM     20  O   UNL     1       4.916   7.045  15.241  0.00  0.00    +0.000 OA
ATOM     21  H   UNL     1       5.495   7.819  15.092  0.00  0.00    +0.000 HD
ENDBRANCH   5  20
BRANCH   1  22
ATOM     22  C   UNL     1       5.913   4.246  14.700  0.00  0.00    +0.000 C 
BRANCH  22  24
ATOM     23  C   UNL     1       7.335   4.660  12.663  0.00  0.00    +0.000 C 
ATOM     24  C   UNL     1       7.122   4.790  13.963  0.00  0.00    +0.000 C 
ENDBRANCH  22  24
ENDBRANCH   1  22
BRANCH   1  25
ATOM     25  C   UNL     1       6.588   4.147  17.120  0.00  0.00    +0.000 C 
BRANCH  25  26
ATOM     26  O   UNL     1       7.605   5.110  17.433  0.00  0.00    +0.000 OA
BRANCH  26  27
ATOM     27  P   UNL     1       7.979   5.253  19.116  0.00  0.00    +0.000 P 
ATOM     28  O   UNL     1       8.178   6.761  19.005  0.00  0.00    +0.000 OA
BRANCH  27  29
ATOM     29  O   UNL     1       6.403   5.084  19.477  0.00  0.00    +0.000 OA
ATOM     30  H   UNL     1       5.941   4.753  18.683  0.00  0.00    +0.000 HD
ENDBRANCH  27  29
BRANCH  27  31
ATOM     31  O   UNL     1       8.353   5.398  20.799  0.00  0.00    +0.000 OA
ATOM     32  H   UNL     1       8.292   4.475  21.119  0.00  0.00    +0.000 HD
ENDBRANCH  27  31
ENDBRANCH  26  27
ENDBRANCH  25  26
ENDBRANCH   1  25
TORSDOF 10
ENDMDL
MODEL 6
REMARK VINA RESULT:      -6.9      3.662      5.967
REMARK  Name = 
REMARK  10 active torsions:
REMARK  status: ('A' for Active; 'I' for Inactive)
REMARK    1  A    between atoms: C_2  and  C_3
REMARK    2  A    between atoms: C_3  and  C_4
REMARK    3  A    between atoms: C_4  and  C_5
REMARK    4  A    between atoms: C_5  and  O_6
REMARK    5  A    between atoms: O_6  and  P_7
REMARK    6  A    between atoms: P_7  and  O_9
REMARK    7  A    between atoms: P_7  and  O_10
REMARK    8  A    between atoms: C_12  and  N_13
REMARK    9  A    between atoms: C_23  and  O_24
REMARK   10  A    between atoms: C_25  and  O_26
REMARK                            x       y       z     vdW  Elec       q    Type
REMARK                         _______ _______ _______ _____ _____    ______ ____
ROOT
ATOM      1  C   UNL     1       2.337   5.212  19.838  0.00  0.00    +0.000 C 
ATOM      2  O   UNL     1       3.704   5.437  19.388  0.00  0.00    +0.000 OA
ATOM      3  C   UNL     1       3.806   6.727  18.737  0.00  0.00    +0.000 C 
ATOM      4  C   UNL     1       2.383   7.229  18.493  0.00  0.00    +0.000 C 
ATOM      5  C   UNL     1       1.621   6.578  19.654  0.00  0.00    +0.000 C 
ENDROOT
BRANCH   3   6
ATOM      6  N   UNL     1       4.631   6.611  17.552  0.00  0.00    +0.000 N 
ATOM      7  C   UNL     1       4.350   7.109  16.311  0.00  0.00    +0.000 A 
ATOM      8  N   UNL     1       5.232   6.730  15.406  0.00  0.00    +0.000 NA
ATOM      9  C   UNL     1       6.123   5.938  16.098  0.00  0.00    +0.000 A 
ATOM     10  C   UNL     1       7.257   5.212  15.689  0.00  0.00    +0.000 A 
ATOM     11  N   UNL     1       7.724   5.207  14.379  0.00  0.00    +0.000 N 
ATOM     12  N   UNL     1       7.917   4.480  16.610  0.00  0.00    +0.000 NA
ATOM     13  C   UNL     1       7.477   4.502  17.888  0.00  0.00    +0.000 A 
ATOM     14  N   UNL     1       6.413   5.166  18.399  0.00  0.00    +0.000 NA
ATOM     15  C   UNL     1       5.780   5.859  17.443  0.00  0.00    +0.000 A 
ATOM     16  H   UNL     1       7.032   5.487  13.694  0.00  0.00    +0.000 HD
ATOM     17  H   UNL     1       8.309   4.409  14.172  0.00  0.00    +0.000 HD
ENDBRANCH   3   6
BRANCH   4  18
ATOM     18  O   UNL     1       2.303   8.652  18.544  0.00  0.00    +0.000 OA
ATOM     19  H   UNL     1       1.387   8.878  18.810  0.00  0.00    +0.000 HD
ENDBRANCH   4  18
BRANCH   5  20
ATOM     20  O   UNL     1       1.710   7.478  20.767  0.00  0.00    +0.000 OA
ATOM     21  H   UNL     1       0.810   7.768  21.015  0.00  0.00    +0.000 HD
ENDBRANCH   5  20
BRANCH   1  22
ATOM     22  C   UNL     1       2.367   4.572  21.263  0.00  0.00    +0.000 C 
BRANCH  22  24
ATOM     23  C   UNL     1       2.011   2.183  21.978  0.00  0.00    +0.000 C 
ATOM     24  C   UNL     1       1.527   3.352  21.590  0.00  0.00    +0.000 C 
ENDBRANCH  22  24
ENDBRANCH   1  22
BRANCH   1  25
ATOM     25  C   UNL     1       1.722   4.142  18.871  0.00  0.00    +0.000 C 
BRANCH  25  26
ATOM     26  O   UNL     1       2.670   3.781  17.857  0.00  0.00    +0.000 OA
BRANCH  26  27
ATOM     27  P   UNL     1       3.319   2.184  18.003  0.00  0.00    +0.000 P 
ATOM     28  O   UNL     1       4.131   2.562  19.237  0.00  0.00    +0.000 OA
BRANCH  27  29
ATOM     29  O   UNL     1       1.900   1.665  18.602  0.00  0.00    +0.000 OA
ATOM     30  H   UNL     1       2.084   1.081  19.363  0.00  0.00    +0.000 HD
ENDBRANCH  27  29
BRANCH  27  31
ATOM     31  O   UNL     1       3.968   0.587  18.151  0.00  0.00    +0.000 OA
ATOM     32  H   UNL     1       4.012   0.280  17.222  0.00  0.00    +0.000 HD
ENDBRANCH  27  31
ENDBRANCH  26  27
ENDBRANCH  25  26
ENDBRANCH   1  25
TORSDOF 10
ENDMDL
MODEL 7
REMARK VINA RESULT:      -6.6      4.235      5.669
REMARK  Name = 
REMARK  10 active torsions:
REMARK  status: ('A' for Active; 'I' for Inactive)
REMARK    1  A    between atoms: C_2  and  C_3
REMARK    2  A    between atoms: C_3  and  C_4
REMARK    3  A    between atoms: C_4  and  C_5
REMARK    4  A    between atoms: C_5  and  O_6
REMARK    5  A    between atoms: O_6  and  P_7
REMARK    6  A    between atoms: P_7  and  O_9
REMARK    7  A    between atoms: P_7  and  O_10
REMARK    8  A    between atoms: C_12  and  N_13
REMARK    9  A    between atoms: C_23  and  O_24
REMARK   10  A    between atoms: C_25  and  O_26
REMARK                            x       y       z     vdW  Elec       q    Type
REMARK                         _______ _______ _______ _____ _____    ______ ____
ROOT
ATOM      1  C   UNL     1       6.304   6.146  17.272  0.00  0.00    +0.000 C 
ATOM      2  O   UNL     1       5.583   5.223  18.138  0.00  0.00    +0.000 OA
ATOM      3  C   UNL     1       5.307   3.991  17.429  0.00  0.00    +0.000 C 
ATOM      4  C   UNL     1       5.604   4.237  15.951  0.00  0.00    +0.000 C 
ATOM      5  C   UNL     1       6.702   5.304  16.028  0.00  0.00    +0.000 C 
ENDROOT
BRANCH   3   6
ATOM      6  N   UNL     1       3.959   3.549  17.724  0.00  0.00    +0.000 N 
ATOM      7  C   UNL     1       2.889   3.576  16.874  0.00  0.00    +0.000 A 
ATOM      8  N   UNL     1       1.765   3.229  17.471  0.00  0.00    +0.000 NA
ATOM      9  C   UNL     1       2.128   2.975  18.776  0.00  0.00    +0.000 A 
ATOM     10  C   UNL     1       1.380   2.604  19.908  0.00  0.00    +0.000 A 
ATOM     11  N   UNL     1       0.008   2.381  19.874  0.00  0.00    +0.000 N 
ATOM     12  N   UNL     1       2.024   2.467  21.087  0.00  0.00    +0.000 NA
ATOM     13  C   UNL     1       3.361   2.661  21.117  0.00  0.00    +0.000 A 
ATOM     14  N   UNL     1       4.183   3.008  20.097  0.00  0.00    +0.000 NA
ATOM     15  C   UNL     1       3.494   3.153  18.958  0.00  0.00    +0.000 A 
ATOM     16  H   UNL     1      -0.459   2.805  19.081  0.00  0.00    +0.000 HD
ATOM     17  H   UNL     1      -0.427   2.457  20.783  0.00  0.00    +0.000 HD
ENDBRANCH   3   6
BRANCH   4  18
ATOM     18  O   UNL     1       6.063   3.057  15.294  0.00  0.00    +0.000 OA
ATOM     19  H   UNL     1       5.300   2.687  14.804  0.00  0.00    +0.000 HD
ENDBRANCH   4  18
BRANCH   5  20
ATOM     20  O   UNL     1       7.953   4.609  16.127  0.00  0.00    +0.000 OA
ATOM     21  H   UNL     1       8.035   4.227  17.024  0.00  0.00    +0.000 HD
ENDBRANCH   5  20
BRANCH   1  22
ATOM     22  C   UNL     1       7.436   6.840  18.096  0.00  0.00    +0.000 C 
BRANCH  22  24
ATOM     23  C   UNL     1       8.267   9.215  18.201  0.00  0.00    +0.000 C 
ATOM     24  C   UNL     1       8.156   8.063  17.560  0.00  0.00    +0.000 C 
ENDBRANCH  22  24
ENDBRANCH   1  22
BRANCH   1  25
ATOM     25  C   UNL     1       5.285   7.265  16.866  0.00  0.00    +0.000 C 
BRANCH  25  26
ATOM     26  O   UNL     1       3.939   6.777  16.969  0.00  0.00    +0.000 OA
BRANCH  26  27
ATOM     27  P   UNL     1       2.983   7.534  18.197  0.00  0.00    +0.000 P 
ATOM     28  O   UNL     1       2.495   8.612  17.235  0.00  0.00    +0.000 OA
BRANCH  27  29
ATOM     29  O   UNL     1       1.878   6.349  18.062  0.00  0.00    +0.000 OA
ATOM     30  H   UNL     1       2.126   5.629  18.674  0.00  0.00    +0.000 HD
ENDBRANCH  27  29
BRANCH  27  31
ATOM     31  O   UNL     1       2.026   8.292  19.423  0.00  0.00    +0.000 OA
ATOM     32  H   UNL     1       2.671   8.441  20.145  0.00  0.00    +0.000 HD
ENDBRANCH  27  31
ENDBRANCH  26  27
ENDBRANCH  25  26
ENDBRANCH   1  25
TORSDOF 10
ENDMDL
MODEL 8
REMARK VINA RESULT:      -6.5      6.543      8.996
REMARK  Name = 
REMARK  10 active torsions:
REMARK  status: ('A' for Active; 'I' for Inactive)
REMARK    1  A    between atoms: C_2  and  C_3
REMARK    2  A    between atoms: C_3  and  C_4
REMARK    3  A    between atoms: C_4  and  C_5
REMARK    4  A    between atoms: C_5  and  O_6
REMARK    5  A    between atoms: O_6  and  P_7
REMARK    6  A    between atoms: P_7  and  O_9
REMARK    7  A    between atoms: P_7  and  O_10
REMARK    8  A    between atoms: C_12  and  N_13
REMARK    9  A    between atoms: C_23  and  O_24
REMARK   10  A    between atoms: C_25  and  O_26
REMARK                            x       y       z     vdW  Elec       q    Type
REMARK                         _______ _______ _______ _____ _____    ______ ____
ROOT
ATOM      1  C   UNL     1      -1.005  10.874  18.586  0.00  0.00    +0.000 C 
ATOM      2  O   UNL     1      -2.116  11.133  19.491  0.00  0.00    +0.000 OA
ATOM      3  C   UNL     1      -2.136  12.531  19.865  0.00  0.00    +0.000 C 
ATOM      4  C   UNL     1      -0.809  13.143  19.418  0.00  0.00    +0.000 C 
ATOM      5  C   UNL     1      -0.463  12.278  18.200  0.00  0.00    +0.000 C 
ENDROOT
BRANCH   3   6
ATOM      6  N   UNL     1      -2.427  12.654  21.279  0.00  0.00    +0.000 N 
ATOM      7  C   UNL     1      -1.524  12.613  22.304  0.00  0.00    +0.000 A 
ATOM      8  N   UNL     1      -2.107  12.622  23.487  0.00  0.00    +0.000 NA
ATOM      9  C   UNL     1      -3.456  12.661  23.211  0.00  0.00    +0.000 A 
ATOM     10  C   UNL     1      -4.591  12.649  24.043  0.00  0.00    +0.000 A 
ATOM     11  N   UNL     1      -4.515  12.625  25.431  0.00  0.00    +0.000 N 
ATOM     12  N   UNL     1      -5.811  12.652  23.465  0.00  0.00    +0.000 NA
ATOM     13  C   UNL     1      -5.885  12.698  22.116  0.00  0.00    +0.000 A 
ATOM     14  N   UNL     1      -4.870  12.723  21.219  0.00  0.00    +0.000 NA
ATOM     15  C   UNL     1      -3.684  12.696  21.840  0.00  0.00    +0.000 A 
ATOM     16  H   UNL     1      -3.626  12.299  25.790  0.00  0.00    +0.000 HD
ATOM     17  H   UNL     1      -5.363  12.286  25.867  0.00  0.00    +0.000 HD
ENDBRANCH   3   6
BRANCH   4  18
ATOM     18  O   UNL     1      -0.946  14.518  19.064  0.00  0.00    +0.000 OA
ATOM     19  H   UNL     1      -1.201  14.546  18.119  0.00  0.00    +0.000 HD
ENDBRANCH   4  18
BRANCH   5  20
ATOM     20  O   UNL     1      -1.088  12.891  17.063  0.00  0.00    +0.000 OA
ATOM     21  H   UNL     1      -0.774  12.448  16.250  0.00  0.00    +0.000 HD
ENDBRANCH   5  20
BRANCH   1  22
ATOM     22  C   UNL     1      -1.486   9.922  17.445  0.00  0.00    +0.000 C 
BRANCH  22  24
ATOM     23  C   UNL     1      -3.494  10.467  16.025  0.00  0.00    +0.000 C 
ATOM     24  C   UNL     1      -2.951   9.843  17.058  0.00  0.00    +0.000 C 
ENDBRANCH  22  24
ENDBRANCH   1  22
BRANCH   1  25
ATOM     25  C   UNL     1       0.069  10.087  19.414  0.00  0.00    +0.000 C 
BRANCH  25  26
ATOM     26  O   UNL     1      -0.422   9.810  20.733  0.00  0.00    +0.000 OA
BRANCH  26  27
ATOM     27  P   UNL     1       0.805   9.550  21.926  0.00  0.00    +0.000 P 
ATOM     28  O   UNL     1      -0.227   9.254  23.009  0.00  0.00    +0.000 OA
BRANCH  27  29
ATOM     29  O   UNL     1       1.127   8.097  21.274  0.00  0.00    +0.000 OA
ATOM     30  H   UNL     1       0.369   7.507  21.450  0.00  0.00    +0.000 HD
ENDBRANCH  27  29
BRANCH  27  31
ATOM     31  O   UNL     1       2.030   9.291  23.119  0.00  0.00    +0.000 OA
ATOM     32  H   UNL     1       2.126   8.316  23.129  0.00  0.00    +0.000 HD
ENDBRANCH  27  31
ENDBRANCH  26  27
ENDBRANCH  25  26
ENDBRANCH   1  25
TORSDOF 10
ENDMDL
MODEL 9
REMARK VINA RESULT:      -6.5      4.338      7.220
REMARK  Name = 
REMARK  10 active torsions:
REMARK  status: ('A' for Active; 'I' for Inactive)
REMARK    1  A    between atoms: C_2  and  C_3
REMARK    2  A    between atoms: C_3  and  C_4
REMARK    3  A    between atoms: C_4  and  C_5
REMARK    4  A    between atoms: C_5  and  O_6
REMARK    5  A    between atoms: O_6  and  P_7
REMARK    6  A    between atoms: P_7  and  O_9
REMARK    7  A    between atoms: P_7  and  O_10
REMARK    8  A    between atoms: C_12  and  N_13
REMARK    9  A    between atoms: C_23  and  O_24
REMARK   10  A    between atoms: C_25  and  O_26
REMARK                            x       y       z     vdW  Elec       q    Type
REMARK                         _______ _______ _______ _____ _____    ______ ____
ROOT
ATOM      1  C   UNL     1       2.931   5.685  18.278  0.00  0.00    +0.000 C 
ATOM      2  O   UNL     1       3.777   5.092  17.251  0.00  0.00    +0.000 OA
ATOM      3  C   UNL     1       5.080   4.783  17.800  0.00  0.00    +0.000 C 
ATOM      4  C   UNL     1       5.179   5.473  19.159  0.00  0.00    +0.000 C 
ATOM      5  C   UNL     1       3.713   5.492  19.606  0.00  0.00    +0.000 C 
ENDROOT
BRANCH   3   6
ATOM      6  N   UNL     1       6.110   5.145  16.847  0.00  0.00    +0.000 N 
ATOM      7  C   UNL     1       7.069   6.105  17.008  0.00  0.00    +0.000 A 
ATOM      8  N   UNL     1       7.781   6.291  15.914  0.00  0.00    +0.000 NA
ATOM      9  C   UNL     1       7.247   5.413  14.996  0.00  0.00    +0.000 A 
ATOM     10  C   UNL     1       7.545   5.164  13.644  0.00  0.00    +0.000 A 
ATOM     11  N   UNL     1       8.560   5.819  12.956  0.00  0.00    +0.000 N 
ATOM     12  N   UNL     1       6.802   4.252  12.981  0.00  0.00    +0.000 NA
ATOM     13  C   UNL     1       5.830   3.598  13.654  0.00  0.00    +0.000 A 
ATOM     14  N   UNL     1       5.462   3.744  14.950  0.00  0.00    +0.000 NA
ATOM     15  C   UNL     1       6.212   4.674  15.557  0.00  0.00    +0.000 A 
ATOM     16  H   UNL     1       8.850   6.691  13.381  0.00  0.00    +0.000 HD
ATOM     17  H   UNL     1       8.438   5.792  11.952  0.00  0.00    +0.000 HD
ENDBRANCH   3   6
BRANCH   4  18
ATOM     18  O   UNL     1       5.997   4.743  20.071  0.00  0.00    +0.000 OA
ATOM     19  H   UNL     1       6.360   5.390  20.712  0.00  0.00    +0.000 HD
ENDBRANCH   4  18
BRANCH   5  20
ATOM     20  O   UNL     1       3.470   4.255  20.292  0.00  0.00    +0.000 OA
ATOM     21  H   UNL     1       4.315   3.769  20.380  0.00  0.00    +0.000 HD
ENDBRANCH   5  20
BRANCH   1  22
ATOM     22  C   UNL     1       1.493   5.084  18.165  0.00  0.00    +0.000 C 
BRANCH  22  24
ATOM     23  C   UNL     1       0.864   2.705  18.702  0.00  0.00    +0.000 C 
ATOM     24  C   UNL     1       1.282   3.617  17.840  0.00  0.00    +0.000 C 
ENDBRANCH  22  24
ENDBRANCH   1  22
BRANCH   1  25
ATOM     25  C   UNL     1       2.816   7.210  17.934  0.00  0.00    +0.000 C 
BRANCH  25  26
ATOM     26  O   UNL     1       2.080   7.899  18.955  0.00  0.00    +0.000 OA
BRANCH  26  27
ATOM     27  P   UNL     1       1.004   9.124  18.376  0.00  0.00    +0.000 P 
ATOM     28  O   UNL     1       1.169   9.953  19.645  0.00  0.00    +0.000 OA
BRANCH  27  29
ATOM     29  O   UNL     1       2.168   9.675  17.385  0.00  0.00    +0.000 OA
ATOM     30  H   UNL     1       2.262   9.046  16.644  0.00  0.00    +0.000 HD
ENDBRANCH  27  29
BRANCH  27  31
ATOM     31  O   UNL     1      -0.072  10.350  17.799  0.00  0.00    +0.000 OA
ATOM     32  H   UNL     1      -0.810  10.316  18.441  0.00  0.00    +0.000 HD
ENDBRANCH  27  31
ENDBRANCH  26  27
ENDBRANCH  25  26
ENDBRANCH   1  25
TORSDOF 10
ENDMDL
