MODEL 1
REMARK VINA RESULT:      -7.4      0.000      0.000
REMARK  Name = 
REMARK  1 active torsions:
REMARK  status: ('A' for Active; 'I' for Inactive)
REMARK    1  A    between atoms: S_1  and  C_2
REMARK                            x       y       z     vdW  Elec       q    Type
REMARK                         _______ _______ _______ _____ _____    ______ ____
ROOT
ATOM      1  C   UNL     1       6.986   5.397  18.628  0.00  0.00    +0.000 C 
ATOM      2  N   UNL     1       6.158   5.160  19.607  0.00  0.00    +0.000 NA
ATOM      3  N   UNL     1       5.042   4.462  19.304  0.00  0.00    +0.000 N 
ATOM      4  C   UNL     1       4.463   4.620  17.939  0.00  0.00    +0.000 C 
ATOM      5  C   UNL     1       5.657   4.533  17.008  0.00  0.00    +0.000 C 
ATOM      6 CL   UNL     1       5.424   4.000  15.398  0.00  0.00    +0.000 Cl
ATOM      7  N   UNL     1       6.854   4.926  17.341  0.00  0.00    +0.000 NA
ATOM      8  C   UNL     1       3.713   5.957  17.823  0.00  0.00    +0.000 A 
ATOM      9  C   UNL     1       4.196   7.214  17.471  0.00  0.00    +0.000 A 
ATOM     10  C   UNL     1       3.311   8.292  17.496  0.00  0.00    +0.000 A 
ATOM     11  C   UNL     1       1.977   8.104  17.883  0.00  0.00    +0.000 A 
ATOM     12  C   UNL     1       1.484   6.827  18.194  0.00  0.00    +0.000 A 
ATOM     13  C   UNL     1       2.350   5.747  18.130  0.00  0.00    +0.000 A 
ATOM     14  C   UNL     1       2.115   4.324  18.260  0.00  0.00    +0.000 A 
ATOM     15  C   UNL     1       1.008   3.642  18.721  0.00  0.00    +0.000 A 
ATOM     16  C   UNL     1       1.078   2.250  18.797  0.00  0.00    +0.000 A 
ATOM     17  C   UNL     1       2.217   1.552  18.354  0.00  0.00    +0.000 A 
ATOM     18  C   UNL     1       3.343   2.237  17.895  0.00  0.00    +0.000 A 
ATOM     19  C   UNL     1       3.302   3.625  17.906  0.00  0.00    +0.000 A 
ATOM     20  H   UNL     1       5.201   3.464  19.472  0.00  0.00    +0.000 HD
ENDROOT
BRANCH   1  21
ATOM     21  S   UNL     1       8.341   6.402  19.050  0.00  0.00    +0.000 S 
ATOM     22  H   UNL     1       9.061   5.360  19.504  0.00  0.00    +0.000 HD
ENDBRANCH   1  21
TORSDOF 1
ENDMDL
MODEL 2
REMARK VINA RESULT:      -7.2      6.385      8.116
REMARK  Name = 
REMARK  1 active torsions:
REMARK  status: ('A' for Active; 'I' for Inactive)
REMARK    1  A    between atoms: S_1  and  C_2
REMARK                            x       y       z     vdW  Elec       q    Type
REMARK                         _______ _______ _______ _____ _____    ______ ____
ROOT
ATOM      1  C   UNL     1       0.321  13.884  18.999  0.00  0.00    +0.000 C 
ATOM      2  N   UNL     1       1.398  13.334  19.487  0.00  0.00    +0.000 NA
ATOM      3  N   UNL     1       1.526  12.000  19.323  0.00  0.00    +0.000 N 
ATOM      4  C   UNL     1       0.286  11.172  19.295  0.00  0.00    +0.000 C 
ATOM      5  C   UNL     1      -0.658  11.935  18.385  0.00  0.00    +0.000 C 
ATOM      6 CL   UNL     1      -1.881  11.080  17.546  0.00  0.00    +0.000 Cl
ATOM      7  N   UNL     1      -0.645  13.233  18.267  0.00  0.00    +0.000 NA
ATOM      8  C   UNL     1      -0.273  10.989  20.715  0.00  0.00    +0.000 A 
ATOM      9  C   UNL     1      -1.152  11.799  21.430  0.00  0.00    +0.000 A 
ATOM     10  C   UNL     1      -1.463  11.436  22.740  0.00  0.00    +0.000 A 
ATOM     11  C   UNL     1      -0.888  10.296  23.316  0.00  0.00    +0.000 A 
ATOM     12  C   UNL     1      -0.038   9.459  22.576  0.00  0.00    +0.000 A 
ATOM     13  C   UNL     1       0.242   9.792  21.261  0.00  0.00    +0.000 A 
ATOM     14  C   UNL     1       0.957   9.077  20.224  0.00  0.00    +0.000 A 
ATOM     15  C   UNL     1       1.773   7.968  20.307  0.00  0.00    +0.000 A 
ATOM     16  C   UNL     1       2.394   7.519  19.140  0.00  0.00    +0.000 A 
ATOM     17  C   UNL     1       2.145   8.134  17.900  0.00  0.00    +0.000 A 
ATOM     18  C   UNL     1       1.327   9.262  17.810  0.00  0.00    +0.000 A 
ATOM     19  C   UNL     1       0.784   9.759  18.988  0.00  0.00    +0.000 A 
ATOM     20  H   UNL     1       2.062  11.805  18.472  0.00  0.00    +0.000 HD
ENDROOT
BRANCH   1  21
ATOM     21  S   UNL     1       0.151  15.580  19.347  0.00  0.00    +0.000 S 
ATOM     22  H   UNL     1      -0.156  15.881  18.073  0.00  0.00    +0.000 HD
ENDBRANCH   1  21
TORSDOF 1
ENDMDL
MODEL 3
REMARK VINA RESULT:      -6.8      6.511      8.540
REMARK  Name = 
REMARK  1 active torsions:
REMARK  status: ('A' for Active; 'I' for Inactive)
REMARK    1  A    between atoms: S_1  and  C_2
REMARK                            x       y       z     vdW  Elec       q    Type
REMARK                         _______ _______ _______ _____ _____    ______ ____
ROOT
ATOM      1  C   UNL     1      -2.322  10.781  16.970  0.00  0.00    +0.000 C 
ATOM      2  N   UNL     1      -2.631   9.877  17.858  0.00  0.00    +0.000 NA
ATOM      3  N   UNL     1      -2.153  10.066  19.107  0.00  0.00    +0.000 N 
ATOM      4  C   UNL     1      -0.844  10.762  19.263  0.00  0.00    +0.000 C 
ATOM      5  C   UNL     1      -0.933  11.951  18.325  0.00  0.00    +0.000 C 
ATOM      6 CL   UNL     1       0.003  13.346  18.654  0.00  0.00    +0.000 Cl
ATOM      7  N   UNL     1      -1.627  11.941  17.221  0.00  0.00    +0.000 NA
ATOM      8  C   UNL     1       0.315   9.815  18.915  0.00  0.00    +0.000 A 
ATOM      9  C   UNL     1       0.905   9.555  17.680  0.00  0.00    +0.000 A 
ATOM     10  C   UNL     1       1.917   8.596  17.622  0.00  0.00    +0.000 A 
ATOM     11  C   UNL     1       2.309   7.909  18.778  0.00  0.00    +0.000 A 
ATOM     12  C   UNL     1       1.743   8.207  20.028  0.00  0.00    +0.000 A 
ATOM     13  C   UNL     1       0.766   9.187  20.098  0.00  0.00    +0.000 A 
ATOM     14  C   UNL     1       0.104   9.798  21.231  0.00  0.00    +0.000 A 
ATOM     15  C   UNL     1       0.075   9.419  22.557  0.00  0.00    +0.000 A 
ATOM     16  C   UNL     1      -0.707  10.168  23.439  0.00  0.00    +0.000 A 
ATOM     17  C   UNL     1      -1.393  11.317  23.007  0.00  0.00    +0.000 A 
ATOM     18  C   UNL     1      -1.375  11.701  21.664  0.00  0.00    +0.000 A 
ATOM     19  C   UNL     1      -0.669  10.901  20.775  0.00  0.00    +0.000 A 
ATOM     20  H   UNL     1      -2.849  10.561  19.673  0.00  0.00    +0.000 HD
ENDROOT
BRANCH   1  21
ATOM     21  S   UNL     1      -2.859  10.423  15.355  0.00  0.00    +0.000 S 
ATOM     22  H   UNL     1      -3.458  11.619  15.214  0.00  0.00    +0.000 HD
ENDBRANCH   1  21
TORSDOF 1
ENDMDL
MODEL 4
REMARK VINA RESULT:      -6.7      1.996      2.091
REMARK  Name = 
REMARK  1 active torsions:
REMARK  status: ('A' for Active; 'I' for Inactive)
REMARK    1  A    between atoms: S_1  and  C_2
REMARK                            x       y       z     vdW  Elec       q    Type
REMARK                         _______ _______ _______ _____ _____    ______ ____
ROOT
ATOM      1  C   UNL     1       6.217   4.460  17.006  0.00  0.00    +0.000 C 
ATOM      2  N   UNL     1       6.324   4.669  18.289  0.00  0.00    +0.000 NA
ATOM      3  N   UNL     1       5.295   4.257  19.059  0.00  0.00    +0.000 N 
ATOM      4  C   UNL     1       3.924   4.279  18.473  0.00  0.00    +0.000 C 
ATOM      5  C   UNL     1       4.093   3.676  17.092  0.00  0.00    +0.000 C 
ATOM      6 CL   UNL     1       2.758   2.903  16.349  0.00  0.00    +0.000 Cl
ATOM      7  N   UNL     1       5.187   3.786  16.392  0.00  0.00    +0.000 NA
ATOM      8  C   UNL     1       3.378   5.716  18.433  0.00  0.00    +0.000 A 
ATOM      9  C   UNL     1       3.523   6.690  17.449  0.00  0.00    +0.000 A 
ATOM     10  C   UNL     1       2.971   7.949  17.683  0.00  0.00    +0.000 A 
ATOM     11  C   UNL     1       2.304   8.220  18.884  0.00  0.00    +0.000 A 
ATOM     12  C   UNL     1       2.121   7.221  19.854  0.00  0.00    +0.000 A 
ATOM     13  C   UNL     1       2.632   5.956  19.609  0.00  0.00    +0.000 A 
ATOM     14  C   UNL     1       2.494   4.712  20.337  0.00  0.00    +0.000 A 
ATOM     15  C   UNL     1       2.016   4.470  21.608  0.00  0.00    +0.000 A 
ATOM     16  C   UNL     1       2.055   3.161  22.088  0.00  0.00    +0.000 A 
ATOM     17  C   UNL     1       2.505   2.101  21.279  0.00  0.00    +0.000 A 
ATOM     18  C   UNL     1       2.998   2.340  19.995  0.00  0.00    +0.000 A 
ATOM     19  C   UNL     1       3.041   3.656  19.555  0.00  0.00    +0.000 A 
ATOM     20  H   UNL     1       5.479   3.311  19.408  0.00  0.00    +0.000 HD
ENDROOT
BRANCH   1  21
ATOM     21  S   UNL     1       7.513   5.120  16.053  0.00  0.00    +0.000 S 
ATOM     22  H   UNL     1       7.631   4.004  15.313  0.00  0.00    +0.000 HD
ENDBRANCH   1  21
TORSDOF 1
ENDMDL
MODEL 5
REMARK VINA RESULT:      -6.5      1.888      1.926
REMARK  Name = 
REMARK  1 active torsions:
REMARK  status: ('A' for Active; 'I' for Inactive)
REMARK    1  A    between atoms: S_1  and  C_2
REMARK                            x       y       z     vdW  Elec       q    Type
REMARK                         _______ _______ _______ _____ _____    ______ ____
ROOT
ATOM      1  C   UNL     1       6.339   5.930  17.661  0.00  0.00    +0.000 C 
ATOM      2  N   UNL     1       6.276   5.912  18.963  0.00  0.00    +0.000 NA
ATOM      3  N   UNL     1       5.306   5.150  19.514  0.00  0.00    +0.000 N 
ATOM      4  C   UNL     1       4.029   4.985  18.763  0.00  0.00    +0.000 C 
ATOM      5  C   UNL     1       4.461   4.704  17.337  0.00  0.00    +0.000 C 
ATOM      6 CL   UNL     1       3.420   3.814  16.309  0.00  0.00    +0.000 Cl
ATOM      7  N   UNL     1       5.558   5.177  16.815  0.00  0.00    +0.000 NA
ATOM      8  C   UNL     1       3.165   6.251  18.884  0.00  0.00    +0.000 A 
ATOM      9  C   UNL     1       3.166   7.401  18.099  0.00  0.00    +0.000 A 
ATOM     10  C   UNL     1       2.313   8.445  18.458  0.00  0.00    +0.000 A 
ATOM     11  C   UNL     1       1.494   8.334  19.589  0.00  0.00    +0.000 A 
ATOM     12  C   UNL     1       1.464   7.155  20.351  0.00  0.00    +0.000 A 
ATOM     13  C   UNL     1       2.279   6.100  19.975  0.00  0.00    +0.000 A 
ATOM     14  C   UNL     1       2.373   4.741  20.466  0.00  0.00    +0.000 A 
ATOM     15  C   UNL     1       1.851   4.168  21.607  0.00  0.00    +0.000 A 
ATOM     16  C   UNL     1       2.154   2.831  21.870  0.00  0.00    +0.000 A 
ATOM     17  C   UNL     1       2.913   2.065  20.967  0.00  0.00    +0.000 A 
ATOM     18  C   UNL     1       3.452   2.642  19.815  0.00  0.00    +0.000 A 
ATOM     19  C   UNL     1       3.223   3.995  19.604  0.00  0.00    +0.000 A 
ATOM     20  H   UNL     1       5.676   4.218  19.726  0.00  0.00    +0.000 HD
ENDROOT
BRANCH   1  21
ATOM     21  S   UNL     1       7.524   7.022  17.008  0.00  0.00    +0.000 S 
ATOM     22  H   UNL     1       8.239   7.038  18.146  0.00  0.00    +0.000 HD
ENDBRANCH   1  21
TORSDOF 1
ENDMDL
MODEL 6
REMARK VINA RESULT:      -6.3      2.897      4.436
REMARK  Name = 
REMARK  1 active torsions:
REMARK  status: ('A' for Active; 'I' for Inactive)
REMARK    1  A    between atoms: S_1  and  C_2
REMARK                            x       y       z     vdW  Elec       q    Type
REMARK                         _______ _______ _______ _____ _____    ______ ____
ROOT
ATOM      1  C   UNL     1       1.935   2.589  18.707  0.00  0.00    +0.000 C 
ATOM      2  N   UNL     1       1.815   3.025  17.485  0.00  0.00    +0.000 NA
ATOM      3  N   UNL     1       2.918   3.564  16.921  0.00  0.00    +0.000 N 
ATOM      4  C   UNL     1       3.890   4.266  17.807  0.00  0.00    +0.000 C 
ATOM      5  C   UNL     1       4.053   3.341  18.998  0.00  0.00    +0.000 C 
ATOM      6 CL   UNL     1       5.507   3.390  19.901  0.00  0.00    +0.000 Cl
ATOM      7  N   UNL     1       3.105   2.558  19.432  0.00  0.00    +0.000 NA
ATOM      8  C   UNL     1       3.358   5.653  18.200  0.00  0.00    +0.000 A 
ATOM      9  C   UNL     1       2.537   6.018  19.263  0.00  0.00    +0.000 A 
ATOM     10  C   UNL     1       2.146   7.352  19.366  0.00  0.00    +0.000 A 
ATOM     11  C   UNL     1       2.562   8.289  18.412  0.00  0.00    +0.000 A 
ATOM     12  C   UNL     1       3.427   7.926  17.367  0.00  0.00    +0.000 A 
ATOM     13  C   UNL     1       3.851   6.610  17.283  0.00  0.00    +0.000 A 
ATOM     14  C   UNL     1       4.824   5.972  16.421  0.00  0.00    +0.000 A 
ATOM     15  C   UNL     1       5.437   6.432  15.275  0.00  0.00    +0.000 A 
ATOM     16  C   UNL     1       6.301   5.570  14.598  0.00  0.00    +0.000 A 
ATOM     17  C   UNL     1       6.595   4.290  15.103  0.00  0.00    +0.000 A 
ATOM     18  C   UNL     1       5.970   3.814  16.257  0.00  0.00    +0.000 A 
ATOM     19  C   UNL     1       5.044   4.642  16.877  0.00  0.00    +0.000 A 
ATOM     20  H   UNL     1       3.424   2.846  16.394  0.00  0.00    +0.000 HD
ENDROOT
BRANCH   1  21
ATOM     21  S   UNL     1       0.456   2.020  19.423  0.00  0.00    +0.000 S 
ATOM     22  H   UNL     1      -0.250   3.071  18.968  0.00  0.00    +0.000 HD
ENDBRANCH   1  21
TORSDOF 1
ENDMDL
MODEL 7
REMARK VINA RESULT:      -6.2      9.953     11.807
REMARK  Name = 
REMARK  1 active torsions:
REMARK  status: ('A' for Active; 'I' for Inactive)
REMARK    1  A    between atoms: S_1  and  C_2
REMARK                            x       y       z     vdW  Elec       q    Type
REMARK                         _______ _______ _______ _____ _____    ______ ____
ROOT
ATOM      1  C   UNL     1       5.606  15.296  18.629  0.00  0.00    +0.000 C 
ATOM      2  N   UNL     1       6.112  14.809  17.530  0.00  0.00    +0.000 NA
ATOM      3  N   UNL     1       7.274  14.130  17.646  0.00  0.00    +0.000 N 
ATOM      4  C   UNL     1       8.227  14.542  18.716  0.00  0.00    +0.000 C 
ATOM      5  C   UNL     1       7.359  14.724  19.946  0.00  0.00    +0.000 C 
ATOM      6 CL   UNL     1       8.059  14.534  21.498  0.00  0.00    +0.000 Cl
ATOM      7  N   UNL     1       6.113  15.105  19.894  0.00  0.00    +0.000 NA
ATOM      8  C   UNL     1       8.967  15.828  18.314  0.00  0.00    +0.000 A 
ATOM      9  C   UNL     1       8.598  17.157  18.503  0.00  0.00    +0.000 A 
ATOM     10  C   UNL     1       9.428  18.151  17.987  0.00  0.00    +0.000 A 
ATOM     11  C   UNL     1      10.591  17.810  17.284  0.00  0.00    +0.000 A 
ATOM     12  C   UNL     1      10.982  16.470  17.135  0.00  0.00    +0.000 A 
ATOM     13  C   UNL     1      10.182  15.479  17.681  0.00  0.00    +0.000 A 
ATOM     14  C   UNL     1      10.380  14.051  17.807  0.00  0.00    +0.000 A 
ATOM     15  C   UNL     1      11.308  13.223  17.210  0.00  0.00    +0.000 A 
ATOM     16  C   UNL     1      11.230  11.854  17.466  0.00  0.00    +0.000 A 
ATOM     17  C   UNL     1      10.277  11.333  18.360  0.00  0.00    +0.000 A 
ATOM     18  C   UNL     1       9.329  12.163  18.961  0.00  0.00    +0.000 A 
ATOM     19  C   UNL     1       9.354  13.513  18.633  0.00  0.00    +0.000 A 
ATOM     20  H   UNL     1       7.081  13.129  17.755  0.00  0.00    +0.000 HD
ENDROOT
BRANCH   1  21
ATOM     21  S   UNL     1       4.179  16.264  18.403  0.00  0.00    +0.000 S 
ATOM     22  H   UNL     1       4.777  17.060  17.499  0.00  0.00    +0.000 HD
ENDBRANCH   1  21
TORSDOF 1
ENDMDL
MODEL 8
REMARK VINA RESULT:      -6.2      9.499     11.337
REMARK  Name = 
REMARK  1 active torsions:
REMARK  status: ('A' for Active; 'I' for Inactive)
REMARK    1  A    between atoms: S_1  and  C_2
REMARK                            x       y       z     vdW  Elec       q    Type
REMARK                         _______ _______ _______ _____ _____    ______ ____
ROOT
ATOM      1  C   UNL     1      10.822  16.502  17.803  0.00  0.00    +0.000 C 
ATOM      2  N   UNL     1      11.564  15.534  18.263  0.00  0.00    +0.000 NA
ATOM      3  N   UNL     1      10.950  14.352  18.487  0.00  0.00    +0.000 N 
ATOM      4  C   UNL     1       9.516  14.370  18.895  0.00  0.00    +0.000 C 
ATOM      5  C   UNL     1       8.867  15.366  17.953  0.00  0.00    +0.000 C 
ATOM      6 CL   UNL     1       7.198  15.218  17.602  0.00  0.00    +0.000 Cl
ATOM      7  N   UNL     1       9.496  16.393  17.453  0.00  0.00    +0.000 NA
ATOM      8  C   UNL     1       9.380  14.772  20.372  0.00  0.00    +0.000 A 
ATOM      9  C   UNL     1       9.279  16.040  20.938  0.00  0.00    +0.000 A 
ATOM     10  C   UNL     1       9.223  16.139  22.328  0.00  0.00    +0.000 A 
ATOM     11  C   UNL     1       9.285  14.987  23.124  0.00  0.00    +0.000 A 
ATOM     12  C   UNL     1       9.342  13.709  22.547  0.00  0.00    +0.000 A 
ATOM     13  C   UNL     1       9.356  13.603  21.166  0.00  0.00    +0.000 A 
ATOM     14  C   UNL     1       9.278  12.449  20.294  0.00  0.00    +0.000 A 
ATOM     15  C   UNL     1       9.409  11.106  20.579  0.00  0.00    +0.000 A 
ATOM     16  C   UNL     1       9.351  10.200  19.520  0.00  0.00    +0.000 A 
ATOM     17  C   UNL     1       9.098  10.631  18.205  0.00  0.00    +0.000 A 
ATOM     18  C   UNL     1       8.974  11.990  17.908  0.00  0.00    +0.000 A 
ATOM     19  C   UNL     1       9.122  12.894  18.952  0.00  0.00    +0.000 A 
ATOM     20  H   UNL     1      11.042  13.752  17.662  0.00  0.00    +0.000 HD
ENDROOT
BRANCH   1  21
ATOM     21  S   UNL     1      11.637  18.031  17.651  0.00  0.00    +0.000 S 
ATOM     22  H   UNL     1      12.162  17.953  18.886  0.00  0.00    +0.000 HD
ENDBRANCH   1  21
TORSDOF 1
ENDMDL
MODEL 9
REMARK VINA RESULT:      -6.1      8.092     10.149
REMARK  Name = 
REMARK  1 active torsions:
REMARK  status: ('A' for Active; 'I' for Inactive)
REMARK    1  A    between atoms: S_1  and  C_2
REMARK                            x       y       z     vdW  Elec       q    Type
REMARK                         _______ _______ _______ _____ _____    ______ ____
ROOT
ATOM      1  C   UNL     1       0.894  12.950  19.113  0.00  0.00    +0.000 C 
ATOM      2  N   UNL     1      -0.030  13.738  18.638  0.00  0.00    +0.000 NA
ATOM      3  N   UNL     1      -1.245  13.671  19.224  0.00  0.00    +0.000 N 
ATOM      4  C   UNL     1      -1.683  12.362  19.788  0.00  0.00    +0.000 C 
ATOM      5  C   UNL     1      -0.474  11.854  20.549  0.00  0.00    +0.000 C 
ATOM      6 CL   UNL     1      -0.704  10.780  21.863  0.00  0.00    +0.000 Cl
ATOM      7  N   UNL     1       0.754  12.125  20.205  0.00  0.00    +0.000 NA
ATOM      8  C   UNL     1      -2.122  11.410  18.665  0.00  0.00    +0.000 A 
ATOM      9  C   UNL     1      -1.361  10.524  17.908  0.00  0.00    +0.000 A 
ATOM     10  C   UNL     1      -1.998   9.805  16.896  0.00  0.00    +0.000 A 
ATOM     11  C   UNL     1      -3.364   9.990  16.647  0.00  0.00    +0.000 A 
ATOM     12  C   UNL     1      -4.136  10.852  17.442  0.00  0.00    +0.000 A 
ATOM     13  C   UNL     1      -3.517  11.537  18.474  0.00  0.00    +0.000 A 
ATOM     14  C   UNL     1      -4.057  12.374  19.526  0.00  0.00    +0.000 A 
ATOM     15  C   UNL     1      -5.311  12.929  19.668  0.00  0.00    +0.000 A 
ATOM     16  C   UNL     1      -5.544  13.759  20.766  0.00  0.00    +0.000 A 
ATOM     17  C   UNL     1      -4.551  13.973  21.740  0.00  0.00    +0.000 A 
ATOM     18  C   UNL     1      -3.276  13.422  21.597  0.00  0.00    +0.000 A 
ATOM     19  C   UNL     1      -3.023  12.671  20.457  0.00  0.00    +0.000 A 
ATOM     20  H   UNL     1      -1.313  14.378  19.962  0.00  0.00    +0.000 HD
ENDROOT
BRANCH   1  21
ATOM     21  S   UNL     1       2.399  12.990  18.243  0.00  0.00    +0.000 S 
ATOM     22  H   UNL     1       2.848  14.056  18.928  0.00  0.00    +0.000 HD
ENDBRANCH   1  21
TORSDOF 1
ENDMDL
