MODEL 1
REMARK VINA RESULT:      -7.3      0.000      0.000
REMARK  Name = 
REMARK  1 active torsions:
REMARK  status: ('A' for Active; 'I' for Inactive)
REMARK    1  A    between atoms: N_9  and  C_10
REMARK                            x       y       z     vdW  Elec       q    Type
REMARK                         _______ _______ _______ _____ _____    ______ ____
ROOT
ATOM      1  O   UNL     1       5.419   5.659  19.227  0.00  0.00    +0.000 OA
ATOM      2  C   UNL     1       5.709   5.393  18.067  0.00  0.00    +0.000 A 
ATOM      3  C   UNL     1       6.990   5.962  17.454  0.00  0.00    +0.000 A 
ATOM      4 CL   UNL     1       7.997   6.886  18.485  0.00  0.00    +0.000 Cl
ATOM      5  N   UNL     1       7.368   5.781  16.226  0.00  0.00    +0.000 NA
ATOM      6  C   UNL     1       6.555   5.003  15.455  0.00  0.00    +0.000 A 
ATOM      7 CL   UNL     1       7.004   4.840  13.793  0.00  0.00    +0.000 Cl
ATOM      8  C   UNL     1       5.451   4.384  15.896  0.00  0.00    +0.000 A 
ATOM      9  N   UNL     1       4.999   4.551  17.196  0.00  0.00    +0.000 N 
ENDROOT
BRANCH   9  10
ATOM     10  C   UNL     1       3.802   3.919  17.641  0.00  0.00    +0.000 A 
ATOM     11  C   UNL     1       2.601   4.634  17.709  0.00  0.00    +0.000 A 
ATOM     12  C   UNL     1       1.419   3.991  18.082  0.00  0.00    +0.000 A 
ATOM     13  C   UNL     1       1.438   2.642  18.434  0.00  0.00    +0.000 A 
ATOM     14  C   UNL     1       2.636   1.929  18.395  0.00  0.00    +0.000 A 
ATOM     15  C   UNL     1       3.811   2.559  17.979  0.00  0.00    +0.000 A 
ENDBRANCH   9  10
TORSDOF 1
ENDMDL
MODEL 2
REMARK VINA RESULT:      -7.2      0.455      1.323
REMARK  Name = 
REMARK  1 active torsions:
REMARK  status: ('A' for Active; 'I' for Inactive)
REMARK    1  A    between atoms: N_9  and  C_10
REMARK                            x       y       z     vdW  Elec       q    Type
REMARK                         _______ _______ _______ _____ _____    ______ ____
ROOT
ATOM      1  O   UNL     1       5.438   5.142  19.597  0.00  0.00    +0.000 OA
ATOM      2  C   UNL     1       5.720   4.977  18.416  0.00  0.00    +0.000 A 
ATOM      3  C   UNL     1       7.046   5.509  17.871  0.00  0.00    +0.000 A 
ATOM      4 CL   UNL     1       8.107   6.246  18.995  0.00  0.00    +0.000 Cl
ATOM      5  N   UNL     1       7.424   5.429  16.631  0.00  0.00    +0.000 NA
ATOM      6  C   UNL     1       6.564   4.797  15.781  0.00  0.00    +0.000 A 
ATOM      7 CL   UNL     1       7.019   4.774  14.112  0.00  0.00    +0.000 Cl
ATOM      8  C   UNL     1       5.413   4.219  16.152  0.00  0.00    +0.000 A 
ATOM      9  N   UNL     1       4.960   4.284  17.461  0.00  0.00    +0.000 N 
ENDROOT
BRANCH   9  10
ATOM     10  C   UNL     1       3.715   3.700  17.833  0.00  0.00    +0.000 A 
ATOM     11  C   UNL     1       3.660   2.389  18.319  0.00  0.00    +0.000 A 
ATOM     12  C   UNL     1       2.445   1.847  18.744  0.00  0.00    +0.000 A 
ATOM     13  C   UNL     1       1.272   2.594  18.642  0.00  0.00    +0.000 A 
ATOM     14  C   UNL     1       1.314   3.890  18.132  0.00  0.00    +0.000 A 
ATOM     15  C   UNL     1       2.535   4.451  17.748  0.00  0.00    +0.000 A 
ENDBRANCH   9  10
TORSDOF 1
ENDMDL
MODEL 3
REMARK VINA RESULT:      -6.9      2.043      3.056
REMARK  Name = 
REMARK  1 active torsions:
REMARK  status: ('A' for Active; 'I' for Inactive)
REMARK    1  A    between atoms: N_9  and  C_10
REMARK                            x       y       z     vdW  Elec       q    Type
REMARK                         _______ _______ _______ _____ _____    ______ ____
ROOT
ATOM      1  O   UNL     1       3.533   3.415  16.824  0.00  0.00    +0.000 OA
ATOM      2  C   UNL     1       4.426   4.060  17.358  0.00  0.00    +0.000 A 
ATOM      3  C   UNL     1       5.600   4.570  16.522  0.00  0.00    +0.000 A 
ATOM      4 CL   UNL     1       5.541   4.266  14.838  0.00  0.00    +0.000 Cl
ATOM      5  N   UNL     1       6.619   5.223  16.993  0.00  0.00    +0.000 NA
ATOM      6  C   UNL     1       6.601   5.477  18.332  0.00  0.00    +0.000 A 
ATOM      7 CL   UNL     1       8.000   6.261  18.980  0.00  0.00    +0.000 Cl
ATOM      8  C   UNL     1       5.594   5.155  19.157  0.00  0.00    +0.000 A 
ATOM      9  N   UNL     1       4.488   4.450  18.705  0.00  0.00    +0.000 N 
ENDROOT
BRANCH   9  10
ATOM     10  C   UNL     1       3.444   4.079  19.600  0.00  0.00    +0.000 A 
ATOM     11  C   UNL     1       2.300   4.874  19.732  0.00  0.00    +0.000 A 
ATOM     12  C   UNL     1       1.252   4.469  20.562  0.00  0.00    +0.000 A 
ATOM     13  C   UNL     1       1.360   3.291  21.299  0.00  0.00    +0.000 A 
ATOM     14  C   UNL     1       2.508   2.507  21.196  0.00  0.00    +0.000 A 
ATOM     15  C   UNL     1       3.539   2.887  20.333  0.00  0.00    +0.000 A 
ENDBRANCH   9  10
TORSDOF 1
ENDMDL
MODEL 4
REMARK VINA RESULT:      -6.9      2.061      3.314
REMARK  Name = 
REMARK  1 active torsions:
REMARK  status: ('A' for Active; 'I' for Inactive)
REMARK    1  A    between atoms: N_9  and  C_10
REMARK                            x       y       z     vdW  Elec       q    Type
REMARK                         _______ _______ _______ _____ _____    ______ ____
ROOT
ATOM      1  O   UNL     1       3.454   3.446  16.772  0.00  0.00    +0.000 OA
ATOM      2  C   UNL     1       4.356   4.063  17.326  0.00  0.00    +0.000 A 
ATOM      3  C   UNL     1       5.528   4.596  16.502  0.00  0.00    +0.000 A 
ATOM      4 CL   UNL     1       5.456   4.359  14.807  0.00  0.00    +0.000 Cl
ATOM      5  N   UNL     1       6.556   5.221  16.991  0.00  0.00    +0.000 NA
ATOM      6  C   UNL     1       6.549   5.423  18.340  0.00  0.00    +0.000 A 
ATOM      7 CL   UNL     1       7.959   6.169  19.009  0.00  0.00    +0.000 Cl
ATOM      8  C   UNL     1       5.545   5.076  19.158  0.00  0.00    +0.000 A 
ATOM      9  N   UNL     1       4.430   4.399  18.687  0.00  0.00    +0.000 N 
ENDROOT
BRANCH   9  10
ATOM     10  C   UNL     1       3.389   4.000  19.573  0.00  0.00    +0.000 A 
ATOM     11  C   UNL     1       3.533   2.865  20.378  0.00  0.00    +0.000 A 
ATOM     12  C   UNL     1       2.535   2.519  21.292  0.00  0.00    +0.000 A 
ATOM     13  C   UNL     1       1.368   3.278  21.374  0.00  0.00    +0.000 A 
ATOM     14  C   UNL     1       1.205   4.394  20.556  0.00  0.00    +0.000 A 
ATOM     15  C   UNL     1       2.220   4.768  19.673  0.00  0.00    +0.000 A 
ENDBRANCH   9  10
TORSDOF 1
ENDMDL
MODEL 5
REMARK VINA RESULT:      -6.8      1.319      2.859
REMARK  Name = 
REMARK  1 active torsions:
REMARK  status: ('A' for Active; 'I' for Inactive)
REMARK    1  A    between atoms: N_9  and  C_10
REMARK                            x       y       z     vdW  Elec       q    Type
REMARK                         _______ _______ _______ _____ _____    ______ ____
ROOT
ATOM      1  O   UNL     1       4.840   3.824  15.162  0.00  0.00    +0.000 OA
ATOM      2  C   UNL     1       5.456   4.252  16.130  0.00  0.00    +0.000 A 
ATOM      3  C   UNL     1       6.827   4.900  15.932  0.00  0.00    +0.000 A 
ATOM      4 CL   UNL     1       7.384   5.060  14.321  0.00  0.00    +0.000 Cl
ATOM      5  N   UNL     1       7.583   5.345  16.890  0.00  0.00    +0.000 NA
ATOM      6  C   UNL     1       7.080   5.234  18.152  0.00  0.00    +0.000 A 
ATOM      7 CL   UNL     1       8.122   5.736  19.438  0.00  0.00    +0.000 Cl
ATOM      8  C   UNL     1       5.861   4.760  18.448  0.00  0.00    +0.000 A 
ATOM      9  N   UNL     1       5.019   4.265  17.464  0.00  0.00    +0.000 N 
ENDROOT
BRANCH   9  10
ATOM     10  C   UNL     1       3.743   3.727  17.797  0.00  0.00    +0.000 A 
ATOM     11  C   UNL     1       3.614   2.394  18.201  0.00  0.00    +0.000 A 
ATOM     12  C   UNL     1       2.369   1.893  18.589  0.00  0.00    +0.000 A 
ATOM     13  C   UNL     1       1.239   2.708  18.531  0.00  0.00    +0.000 A 
ATOM     14  C   UNL     1       1.354   4.029  18.103  0.00  0.00    +0.000 A 
ATOM     15  C   UNL     1       2.605   4.546  17.757  0.00  0.00    +0.000 A 
ENDBRANCH   9  10
TORSDOF 1
ENDMDL
MODEL 6
REMARK VINA RESULT:      -6.8      1.312      2.575
REMARK  Name = 
REMARK  1 active torsions:
REMARK  status: ('A' for Active; 'I' for Inactive)
REMARK    1  A    between atoms: N_9  and  C_10
REMARK                            x       y       z     vdW  Elec       q    Type
REMARK                         _______ _______ _______ _____ _____    ______ ____
ROOT
ATOM      1  O   UNL     1       4.819   3.805  15.257  0.00  0.00    +0.000 OA
ATOM      2  C   UNL     1       5.448   4.246  16.211  0.00  0.00    +0.000 A 
ATOM      3  C   UNL     1       6.820   4.883  15.987  0.00  0.00    +0.000 A 
ATOM      4 CL   UNL     1       7.360   5.013  14.367  0.00  0.00    +0.000 Cl
ATOM      5  N   UNL     1       7.589   5.340  16.929  0.00  0.00    +0.000 NA
ATOM      6  C   UNL     1       7.099   5.252  18.198  0.00  0.00    +0.000 A 
ATOM      7 CL   UNL     1       8.159   5.770  19.464  0.00  0.00    +0.000 Cl
ATOM      8  C   UNL     1       5.882   4.790  18.516  0.00  0.00    +0.000 A 
ATOM      9  N   UNL     1       5.026   4.284  17.549  0.00  0.00    +0.000 N 
ENDROOT
BRANCH   9  10
ATOM     10  C   UNL     1       3.751   3.759  17.905  0.00  0.00    +0.000 A 
ATOM     11  C   UNL     1       2.600   4.546  17.796  0.00  0.00    +0.000 A 
ATOM     12  C   UNL     1       1.345   4.004  18.085  0.00  0.00    +0.000 A 
ATOM     13  C   UNL     1       1.239   2.686  18.527  0.00  0.00    +0.000 A 
ATOM     14  C   UNL     1       2.383   1.903  18.666  0.00  0.00    +0.000 A 
ATOM     15  C   UNL     1       3.634   2.429  18.335  0.00  0.00    +0.000 A 
ENDBRANCH   9  10
TORSDOF 1
ENDMDL
MODEL 7
REMARK VINA RESULT:      -6.7      3.569      5.352
REMARK  Name = 
REMARK  1 active torsions:
REMARK  status: ('A' for Active; 'I' for Inactive)
REMARK    1  A    between atoms: N_9  and  C_10
REMARK                            x       y       z     vdW  Elec       q    Type
REMARK                         _______ _______ _______ _____ _____    ______ ____
ROOT
ATOM      1  O   UNL     1       3.822   2.391  19.439  0.00  0.00    +0.000 OA
ATOM      2  C   UNL     1       3.463   3.551  19.598  0.00  0.00    +0.000 A 
ATOM      3  C   UNL     1       2.405   3.881  20.652  0.00  0.00    +0.000 A 
ATOM      4 CL   UNL     1       1.843   2.584  21.619  0.00  0.00    +0.000 Cl
ATOM      5  N   UNL     1       1.921   5.066  20.872  0.00  0.00    +0.000 NA
ATOM      6  C   UNL     1       2.429   6.073  20.106  0.00  0.00    +0.000 A 
ATOM      7 CL   UNL     1       1.718   7.634  20.327  0.00  0.00    +0.000 Cl
ATOM      8  C   UNL     1       3.413   5.926  19.208  0.00  0.00    +0.000 A 
ATOM      9  N   UNL     1       3.958   4.682  18.930  0.00  0.00    +0.000 N 
ENDROOT
BRANCH   9  10
ATOM     10  C   UNL     1       4.976   4.533  17.944  0.00  0.00    +0.000 A 
ATOM     11  C   UNL     1       4.646   4.219  16.621  0.00  0.00    +0.000 A 
ATOM     12  C   UNL     1       5.644   4.140  15.646  0.00  0.00    +0.000 A 
ATOM     13  C   UNL     1       6.980   4.329  15.997  0.00  0.00    +0.000 A 
ATOM     14  C   UNL     1       7.319   4.615  17.319  0.00  0.00    +0.000 A 
ATOM     15  C   UNL     1       6.319   4.739  18.286  0.00  0.00    +0.000 A 
ENDBRANCH   9  10
TORSDOF 1
ENDMDL
MODEL 8
REMARK VINA RESULT:      -6.6      3.592      5.399
REMARK  Name = 
REMARK  1 active torsions:
REMARK  status: ('A' for Active; 'I' for Inactive)
REMARK    1  A    between atoms: N_9  and  C_10
REMARK                            x       y       z     vdW  Elec       q    Type
REMARK                         _______ _______ _______ _____ _____    ______ ____
ROOT
ATOM      1  O   UNL     1       3.845   2.456  19.413  0.00  0.00    +0.000 OA
ATOM      2  C   UNL     1       3.472   3.609  19.595  0.00  0.00    +0.000 A 
ATOM      3  C   UNL     1       2.415   3.906  20.658  0.00  0.00    +0.000 A 
ATOM      4 CL   UNL     1       1.872   2.585  21.603  0.00  0.00    +0.000 Cl
ATOM      5  N   UNL     1       1.917   5.081  20.902  0.00  0.00    +0.000 NA
ATOM      6  C   UNL     1       2.410   6.108  20.153  0.00  0.00    +0.000 A 
ATOM      7 CL   UNL     1       1.681   7.656  20.406  0.00  0.00    +0.000 Cl
ATOM      8  C   UNL     1       3.392   5.990  19.248  0.00  0.00    +0.000 A 
ATOM      9  N   UNL     1       3.951   4.758  18.945  0.00  0.00    +0.000 N 
ENDROOT
BRANCH   9  10
ATOM     10  C   UNL     1       4.966   4.640  17.953  0.00  0.00    +0.000 A 
ATOM     11  C   UNL     1       6.314   4.810  18.287  0.00  0.00    +0.000 A 
ATOM     12  C   UNL     1       7.307   4.628  17.323  0.00  0.00    +0.000 A 
ATOM     13  C   UNL     1       6.958   4.321  16.009  0.00  0.00    +0.000 A 
ATOM     14  C   UNL     1       5.616   4.177  15.661  0.00  0.00    +0.000 A 
ATOM     15  C   UNL     1       4.622   4.314  16.633  0.00  0.00    +0.000 A 
ENDBRANCH   9  10
TORSDOF 1
ENDMDL
MODEL 9
REMARK VINA RESULT:      -6.6      1.432      2.658
REMARK  Name = 
REMARK  1 active torsions:
REMARK  status: ('A' for Active; 'I' for Inactive)
REMARK    1  A    between atoms: N_9  and  C_10
REMARK                            x       y       z     vdW  Elec       q    Type
REMARK                         _______ _______ _______ _____ _____    ______ ____
ROOT
ATOM      1  O   UNL     1       4.911   3.648  15.815  0.00  0.00    +0.000 OA
ATOM      2  C   UNL     1       5.535   4.502  16.432  0.00  0.00    +0.000 A 
ATOM      3  C   UNL     1       6.695   5.233  15.756  0.00  0.00    +0.000 A 
ATOM      4 CL   UNL     1       6.998   4.854  14.113  0.00  0.00    +0.000 Cl
ATOM      5  N   UNL     1       7.449   6.120  16.330  0.00  0.00    +0.000 NA
ATOM      6  C   UNL     1       7.144   6.419  17.625  0.00  0.00    +0.000 A 
ATOM      7 CL   UNL     1       8.204   7.528  18.424  0.00  0.00    +0.000 Cl
ATOM      8  C   UNL     1       6.105   5.908  18.301  0.00  0.00    +0.000 A 
ATOM      9  N   UNL     1       5.276   4.951  17.736  0.00  0.00    +0.000 N 
ENDROOT
BRANCH   9  10
ATOM     10  C   UNL     1       4.199   4.387  18.480  0.00  0.00    +0.000 A 
ATOM     11  C   UNL     1       2.895   4.867  18.323  0.00  0.00    +0.000 A 
ATOM     12  C   UNL     1       1.836   4.265  19.006  0.00  0.00    +0.000 A 
ATOM     13  C   UNL     1       2.080   3.211  19.884  0.00  0.00    +0.000 A 
ATOM     14  C   UNL     1       3.380   2.744  20.068  0.00  0.00    +0.000 A 
ATOM     15  C   UNL     1       4.436   3.315  19.352  0.00  0.00    +0.000 A 
ENDBRANCH   9  10
TORSDOF 1
ENDMDL
