MODEL 1
REMARK VINA RESULT:      -7.5      0.000      0.000
REMARK  Name = 
REMARK  10 active torsions:
REMARK  status: ('A' for Active; 'I' for Inactive)
REMARK    1  A    between atoms: C_2  and  C_4
REMARK    2  A    between atoms: C_4  and  C_5
REMARK    3  A    between atoms: C_5  and  N_6
REMARK    4  A    between atoms: C_5  and  C_11
REMARK    5  A    between atoms: C_7  and  C_9
REMARK    6  A    between atoms: C_9  and  S_10
REMARK    7  A    between atoms: N_13  and  C_14
REMARK    8  A    between atoms: C_14  and  C_15
REMARK    9  A    between atoms: C_14  and  C_25
REMARK   10  A    between atoms: C_15  and  C_16
REMARK                            x       y       z     vdW  Elec       q    Type
REMARK                         _______ _______ _______ _____ _____    ______ ____
ROOT
ATOM      1  C   UNL     1       4.542   4.550  19.304  0.00  0.00    +0.000 C 
ATOM      2  O   UNL     1       4.866   3.413  19.651  0.00  0.00    +0.000 OA
ATOM      3  N   UNL     1       5.397   5.403  18.649  0.00  0.00    +0.000 N 
ATOM      4  H   UNL     1       4.955   6.078  18.027  0.00  0.00    +0.000 HD
ENDROOT
BRANCH   1   5
ATOM      5  C   UNL     1       3.136   5.119  19.595  0.00  0.00    +0.000 C 
BRANCH   5   6
ATOM      6  N   UNL     1       2.826   6.147  18.602  0.00  0.00    +0.000 N 
ATOM      7  C   UNL     1       2.340   7.375  18.988  0.00  0.00    +0.000 C 
ATOM      8  O   UNL     1       2.116   7.658  20.161  0.00  0.00    +0.000 OA
ATOM      9  H   UNL     1       3.309   6.109  17.708  0.00  0.00    +0.000 HD
BRANCH   7  10
ATOM     10  C   UNL     1       2.048   8.322  17.838  0.00  0.00    +0.000 C 
BRANCH  10  11
ATOM     11  S   UNL     1       1.157   9.790  18.433  0.00  0.00    +0.000 S 
ATOM     12  H   UNL     1      -0.024   9.473  17.881  0.00  0.00    +0.000 HD
ENDBRANCH  10  11
ENDBRANCH   7  10
ENDBRANCH   5   6
BRANCH   5  13
ATOM     13  C   UNL     1       2.117   3.983  19.485  0.00  0.00    +0.000 C 
BRANCH  13  15
ATOM     14  N   UNL     1       2.526   2.559  17.568  0.00  0.00    +0.000 N 
ATOM     15  C   UNL     1       1.852   3.648  18.039  0.00  0.00    +0.000 C 
ATOM     16  O   UNL     1       1.138   4.314  17.306  0.00  0.00    +0.000 OA
ATOM     17  H   UNL     1       2.327   2.280  16.614  0.00  0.00    +0.000 HD
ATOM     18  H   UNL     1       2.935   1.869  18.183  0.00  0.00    +0.000 HD
ENDBRANCH  13  15
ENDBRANCH   5  13
ENDBRANCH   1   5
BRANCH   3  19
ATOM     19  C   UNL     1       6.802   5.050  18.373  0.00  0.00    +0.000 C 
BRANCH  19  20
ATOM     20  C   UNL     1       7.798   5.726  19.367  0.00  0.00    +0.000 C 
ATOM     21  N   UNL     1       8.355   6.913  18.991  0.00  0.00    +0.000 N 
ATOM     22  O   UNL     1       7.997   5.330  20.515  0.00  0.00    +0.000 OA
ATOM     23  H   UNL     1       7.911   7.459  18.258  0.00  0.00    +0.000 HD
ATOM     24  H   UNL     1       8.901   7.402  19.684  0.00  0.00    +0.000 HD
ENDBRANCH  19  20
BRANCH  19  25
ATOM     25  C   UNL     1       7.244   5.478  16.961  0.00  0.00    +0.000 C 
BRANCH  25  26
ATOM     26  C   UNL     1       6.635   4.710  15.827  0.00  0.00    +0.000 A 
ATOM     27  C   UNL     1       5.682   3.716  15.941  0.00  0.00    +0.000 A 
ATOM     28  N   UNL     1       5.530   3.127  14.717  0.00  0.00    +0.000 N 
ATOM     29  C   UNL     1       6.288   3.780  13.776  0.00  0.00    +0.000 A 
ATOM     30  C   UNL     1       6.419   3.539  12.403  0.00  0.00    +0.000 A 
ATOM     31  C   UNL     1       7.235   4.402  11.668  0.00  0.00    +0.000 A 
ATOM     32  C   UNL     1       7.922   5.441  12.293  0.00  0.00    +0.000 A 
ATOM     33  C   UNL     1       7.821   5.635  13.677  0.00  0.00    +0.000 A 
ATOM     34  C   UNL     1       6.976   4.799  14.437  0.00  0.00    +0.000 A 
ATOM     35  H   UNL     1       4.942   2.327  14.522  0.00  0.00    +0.000 HD
ENDBRANCH  25  26
ENDBRANCH  19  25
ENDBRANCH   3  19
TORSDOF 10
ENDMDL
MODEL 2
REMARK VINA RESULT:      -7.5      3.092      5.266
REMARK  Name = 
REMARK  10 active torsions:
REMARK  status: ('A' for Active; 'I' for Inactive)
REMARK    1  A    between atoms: C_2  and  C_4
REMARK    2  A    between atoms: C_4  and  C_5
REMARK    3  A    between atoms: C_5  and  N_6
REMARK    4  A    between atoms: C_5  and  C_11
REMARK    5  A    between atoms: C_7  and  C_9
REMARK    6  A    between atoms: C_9  and  S_10
REMARK    7  A    between atoms: N_13  and  C_14
REMARK    8  A    between atoms: C_14  and  C_15
REMARK    9  A    between atoms: C_14  and  C_25
REMARK   10  A    between atoms: C_15  and  C_16
REMARK                            x       y       z     vdW  Elec       q    Type
REMARK                         _______ _______ _______ _____ _____    ______ ____
ROOT
ATOM      1  C   UNL     1       1.773   7.967  19.792  0.00  0.00    +0.000 C 
ATOM      2  O   UNL     1       2.130   8.002  18.612  0.00  0.00    +0.000 OA
ATOM      3  N   UNL     1       1.759   6.811  20.533  0.00  0.00    +0.000 N 
ATOM      4  H   UNL     1       1.900   6.929  21.535  0.00  0.00    +0.000 HD
ENDROOT
BRANCH   1   5
ATOM      5  C   UNL     1       1.293   9.234  20.533  0.00  0.00    +0.000 C 
BRANCH   5   6
ATOM      6  N   UNL     1      -0.048   9.578  20.061  0.00  0.00    +0.000 N 
ATOM      7  C   UNL     1      -0.224  10.492  19.048  0.00  0.00    +0.000 C 
ATOM      8  O   UNL     1       0.713  11.080  18.516  0.00  0.00    +0.000 OA
ATOM      9  H   UNL     1      -0.791   8.898  20.194  0.00  0.00    +0.000 HD
BRANCH   7  10
ATOM     10  C   UNL     1      -1.676  10.757  18.689  0.00  0.00    +0.000 C 
BRANCH  10  11
ATOM     11  S   UNL     1      -2.054  10.098  17.039  0.00  0.00    +0.000 S 
ATOM     12  H   UNL     1      -3.322   9.753  17.311  0.00  0.00    +0.000 HD
ENDBRANCH  10  11
ENDBRANCH   7  10
ENDBRANCH   5   6
BRANCH   5  13
ATOM     13  C   UNL     1       1.242   8.933  22.032  0.00  0.00    +0.000 C 
BRANCH  13  15
ATOM     14  N   UNL     1      -0.739   9.175  23.406  0.00  0.00    +0.000 N 
ATOM     15  C   UNL     1       0.241   9.829  22.717  0.00  0.00    +0.000 C 
ATOM     16  O   UNL     1       0.249  11.047  22.634  0.00  0.00    +0.000 OA
ATOM     17  H   UNL     1      -1.394   9.753  23.920  0.00  0.00    +0.000 HD
ATOM     18  H   UNL     1      -0.653   8.206  23.681  0.00  0.00    +0.000 HD
ENDBRANCH  13  15
ENDBRANCH   5  13
ENDBRANCH   1   5
BRANCH   3  19
ATOM     19  C   UNL     1       2.103   5.500  19.953  0.00  0.00    +0.000 C 
BRANCH  19  20
ATOM     20  C   UNL     1       1.628   4.306  20.841  0.00  0.00    +0.000 C 
ATOM     21  N   UNL     1       0.546   3.595  20.413  0.00  0.00    +0.000 N 
ATOM     22  O   UNL     1       2.250   3.885  21.815  0.00  0.00    +0.000 OA
ATOM     23  H   UNL     1       0.272   3.649  19.436  0.00  0.00    +0.000 HD
ATOM     24  H   UNL     1       0.319   2.755  20.924  0.00  0.00    +0.000 HD
ENDBRANCH  19  20
BRANCH  19  25
ATOM     25  C   UNL     1       3.621   5.323  19.768  0.00  0.00    +0.000 C 
BRANCH  25  26
ATOM     26  C   UNL     1       4.044   4.517  18.578  0.00  0.00    +0.000 A 
ATOM     27  C   UNL     1       4.067   3.137  18.502  0.00  0.00    +0.000 A 
ATOM     28  N   UNL     1       4.694   2.784  17.339  0.00  0.00    +0.000 N 
ATOM     29  C   UNL     1       4.994   3.902  16.600  0.00  0.00    +0.000 A 
ATOM     30  C   UNL     1       5.606   4.012  15.346  0.00  0.00    +0.000 A 
ATOM     31  C   UNL     1       5.745   5.292  14.802  0.00  0.00    +0.000 A 
ATOM     32  C   UNL     1       5.320   6.417  15.506  0.00  0.00    +0.000 A 
ATOM     33  C   UNL     1       4.755   6.292  16.782  0.00  0.00    +0.000 A 
ATOM     34  C   UNL     1       4.573   5.009  17.340  0.00  0.00    +0.000 A 
ATOM     35  H   UNL     1       4.908   1.837  17.055  0.00  0.00    +0.000 HD
ENDBRANCH  25  26
ENDBRANCH  19  25
ENDBRANCH   3  19
TORSDOF 10
ENDMDL
MODEL 3
REMARK VINA RESULT:      -7.1      3.364      5.495
REMARK  Name = 
REMARK  10 active torsions:
REMARK  status: ('A' for Active; 'I' for Inactive)
REMARK    1  A    between atoms: C_2  and  C_4
REMARK    2  A    between atoms: C_4  and  C_5
REMARK    3  A    between atoms: C_5  and  N_6
REMARK    4  A    between atoms: C_5  and  C_11
REMARK    5  A    between atoms: C_7  and  C_9
REMARK    6  A    between atoms: C_9  and  S_10
REMARK    7  A    between atoms: N_13  and  C_14
REMARK    8  A    between atoms: C_14  and  C_15
REMARK    9  A    between atoms: C_14  and  C_25
REMARK   10  A    between atoms: C_15  and  C_16
REMARK                            x       y       z     vdW  Elec       q    Type
REMARK                         _______ _______ _______ _____ _____    ______ ____
ROOT
ATOM      1  C   UNL     1       1.565   8.289  19.967  0.00  0.00    +0.000 C 
ATOM      2  O   UNL     1       1.753   8.434  18.758  0.00  0.00    +0.000 OA
ATOM      3  N   UNL     1       1.734   7.086  20.609  0.00  0.00    +0.000 N 
ATOM      4  H   UNL     1       2.003   7.145  21.591  0.00  0.00    +0.000 HD
ENDROOT
BRANCH   1   5
ATOM      5  C   UNL     1       1.104   9.458  20.864  0.00  0.00    +0.000 C 
BRANCH   5   6
ATOM      6  N   UNL     1       0.726  10.587  20.013  0.00  0.00    +0.000 N 
ATOM      7  C   UNL     1       1.099  11.870  20.340  0.00  0.00    +0.000 C 
ATOM      8  O   UNL     1       1.731  12.137  21.358  0.00  0.00    +0.000 OA
ATOM      9  H   UNL     1       0.538  10.403  19.031  0.00  0.00    +0.000 HD
BRANCH   7  10
ATOM     10  C   UNL     1       0.611  12.930  19.368  0.00  0.00    +0.000 C 
BRANCH  10  11
ATOM     11  S   UNL     1       2.015  13.823  18.641  0.00  0.00    +0.000 S 
ATOM     12  H   UNL     1       1.535  15.055  18.868  0.00  0.00    +0.000 HD
ENDBRANCH  10  11
ENDBRANCH   7  10
ENDBRANCH   5   6
BRANCH   5  13
ATOM     13  C   UNL     1      -0.111   9.004  21.674  0.00  0.00    +0.000 C 
BRANCH  13  15
ATOM     14  N   UNL     1      -1.214  10.506  23.221  0.00  0.00    +0.000 N 
ATOM     15  C   UNL     1      -0.140   9.690  23.016  0.00  0.00    +0.000 C 
ATOM     16  O   UNL     1       0.743   9.587  23.852  0.00  0.00    +0.000 OA
ATOM     17  H   UNL     1      -1.286  10.940  24.134  0.00  0.00    +0.000 HD
ATOM     18  H   UNL     1      -2.056  10.444  22.665  0.00  0.00    +0.000 HD
ENDBRANCH  13  15
ENDBRANCH   5  13
ENDBRANCH   1   5
BRANCH   3  19
ATOM     19  C   UNL     1       2.085   5.850  19.887  0.00  0.00    +0.000 C 
BRANCH  19  20
ATOM     20  C   UNL     1       1.542   4.567  20.591  0.00  0.00    +0.000 C 
ATOM     21  N   UNL     1       2.229   4.105  21.675  0.00  0.00    +0.000 N 
ATOM     22  O   UNL     1       0.464   4.038  20.319  0.00  0.00    +0.000 OA
ATOM     23  H   UNL     1       2.861   4.732  22.165  0.00  0.00    +0.000 HD
ATOM     24  H   UNL     1       1.808   3.350  22.196  0.00  0.00    +0.000 HD
ENDBRANCH  19  20
BRANCH  19  25
ATOM     25  C   UNL     1       3.608   5.662  19.759  0.00  0.00    +0.000 C 
BRANCH  25  26
ATOM     26  C   UNL     1       4.064   4.775  18.641  0.00  0.00    +0.000 A 
ATOM     27  C   UNL     1       4.130   3.395  18.676  0.00  0.00    +0.000 A 
ATOM     28  N   UNL     1       4.776   2.969  17.549  0.00  0.00    +0.000 N 
ATOM     29  C   UNL     1       5.046   4.033  16.723  0.00  0.00    +0.000 A 
ATOM     30  C   UNL     1       5.663   4.061  15.467  0.00  0.00    +0.000 A 
ATOM     31  C   UNL     1       5.766   5.296  14.822  0.00  0.00    +0.000 A 
ATOM     32  C   UNL     1       5.301   6.460  15.430  0.00  0.00    +0.000 A 
ATOM     33  C   UNL     1       4.732   6.421  16.710  0.00  0.00    +0.000 A 
ATOM     34  C   UNL     1       4.586   5.182  17.369  0.00  0.00    +0.000 A 
ATOM     35  H   UNL     1       5.021   2.010  17.343  0.00  0.00    +0.000 HD
ENDBRANCH  25  26
ENDBRANCH  19  25
ENDBRANCH   3  19
TORSDOF 10
ENDMDL
MODEL 4
REMARK VINA RESULT:      -6.9      2.992      7.491
REMARK  Name = 
REMARK  10 active torsions:
REMARK  status: ('A' for Active; 'I' for Inactive)
REMARK    1  A    between atoms: C_2  and  C_4
REMARK    2  A    between atoms: C_4  and  C_5
REMARK    3  A    between atoms: C_5  and  N_6
REMARK    4  A    between atoms: C_5  and  C_11
REMARK    5  A    between atoms: C_7  and  C_9
REMARK    6  A    between atoms: C_9  and  S_10
REMARK    7  A    between atoms: N_13  and  C_14
REMARK    8  A    between atoms: C_14  and  C_15
REMARK    9  A    between atoms: C_14  and  C_25
REMARK   10  A    between atoms: C_15  and  C_16
REMARK                            x       y       z     vdW  Elec       q    Type
REMARK                         _______ _______ _______ _____ _____    ______ ____
ROOT
ATOM      1  C   UNL     1       5.596   4.803  18.409  0.00  0.00    +0.000 C 
ATOM      2  O   UNL     1       6.089   4.428  19.474  0.00  0.00    +0.000 OA
ATOM      3  N   UNL     1       4.241   4.864  18.195  0.00  0.00    +0.000 N 
ATOM      4  H   UNL     1       3.932   5.570  17.528  0.00  0.00    +0.000 HD
ENDROOT
BRANCH   1   5
ATOM      5  C   UNL     1       6.474   5.222  17.210  0.00  0.00    +0.000 C 
BRANCH   5   6
ATOM      6  N   UNL     1       5.978   4.560  16.004  0.00  0.00    +0.000 N 
ATOM      7  C   UNL     1       6.700   4.595  14.834  0.00  0.00    +0.000 C 
ATOM      8  O   UNL     1       7.765   5.196  14.731  0.00  0.00    +0.000 OA
ATOM      9  H   UNL     1       5.330   3.784  16.117  0.00  0.00    +0.000 HD
BRANCH   7  10
ATOM     10  C   UNL     1       6.040   3.880  13.668  0.00  0.00    +0.000 C 
BRANCH  10  11
ATOM     11  S   UNL     1       7.066   4.011  12.176  0.00  0.00    +0.000 S 
ATOM     12  H   UNL     1       6.101   3.671  11.308  0.00  0.00    +0.000 HD
ENDBRANCH  10  11
ENDBRANCH   7  10
ENDBRANCH   5   6
BRANCH   5  13
ATOM     13  C   UNL     1       6.371   6.739  17.036  0.00  0.00    +0.000 C 
BRANCH  13  15
ATOM     14  N   UNL     1       8.124   6.746  18.708  0.00  0.00    +0.000 N 
ATOM     15  C   UNL     1       7.553   7.426  17.672  0.00  0.00    +0.000 C 
ATOM     16  O   UNL     1       7.954   8.531  17.345  0.00  0.00    +0.000 OA
ATOM     17  H   UNL     1       8.952   7.160  19.121  0.00  0.00    +0.000 HD
ATOM     18  H   UNL     1       7.971   5.758  18.857  0.00  0.00    +0.000 HD
ENDBRANCH  13  15
ENDBRANCH   5  13
ENDBRANCH   1   5
BRANCH   3  19
ATOM     19  C   UNL     1       3.264   4.415  19.203  0.00  0.00    +0.000 C 
BRANCH  19  20
ATOM     20  C   UNL     1       1.962   3.836  18.564  0.00  0.00    +0.000 C 
ATOM     21  N   UNL     1       0.987   3.395  19.409  0.00  0.00    +0.000 N 
ATOM     22  O   UNL     1       1.707   3.886  17.361  0.00  0.00    +0.000 OA
ATOM     23  H   UNL     1       0.988   3.713  20.375  0.00  0.00    +0.000 HD
ATOM     24  H   UNL     1       0.104   3.136  18.995  0.00  0.00    +0.000 HD
ENDBRANCH  19  20
BRANCH  19  25
ATOM     25  C   UNL     1       2.816   5.559  20.132  0.00  0.00    +0.000 C 
BRANCH  25  26
ATOM     26  C   UNL     1       2.379   6.819  19.449  0.00  0.00    +0.000 A 
ATOM     27  C   UNL     1       2.688   7.188  18.154  0.00  0.00    +0.000 A 
ATOM     28  N   UNL     1       2.278   8.479  17.967  0.00  0.00    +0.000 N 
ATOM     29  C   UNL     1       1.613   8.934  19.080  0.00  0.00    +0.000 A 
ATOM     30  C   UNL     1       1.007  10.172  19.321  0.00  0.00    +0.000 A 
ATOM     31  C   UNL     1       0.351  10.348  20.542  0.00  0.00    +0.000 A 
ATOM     32  C   UNL     1       0.338   9.333  21.497  0.00  0.00    +0.000 A 
ATOM     33  C   UNL     1       0.995   8.118  21.260  0.00  0.00    +0.000 A 
ATOM     34  C   UNL     1       1.635   7.904  20.022  0.00  0.00    +0.000 A 
ATOM     35  H   UNL     1       2.435   9.027  17.132  0.00  0.00    +0.000 HD
ENDBRANCH  25  26
ENDBRANCH  19  25
ENDBRANCH   3  19
TORSDOF 10
ENDMDL
MODEL 5
REMARK VINA RESULT:      -6.9      3.001      7.150
REMARK  Name = 
REMARK  10 active torsions:
REMARK  status: ('A' for Active; 'I' for Inactive)
REMARK    1  A    between atoms: C_2  and  C_4
REMARK    2  A    between atoms: C_4  and  C_5
REMARK    3  A    between atoms: C_5  and  N_6
REMARK    4  A    between atoms: C_5  and  C_11
REMARK    5  A    between atoms: C_7  and  C_9
REMARK    6  A    between atoms: C_9  and  S_10
REMARK    7  A    between atoms: N_13  and  C_14
REMARK    8  A    between atoms: C_14  and  C_15
REMARK    9  A    between atoms: C_14  and  C_25
REMARK   10  A    between atoms: C_15  and  C_16
REMARK                            x       y       z     vdW  Elec       q    Type
REMARK                         _______ _______ _______ _____ _____    ______ ____
ROOT
ATOM      1  C   UNL     1       6.119   5.144  18.754  0.00  0.00    +0.000 C 
ATOM      2  O   UNL     1       6.744   5.157  19.816  0.00  0.00    +0.000 OA
ATOM      3  N   UNL     1       4.814   4.723  18.661  0.00  0.00    +0.000 N 
ATOM      4  H   UNL     1       4.265   5.152  17.917  0.00  0.00    +0.000 HD
ENDROOT
BRANCH   1   5
ATOM      5  C   UNL     1       6.766   5.588  17.424  0.00  0.00    +0.000 C 
BRANCH   5   6
ATOM      6  N   UNL     1       6.139   4.857  16.324  0.00  0.00    +0.000 N 
ATOM      7  C   UNL     1       6.745   4.784  15.091  0.00  0.00    +0.000 C 
ATOM      8  O   UNL     1       7.810   5.342  14.843  0.00  0.00    +0.000 OA
ATOM      9  H   UNL     1       5.487   4.112  16.556  0.00  0.00    +0.000 HD
BRANCH   7  10
ATOM     10  C   UNL     1       5.957   4.008  14.051  0.00  0.00    +0.000 C 
BRANCH  10  11
ATOM     11  S   UNL     1       6.869   3.940  12.481  0.00  0.00    +0.000 S 
ATOM     12  H   UNL     1       6.478   2.701  12.143  0.00  0.00    +0.000 HD
ENDBRANCH  10  11
ENDBRANCH   7  10
ENDBRANCH   5   6
BRANCH   5  13
ATOM     13  C   UNL     1       6.525   7.088  17.240  0.00  0.00    +0.000 C 
BRANCH  13  15
ATOM     14  N   UNL     1       8.399   7.318  18.758  0.00  0.00    +0.000 N 
ATOM     15  C   UNL     1       7.717   7.878  17.717  0.00  0.00    +0.000 C 
ATOM     16  O   UNL     1       8.038   8.965  17.264  0.00  0.00    +0.000 OA
ATOM     17  H   UNL     1       9.235   7.802  19.065  0.00  0.00    +0.000 HD
ATOM     18  H   UNL     1       8.306   6.342  19.004  0.00  0.00    +0.000 HD
ENDBRANCH  13  15
ENDBRANCH   5  13
ENDBRANCH   1   5
BRANCH   3  19
ATOM     19  C   UNL     1       4.077   4.184  19.818  0.00  0.00    +0.000 C 
BRANCH  19  20
ATOM     20  C   UNL     1       3.994   2.624  19.805  0.00  0.00    +0.000 C 
ATOM     21  N   UNL     1       5.094   1.932  20.218  0.00  0.00    +0.000 N 
ATOM     22  O   UNL     1       2.961   1.994  19.584  0.00  0.00    +0.000 OA
ATOM     23  H   UNL     1       5.794   2.405  20.784  0.00  0.00    +0.000 HD
ATOM     24  H   UNL     1       4.994   0.933  20.322  0.00  0.00    +0.000 HD
ENDBRANCH  19  20
BRANCH  19  25
ATOM     25  C   UNL     1       2.625   4.693  19.873  0.00  0.00    +0.000 C 
BRANCH  25  26
ATOM     26  C   UNL     1       2.381   6.035  19.254  0.00  0.00    +0.000 A 
ATOM     27  C   UNL     1       2.724   6.409  17.968  0.00  0.00    +0.000 A 
ATOM     28  N   UNL     1       2.520   7.755  17.845  0.00  0.00    +0.000 N 
ATOM     29  C   UNL     1       1.953   8.258  18.990  0.00  0.00    +0.000 A 
ATOM     30  C   UNL     1       1.553   9.564  19.296  0.00  0.00    +0.000 A 
ATOM     31  C   UNL     1       0.952   9.786  20.538  0.00  0.00    +0.000 A 
ATOM     32  C   UNL     1       0.794   8.744  21.450  0.00  0.00    +0.000 A 
ATOM     33  C   UNL     1       1.247   7.453  21.148  0.00  0.00    +0.000 A 
ATOM     34  C   UNL     1       1.826   7.196  19.888  0.00  0.00    +0.000 A 
ATOM     35  H   UNL     1       2.748   8.308  17.030  0.00  0.00    +0.000 HD
ENDBRANCH  25  26
ENDBRANCH  19  25
ENDBRANCH   3  19
TORSDOF 10
ENDMDL
MODEL 6
REMARK VINA RESULT:      -6.9      2.656      6.577
REMARK  Name = 
REMARK  10 active torsions:
REMARK  status: ('A' for Active; 'I' for Inactive)
REMARK    1  A    between atoms: C_2  and  C_4
REMARK    2  A    between atoms: C_4  and  C_5
REMARK    3  A    between atoms: C_5  and  N_6
REMARK    4  A    between atoms: C_5  and  C_11
REMARK    5  A    between atoms: C_7  and  C_9
REMARK    6  A    between atoms: C_9  and  S_10
REMARK    7  A    between atoms: N_13  and  C_14
REMARK    8  A    between atoms: C_14  and  C_15
REMARK    9  A    between atoms: C_14  and  C_25
REMARK   10  A    between atoms: C_15  and  C_16
REMARK                            x       y       z     vdW  Elec       q    Type
REMARK                         _______ _______ _______ _____ _____    ______ ____
ROOT
ATOM      1  C   UNL     1       5.436   5.038  18.596  0.00  0.00    +0.000 C 
ATOM      2  O   UNL     1       5.454   5.279  19.805  0.00  0.00    +0.000 OA
ATOM      3  N   UNL     1       4.515   4.200  18.016  0.00  0.00    +0.000 N 
ATOM      4  H   UNL     1       4.282   4.406  17.045  0.00  0.00    +0.000 HD
ENDROOT
BRANCH   1   5
ATOM      5  C   UNL     1       6.471   5.654  17.630  0.00  0.00    +0.000 C 
BRANCH   5   6
ATOM      6  N   UNL     1       7.396   6.488  18.396  0.00  0.00    +0.000 N 
ATOM      7  C   UNL     1       7.800   7.713  17.916  0.00  0.00    +0.000 C 
ATOM      8  O   UNL     1       7.438   8.150  16.828  0.00  0.00    +0.000 OA
ATOM      9  H   UNL     1       7.435   6.359  19.403  0.00  0.00    +0.000 HD
BRANCH   7  10
ATOM     10  C   UNL     1       8.777   8.447  18.818  0.00  0.00    +0.000 C 
BRANCH  10  11
ATOM     11  S   UNL     1       8.879  10.200  18.354  0.00  0.00    +0.000 S 
ATOM     12  H   UNL     1      10.191  10.198  18.073  0.00  0.00    +0.000 HD
ENDBRANCH  10  11
ENDBRANCH   7  10
ENDBRANCH   5   6
BRANCH   5  13
ATOM     13  C   UNL     1       7.248   4.520  16.958  0.00  0.00    +0.000 C 
BRANCH  13  15
ATOM     14  N   UNL     1       7.626   5.446  14.751  0.00  0.00    +0.000 N 
ATOM     15  C   UNL     1       6.970   4.493  15.476  0.00  0.00    +0.000 C 
ATOM     16  O   UNL     1       6.182   3.727  14.945  0.00  0.00    +0.000 OA
ATOM     17  H   UNL     1       7.499   5.418  13.747  0.00  0.00    +0.000 HD
ATOM     18  H   UNL     1       8.436   5.935  15.108  0.00  0.00    +0.000 HD
ENDBRANCH  13  15
ENDBRANCH   5  13
ENDBRANCH   1   5
BRANCH   3  19
ATOM     19  C   UNL     1       3.514   3.462  18.807  0.00  0.00    +0.000 C 
BRANCH  19  20
ATOM     20  C   UNL     1       3.297   2.003  18.294  0.00  0.00    +0.000 C 
ATOM     21  N   UNL     1       2.037   1.489  18.371  0.00  0.00    +0.000 N 
ATOM     22  O   UNL     1       4.155   1.351  17.699  0.00  0.00    +0.000 OA
ATOM     23  H   UNL     1       1.248   2.123  18.465  0.00  0.00    +0.000 HD
ATOM     24  H   UNL     1       1.879   0.596  17.929  0.00  0.00    +0.000 HD
ENDBRANCH  19  20
BRANCH  19  25
ATOM     25  C   UNL     1       2.131   4.140  18.777  0.00  0.00    +0.000 C 
BRANCH  25  26
ATOM     26  C   UNL     1       2.006   5.402  19.575  0.00  0.00    +0.000 A 
ATOM     27  C   UNL     1       1.783   5.480  20.937  0.00  0.00    +0.000 A 
ATOM     28  N   UNL     1       1.534   6.787  21.254  0.00  0.00    +0.000 N 
ATOM     29  C   UNL     1       1.690   7.585  20.148  0.00  0.00    +0.000 A 
ATOM     30  C   UNL     1       1.562   8.973  20.016  0.00  0.00    +0.000 A 
ATOM     31  C   UNL     1       1.828   9.533  18.764  0.00  0.00    +0.000 A 
ATOM     32  C   UNL     1       2.172   8.727  17.680  0.00  0.00    +0.000 A 
ATOM     33  C   UNL     1       2.245   7.335  17.818  0.00  0.00    +0.000 A 
ATOM     34  C   UNL     1       2.014   6.747  19.079  0.00  0.00    +0.000 A 
ATOM     35  H   UNL     1       1.275   7.126  22.171  0.00  0.00    +0.000 HD
ENDBRANCH  25  26
ENDBRANCH  19  25
ENDBRANCH   3  19
TORSDOF 10
ENDMDL
MODEL 7
REMARK VINA RESULT:      -6.9      2.769      7.005
REMARK  Name = 
REMARK  10 active torsions:
REMARK  status: ('A' for Active; 'I' for Inactive)
REMARK    1  A    between atoms: C_2  and  C_4
REMARK    2  A    between atoms: C_4  and  C_5
REMARK    3  A    between atoms: C_5  and  N_6
REMARK    4  A    between atoms: C_5  and  C_11
REMARK    5  A    between atoms: C_7  and  C_9
REMARK    6  A    between atoms: C_9  and  S_10
REMARK    7  A    between atoms: N_13  and  C_14
REMARK    8  A    between atoms: C_14  and  C_15
REMARK    9  A    between atoms: C_14  and  C_25
REMARK   10  A    between atoms: C_15  and  C_16
REMARK                            x       y       z     vdW  Elec       q    Type
REMARK                         _______ _______ _______ _____ _____    ______ ____
ROOT
ATOM      1  C   UNL     1       6.095   4.790  18.300  0.00  0.00    +0.000 C 
ATOM      2  O   UNL     1       6.157   4.796  19.531  0.00  0.00    +0.000 OA
ATOM      3  N   UNL     1       4.962   4.431  17.612  0.00  0.00    +0.000 N 
ATOM      4  H   UNL     1       4.844   4.869  16.699  0.00  0.00    +0.000 HD
ENDROOT
BRANCH   1   5
ATOM      5  C   UNL     1       7.307   5.173  17.424  0.00  0.00    +0.000 C 
BRANCH   5   6
ATOM      6  N   UNL     1       7.242   4.422  16.171  0.00  0.00    +0.000 N 
ATOM      7  C   UNL     1       6.544   4.913  15.091  0.00  0.00    +0.000 C 
ATOM      8  O   UNL     1       5.925   5.972  15.130  0.00  0.00    +0.000 OA
ATOM      9  H   UNL     1       7.991   3.765  15.968  0.00  0.00    +0.000 HD
BRANCH   7  10
ATOM     10  C   UNL     1       6.554   4.006  13.874  0.00  0.00    +0.000 C 
BRANCH  10  11
ATOM     11  S   UNL     1       7.414   4.807  12.489  0.00  0.00    +0.000 S 
ATOM     12  H   UNL     1       7.753   3.674  11.856  0.00  0.00    +0.000 HD
ENDBRANCH  10  11
ENDBRANCH   7  10
ENDBRANCH   5   6
BRANCH   5  13
ATOM     13  C   UNL     1       7.238   6.671  17.122  0.00  0.00    +0.000 C 
BRANCH  13  15
ATOM     14  N   UNL     1       8.414   6.728  19.240  0.00  0.00    +0.000 N 
ATOM     15  C   UNL     1       7.989   7.457  18.167  0.00  0.00    +0.000 C 
ATOM     16  O   UNL     1       8.169   8.663  18.113  0.00  0.00    +0.000 OA
ATOM     17  H   UNL     1       8.966   7.220  19.933  0.00  0.00    +0.000 HD
ATOM     18  H   UNL     1       8.483   5.719  19.215  0.00  0.00    +0.000 HD
ENDBRANCH  13  15
ENDBRANCH   5  13
ENDBRANCH   1   5
BRANCH   3  19
ATOM     19  C   UNL     1       3.745   3.954  18.294  0.00  0.00    +0.000 C 
BRANCH  19  20
ATOM     20  C   UNL     1       3.316   2.526  17.829  0.00  0.00    +0.000 C 
ATOM     21  N   UNL     1       4.123   1.482  18.176  0.00  0.00    +0.000 N 
ATOM     22  O   UNL     1       2.234   2.271  17.301  0.00  0.00    +0.000 OA
ATOM     23  H   UNL     1       4.781   1.598  18.942  0.00  0.00    +0.000 HD
ATOM     24  H   UNL     1       3.781   0.554  17.979  0.00  0.00    +0.000 HD
ENDBRANCH  19  20
BRANCH  19  25
ATOM     25  C   UNL     1       2.535   4.872  18.039  0.00  0.00    +0.000 C 
BRANCH  25  26
ATOM     26  C   UNL     1       2.284   5.922  19.077  0.00  0.00    +0.000 A 
ATOM     27  C   UNL     1       2.172   5.706  20.438  0.00  0.00    +0.000 A 
ATOM     28  N   UNL     1       1.750   6.867  21.022  0.00  0.00    +0.000 N 
ATOM     29  C   UNL     1       1.679   7.873  20.089  0.00  0.00    +0.000 A 
ATOM     30  C   UNL     1       1.322   9.217  20.243  0.00  0.00    +0.000 A 
ATOM     31  C   UNL     1       1.385  10.038  19.114  0.00  0.00    +0.000 A 
ATOM     32  C   UNL     1       1.754   9.521  17.874  0.00  0.00    +0.000 A 
ATOM     33  C   UNL     1       2.058   8.161  17.728  0.00  0.00    +0.000 A 
ATOM     34  C   UNL     1       2.035   7.317  18.859  0.00  0.00    +0.000 A 
ATOM     35  H   UNL     1       1.523   6.980  22.001  0.00  0.00    +0.000 HD
ENDBRANCH  25  26
ENDBRANCH  19  25
ENDBRANCH   3  19
TORSDOF 10
ENDMDL
MODEL 8
REMARK VINA RESULT:      -6.9      2.770      5.157
REMARK  Name = 
REMARK  10 active torsions:
REMARK  status: ('A' for Active; 'I' for Inactive)
REMARK    1  A    between atoms: C_2  and  C_4
REMARK    2  A    between atoms: C_4  and  C_5
REMARK    3  A    between atoms: C_5  and  N_6
REMARK    4  A    between atoms: C_5  and  C_11
REMARK    5  A    between atoms: C_7  and  C_9
REMARK    6  A    between atoms: C_9  and  S_10
REMARK    7  A    between atoms: N_13  and  C_14
REMARK    8  A    between atoms: C_14  and  C_15
REMARK    9  A    between atoms: C_14  and  C_25
REMARK   10  A    between atoms: C_15  and  C_16
REMARK                            x       y       z     vdW  Elec       q    Type
REMARK                         _______ _______ _______ _____ _____    ______ ____
ROOT
ATOM      1  C   UNL     1       1.924   8.007  19.128  0.00  0.00    +0.000 C 
ATOM      2  O   UNL     1       1.941   8.205  17.912  0.00  0.00    +0.000 OA
ATOM      3  N   UNL     1       2.400   6.854  19.703  0.00  0.00    +0.000 N 
ATOM      4  H   UNL     1       2.762   6.951  20.651  0.00  0.00    +0.000 HD
ENDROOT
BRANCH   1   5
ATOM      5  C   UNL     1       1.343   9.045  20.112  0.00  0.00    +0.000 C 
BRANCH   5   6
ATOM      6  N   UNL     1       0.397   9.900  19.395  0.00  0.00    +0.000 N 
ATOM      7  C   UNL     1       0.511  11.270  19.443  0.00  0.00    +0.000 C 
ATOM      8  O   UNL     1       1.377  11.840  20.102  0.00  0.00    +0.000 OA
ATOM      9  H   UNL     1      -0.080   9.511  18.586  0.00  0.00    +0.000 HD
BRANCH   7  10
ATOM     10  C   UNL     1      -0.559  12.016  18.665  0.00  0.00    +0.000 C 
BRANCH  10  11
ATOM     11  S   UNL     1      -2.061  12.205  19.668  0.00  0.00    +0.000 S 
ATOM     12  H   UNL     1      -2.058  13.547  19.677  0.00  0.00    +0.000 HD
ENDBRANCH  10  11
ENDBRANCH   7  10
ENDBRANCH   5   6
BRANCH   5  13
ATOM     13  C   UNL     1       0.608   8.302  21.230  0.00  0.00    +0.000 C 
BRANCH  13  15
ATOM     14  N   UNL     1      -0.571   9.283  23.104  0.00  0.00    +0.000 N 
ATOM     15  C   UNL     1       0.642   9.101  22.508  0.00  0.00    +0.000 C 
ATOM     16  O   UNL     1       1.654   9.606  22.968  0.00  0.00    +0.000 OA
ATOM     17  H   UNL     1      -0.571   9.772  23.992  0.00  0.00    +0.000 HD
ATOM     18  H   UNL     1      -1.373   8.708  22.886  0.00  0.00    +0.000 HD
ENDBRANCH  13  15
ENDBRANCH   5  13
ENDBRANCH   1   5
BRANCH   3  19
ATOM     19  C   UNL     1       2.907   5.725  18.900  0.00  0.00    +0.000 C 
BRANCH  19  20
ATOM     20  C   UNL     1       1.824   4.627  18.656  0.00  0.00    +0.000 C 
ATOM     21  N   UNL     1       1.226   4.078  19.751  0.00  0.00    +0.000 N 
ATOM     22  O   UNL     1       1.381   4.336  17.545  0.00  0.00    +0.000 OA
ATOM     23  H   UNL     1       1.264   4.573  20.638  0.00  0.00    +0.000 HD
ATOM     24  H   UNL     1       0.446   3.460  19.586  0.00  0.00    +0.000 HD
ENDBRANCH  19  20
BRANCH  19  25
ATOM     25  C   UNL     1       4.096   5.017  19.576  0.00  0.00    +0.000 C 
BRANCH  25  26
ATOM     26  C   UNL     1       5.388   5.046  18.818  0.00  0.00    +0.000 A 
ATOM     27  C   UNL     1       6.610   5.458  19.316  0.00  0.00    +0.000 A 
ATOM     28  N   UNL     1       7.494   5.527  18.275  0.00  0.00    +0.000 N 
ATOM     29  C   UNL     1       6.908   5.071  17.120  0.00  0.00    +0.000 A 
ATOM     30  C   UNL     1       7.442   4.940  15.833  0.00  0.00    +0.000 A 
ATOM     31  C   UNL     1       6.621   4.395  14.842  0.00  0.00    +0.000 A 
ATOM     32  C   UNL     1       5.306   4.032  15.124  0.00  0.00    +0.000 A 
ATOM     33  C   UNL     1       4.772   4.218  16.406  0.00  0.00    +0.000 A 
ATOM     34  C   UNL     1       5.589   4.735  17.433  0.00  0.00    +0.000 A 
ATOM     35  H   UNL     1       8.446   5.862  18.339  0.00  0.00    +0.000 HD
ENDBRANCH  25  26
ENDBRANCH  19  25
ENDBRANCH   3  19
TORSDOF 10
ENDMDL
MODEL 9
REMARK VINA RESULT:      -6.8      2.811      6.725
REMARK  Name = 
REMARK  10 active torsions:
REMARK  status: ('A' for Active; 'I' for Inactive)
REMARK    1  A    between atoms: C_2  and  C_4
REMARK    2  A    between atoms: C_4  and  C_5
REMARK    3  A    between atoms: C_5  and  N_6
REMARK    4  A    between atoms: C_5  and  C_11
REMARK    5  A    between atoms: C_7  and  C_9
REMARK    6  A    between atoms: C_9  and  S_10
REMARK    7  A    between atoms: N_13  and  C_14
REMARK    8  A    between atoms: C_14  and  C_15
REMARK    9  A    between atoms: C_14  and  C_25
REMARK   10  A    between atoms: C_15  and  C_16
REMARK                            x       y       z     vdW  Elec       q    Type
REMARK                         _______ _______ _______ _____ _____    ______ ____
ROOT
ATOM      1  C   UNL     1       5.177   4.073  17.183  0.00  0.00    +0.000 C 
ATOM      2  O   UNL     1       4.106   3.677  16.720  0.00  0.00    +0.000 OA
ATOM      3  N   UNL     1       5.488   3.992  18.518  0.00  0.00    +0.000 N 
ATOM      4  H   UNL     1       6.481   3.903  18.734  0.00  0.00    +0.000 HD
ENDROOT
BRANCH   1   5
ATOM      5  C   UNL     1       6.260   4.715  16.289  0.00  0.00    +0.000 C 
BRANCH   5   6
ATOM      6  N   UNL     1       6.141   4.172  14.936  0.00  0.00    +0.000 N 
ATOM      7  C   UNL     1       7.018   4.551  13.946  0.00  0.00    +0.000 C 
ATOM      8  O   UNL     1       7.912   5.371  14.132  0.00  0.00    +0.000 OA
ATOM      9  H   UNL     1       5.687   3.270  14.822  0.00  0.00    +0.000 HD
BRANCH   7  10
ATOM     10  C   UNL     1       6.748   3.915  12.594  0.00  0.00    +0.000 C 
BRANCH  10  11
ATOM     11  S   UNL     1       4.986   3.512  12.420  0.00  0.00    +0.000 S 
ATOM     12  H   UNL     1       4.704   4.480  11.534  0.00  0.00    +0.000 HD
ENDBRANCH  10  11
ENDBRANCH   7  10
ENDBRANCH   5   6
BRANCH   5  13
ATOM     13  C   UNL     1       6.030   6.227  16.251  0.00  0.00    +0.000 C 
BRANCH  13  15
ATOM     14  N   UNL     1       7.891   6.124  17.798  0.00  0.00    +0.000 N 
ATOM     15  C   UNL     1       7.062   6.941  17.087  0.00  0.00    +0.000 C 
ATOM     16  O   UNL     1       7.138   8.156  17.183  0.00  0.00    +0.000 OA
ATOM     17  H   UNL     1       8.627   6.575  18.328  0.00  0.00    +0.000 HD
ATOM     18  H   UNL     1       8.006   5.144  17.576  0.00  0.00    +0.000 HD
ENDBRANCH  13  15
ENDBRANCH   5  13
ENDBRANCH   1   5
BRANCH   3  19
ATOM     19  C   UNL     1       4.532   3.487  19.520  0.00  0.00    +0.000 C 
BRANCH  19  20
ATOM     20  C   UNL     1       4.558   1.931  19.646  0.00  0.00    +0.000 C 
ATOM     21  N   UNL     1       4.003   1.208  18.632  0.00  0.00    +0.000 N 
ATOM     22  O   UNL     1       5.170   1.324  20.524  0.00  0.00    +0.000 OA
ATOM     23  H   UNL     1       3.867   1.648  17.726  0.00  0.00    +0.000 HD
ATOM     24  H   UNL     1       4.129   0.207  18.660  0.00  0.00    +0.000 HD
ENDBRANCH  19  20
BRANCH  19  25
ATOM     25  C   UNL     1       3.079   3.869  19.184  0.00  0.00    +0.000 C 
BRANCH  25  26
ATOM     26  C   UNL     1       2.582   5.144  19.794  0.00  0.00    +0.000 A 
ATOM     27  C   UNL     1       2.047   5.280  21.061  0.00  0.00    +0.000 A 
ATOM     28  N   UNL     1       1.532   6.542  21.175  0.00  0.00    +0.000 N 
ATOM     29  C   UNL     1       1.808   7.273  20.045  0.00  0.00    +0.000 A 
ATOM     30  C   UNL     1       1.498   8.603  19.737  0.00  0.00    +0.000 A 
ATOM     31  C   UNL     1       1.949   9.109  18.516  0.00  0.00    +0.000 A 
ATOM     32  C   UNL     1       2.650   8.300  17.623  0.00  0.00    +0.000 A 
ATOM     33  C   UNL     1       2.907   6.956  17.925  0.00  0.00    +0.000 A 
ATOM     34  C   UNL     1       2.491   6.430  19.166  0.00  0.00    +0.000 A 
ATOM     35  H   UNL     1       1.023   6.896  21.973  0.00  0.00    +0.000 HD
ENDBRANCH  25  26
ENDBRANCH  19  25
ENDBRANCH   3  19
TORSDOF 10
ENDMDL
