MODEL 1
REMARK VINA RESULT:      -7.0      0.000      0.000
REMARK  Name = 
REMARK  14 active torsions:
REMARK  status: ('A' for Active; 'I' for Inactive)
REMARK    1  A    between atoms: C_1  and  C_2
REMARK    2  A    between atoms: C_2  and  C_3
REMARK    3  A    between atoms: C_3  and  C_4
REMARK    4  A    between atoms: C_4  and  N_5
REMARK    5  A    between atoms: N_5  and  C_6
REMARK    6  A    between atoms: N_5  and  C_10
REMARK    7  A    between atoms: C_6  and  C_7
REMARK    8  A    between atoms: C_7  and  C_8
REMARK    9  A    between atoms: C_8  and  C_9
REMARK   10  A    between atoms: C_10  and  C_11
REMARK   11  A    between atoms: C_11  and  C_12
REMARK   12  A    between atoms: C_12  and  O_13
REMARK   13  A    between atoms: O_13  and  C_14
REMARK   14  A    between atoms: C_17  and  C_18
REMARK                            x       y       z     vdW  Elec       q    Type
REMARK                         _______ _______ _______ _____ _____    ______ ____
ROOT
ATOM      1  C   UNL     1       6.720   5.591  17.684  0.00  0.00    +0.000 A 
ATOM      2  C   UNL     1       7.680   5.710  18.708  0.00  0.00    +0.000 A 
ATOM      3  C   UNL     1       8.301   6.933  18.949  0.00  0.00    +0.000 A 
ATOM      4  C   UNL     1       7.980   8.066  18.183  0.00  0.00    +0.000 A 
ATOM      5  C   UNL     1       7.023   7.943  17.159  0.00  0.00    +0.000 A 
ATOM      6  C   UNL     1       6.402   6.713  16.914  0.00  0.00    +0.000 A 
ENDROOT
BRANCH   4   7
ATOM      7  C   UNL     1       8.639   9.356  18.487  0.00  0.00    +0.000 A 
ATOM      8  N   UNL     1       8.681  10.387  17.600  0.00  0.00    +0.000 NA
ATOM      9  C   UNL     1       9.387  11.335  18.237  0.00  0.00    +0.000 A 
ATOM     10  C   UNL     1       9.736  12.597  17.769  0.00  0.00    +0.000 A 
ATOM     11  C   UNL     1      10.506  13.415  18.617  0.00  0.00    +0.000 A 
ATOM     12  C   UNL     1      10.898  12.952  19.894  0.00  0.00    +0.000 A 
ATOM     13  C   UNL     1      10.520  11.668  20.337  0.00  0.00    +0.000 A 
ATOM     14  C   UNL     1       9.758  10.889  19.468  0.00  0.00    +0.000 A 
ATOM     15  N   UNL     1       9.287   9.648  19.650  0.00  0.00    +0.000 N 
ATOM     16  H   UNL     1       9.424   9.045  20.490  0.00  0.00    +0.000 HD
ENDBRANCH   4   7
BRANCH   1  17
ATOM     17  O   UNL     1       6.086   4.418  17.418  0.00  0.00    +0.000 OA
BRANCH  17  18
ATOM     18  C   UNL     1       5.239   3.765  18.293  0.00  0.00    +0.000 C 
BRANCH  18  19
ATOM     19  C   UNL     1       3.884   3.533  17.629  0.00  0.00    +0.000 C 
BRANCH  19  20
ATOM     20  C   UNL     1       2.871   4.616  18.044  0.00  0.00    +0.000 C 
BRANCH  20  21
ATOM     21  N   UNL     1       3.220   5.337  19.303  0.00  0.00    +0.000 NA
BRANCH  21  22
ATOM     22  C   UNL     1       3.402   6.789  19.001  0.00  0.00    +0.000 C 
BRANCH  22  23
ATOM     23  C   UNL     1       2.232   7.469  18.262  0.00  0.00    +0.000 C 
BRANCH  23  25
ATOM     24  C   UNL     1       0.962   9.684  17.961  0.00  0.00    +0.000 C 
ATOM     25  C   UNL     1       1.674   8.738  18.930  0.00  0.00    +0.000 C 
ENDBRANCH  23  25
ENDBRANCH  22  23
ENDBRANCH  21  22
BRANCH  21  26
ATOM     26  C   UNL     1       2.156   5.120  20.331  0.00  0.00    +0.000 C 
BRANCH  26  27
ATOM     27  C   UNL     1       1.091   4.070  19.922  0.00  0.00    +0.000 C 
BRANCH  27  28
ATOM     28  C   UNL     1       1.179   2.798  20.778  0.00  0.00    +0.000 C 
ATOM     29  C   UNL     1       2.480   2.766  21.585  0.00  0.00    +0.000 C 
ENDBRANCH  27  28
ENDBRANCH  26  27
ENDBRANCH  21  26
ENDBRANCH  20  21
ENDBRANCH  19  20
ENDBRANCH  18  19
ENDBRANCH  17  18
ENDBRANCH   1  17
TORSDOF 12
ENDMDL
MODEL 2
REMARK VINA RESULT:      -6.7      3.906      8.042
REMARK  Name = 
REMARK  14 active torsions:
REMARK  status: ('A' for Active; 'I' for Inactive)
REMARK    1  A    between atoms: C_1  and  C_2
REMARK    2  A    between atoms: C_2  and  C_3
REMARK    3  A    between atoms: C_3  and  C_4
REMARK    4  A    between atoms: C_4  and  N_5
REMARK    5  A    between atoms: N_5  and  C_6
REMARK    6  A    between atoms: N_5  and  C_10
REMARK    7  A    between atoms: C_6  and  C_7
REMARK    8  A    between atoms: C_7  and  C_8
REMARK    9  A    between atoms: C_8  and  C_9
REMARK   10  A    between atoms: C_10  and  C_11
REMARK   11  A    between atoms: C_11  and  C_12
REMARK   12  A    between atoms: C_12  and  O_13
REMARK   13  A    between atoms: O_13  and  C_14
REMARK   14  A    between atoms: C_17  and  C_18
REMARK                            x       y       z     vdW  Elec       q    Type
REMARK                         _______ _______ _______ _____ _____    ______ ____
ROOT
ATOM      1  C   UNL     1       2.308   7.262  18.551  0.00  0.00    +0.000 A 
ATOM      2  C   UNL     1       2.143   7.151  19.944  0.00  0.00    +0.000 A 
ATOM      3  C   UNL     1       1.568   8.193  20.669  0.00  0.00    +0.000 A 
ATOM      4  C   UNL     1       1.139   9.366  20.025  0.00  0.00    +0.000 A 
ATOM      5  C   UNL     1       1.307   9.475  18.632  0.00  0.00    +0.000 A 
ATOM      6  C   UNL     1       1.889   8.430  17.905  0.00  0.00    +0.000 A 
ENDROOT
BRANCH   4   7
ATOM      7  C   UNL     1       0.506  10.440  20.823  0.00  0.00    +0.000 A 
ATOM      8  N   UNL     1      -0.558  10.218  21.640  0.00  0.00    +0.000 NA
ATOM      9  C   UNL     1      -0.844  11.431  22.139  0.00  0.00    +0.000 A 
ATOM     10  C   UNL     1      -1.861  11.770  23.025  0.00  0.00    +0.000 A 
ATOM     11  C   UNL     1      -1.979  13.125  23.390  0.00  0.00    +0.000 A 
ATOM     12  C   UNL     1      -1.086  14.087  22.866  0.00  0.00    +0.000 A 
ATOM     13  C   UNL     1      -0.063  13.704  21.974  0.00  0.00    +0.000 A 
ATOM     14  C   UNL     1       0.020  12.354  21.637  0.00  0.00    +0.000 A 
ATOM     15  N   UNL     1       0.887  11.748  20.814  0.00  0.00    +0.000 N 
ATOM     16  H   UNL     1       1.655  12.202  20.273  0.00  0.00    +0.000 HD
ENDBRANCH   4   7
BRANCH   1  17
ATOM     17  O   UNL     1       2.858   6.268  17.804  0.00  0.00    +0.000 OA
BRANCH  17  18
ATOM     18  C   UNL     1       2.543   4.929  17.921  0.00  0.00    +0.000 C 
BRANCH  18  19
ATOM     19  C   UNL     1       3.795   4.127  18.265  0.00  0.00    +0.000 C 
BRANCH  19  20
ATOM     20  C   UNL     1       4.548   3.701  16.991  0.00  0.00    +0.000 C 
BRANCH  20  21
ATOM     21  N   UNL     1       5.837   4.419  16.766  0.00  0.00    +0.000 NA
BRANCH  21  22
ATOM     22  C   UNL     1       5.757   5.177  15.481  0.00  0.00    +0.000 C 
BRANCH  22  23
ATOM     23  C   UNL     1       6.696   4.690  14.360  0.00  0.00    +0.000 C 
BRANCH  23  25
ATOM     24  C   UNL     1       6.823   3.655  12.009  0.00  0.00    +0.000 C 
ATOM     25  C   UNL     1       6.064   3.731  13.336  0.00  0.00    +0.000 C 
ENDBRANCH  23  25
ENDBRANCH  22  23
ENDBRANCH  21  22
BRANCH  21  26
ATOM     26  C   UNL     1       6.130   5.324  17.919  0.00  0.00    +0.000 C 
BRANCH  26  27
ATOM     27  C   UNL     1       6.422   6.791  17.508  0.00  0.00    +0.000 C 
BRANCH  27  28
ATOM     28  C   UNL     1       7.860   7.209  17.849  0.00  0.00    +0.000 C 
ATOM     29  C   UNL     1       8.008   8.732  17.834  0.00  0.00    +0.000 C 
ENDBRANCH  27  28
ENDBRANCH  26  27
ENDBRANCH  21  26
ENDBRANCH  20  21
ENDBRANCH  19  20
ENDBRANCH  18  19
ENDBRANCH  17  18
ENDBRANCH   1  17
TORSDOF 12
ENDMDL
MODEL 3
REMARK VINA RESULT:      -6.7      4.129      7.734
REMARK  Name = 
REMARK  14 active torsions:
REMARK  status: ('A' for Active; 'I' for Inactive)
REMARK    1  A    between atoms: C_1  and  C_2
REMARK    2  A    between atoms: C_2  and  C_3
REMARK    3  A    between atoms: C_3  and  C_4
REMARK    4  A    between atoms: C_4  and  N_5
REMARK    5  A    between atoms: N_5  and  C_6
REMARK    6  A    between atoms: N_5  and  C_10
REMARK    7  A    between atoms: C_6  and  C_7
REMARK    8  A    between atoms: C_7  and  C_8
REMARK    9  A    between atoms: C_8  and  C_9
REMARK   10  A    between atoms: C_10  and  C_11
REMARK   11  A    between atoms: C_11  and  C_12
REMARK   12  A    between atoms: C_12  and  O_13
REMARK   13  A    between atoms: O_13  and  C_14
REMARK   14  A    between atoms: C_17  and  C_18
REMARK                            x       y       z     vdW  Elec       q    Type
REMARK                         _______ _______ _______ _____ _____    ______ ____
ROOT
ATOM      1  C   UNL     1       2.718   6.516  18.511  0.00  0.00    +0.000 A 
ATOM      2  C   UNL     1       2.330   6.388  19.858  0.00  0.00    +0.000 A 
ATOM      3  C   UNL     1       1.718   7.452  20.516  0.00  0.00    +0.000 A 
ATOM      4  C   UNL     1       1.473   8.665  19.851  0.00  0.00    +0.000 A 
ATOM      5  C   UNL     1       1.864   8.791  18.505  0.00  0.00    +0.000 A 
ATOM      6  C   UNL     1       2.484   7.723  17.845  0.00  0.00    +0.000 A 
ENDROOT
BRANCH   4   7
ATOM      7  C   UNL     1       0.793   9.763  20.574  0.00  0.00    +0.000 A 
ATOM      8  N   UNL     1       1.041  11.075  20.317  0.00  0.00    +0.000 NA
ATOM      9  C   UNL     1       0.265  11.731  21.195  0.00  0.00    +0.000 A 
ATOM     10  C   UNL     1       0.146  13.106  21.368  0.00  0.00    +0.000 A 
ATOM     11  C   UNL     1      -0.722  13.561  22.378  0.00  0.00    +0.000 A 
ATOM     12  C   UNL     1      -1.439  12.638  23.174  0.00  0.00    +0.000 A 
ATOM     13  C   UNL     1      -1.297  11.251  22.966  0.00  0.00    +0.000 A 
ATOM     14  C   UNL     1      -0.428  10.841  21.957  0.00  0.00    +0.000 A 
ATOM     15  N   UNL     1      -0.118   9.595  21.573  0.00  0.00    +0.000 N 
ATOM     16  H   UNL     1      -0.481   8.707  21.983  0.00  0.00    +0.000 HD
ENDBRANCH   4   7
BRANCH   1  17
ATOM     17  O   UNL     1       3.313   5.503  17.828  0.00  0.00    +0.000 OA
BRANCH  17  18
ATOM     18  C   UNL     1       3.391   4.196  18.268  0.00  0.00    +0.000 C 
BRANCH  18  19
ATOM     19  C   UNL     1       4.166   3.352  17.260  0.00  0.00    +0.000 C 
BRANCH  19  20
ATOM     20  C   UNL     1       4.858   4.242  16.210  0.00  0.00    +0.000 C 
BRANCH  20  21
ATOM     21  N   UNL     1       6.249   3.823  15.866  0.00  0.00    +0.000 NA
BRANCH  21  22
ATOM     22  C   UNL     1       6.520   4.156  14.435  0.00  0.00    +0.000 C 
BRANCH  22  23
ATOM     23  C   UNL     1       5.314   4.038  13.482  0.00  0.00    +0.000 C 
BRANCH  23  25
ATOM     24  C   UNL     1       7.019   3.292  11.708  0.00  0.00    +0.000 C 
ATOM     25  C   UNL     1       5.567   3.246  12.189  0.00  0.00    +0.000 C 
ENDBRANCH  23  25
ENDBRANCH  22  23
ENDBRANCH  21  22
BRANCH  21  26
ATOM     26  C   UNL     1       7.228   4.489  16.779  0.00  0.00    +0.000 C 
BRANCH  26  27
ATOM     27  C   UNL     1       7.159   6.038  16.751  0.00  0.00    +0.000 C 
BRANCH  27  28
ATOM     28  C   UNL     1       6.738   6.620  18.109  0.00  0.00    +0.000 C 
ATOM     29  C   UNL     1       6.811   5.558  19.209  0.00  0.00    +0.000 C 
ENDBRANCH  27  28
ENDBRANCH  26  27
ENDBRANCH  21  26
ENDBRANCH  20  21
ENDBRANCH  19  20
ENDBRANCH  18  19
ENDBRANCH  17  18
ENDBRANCH   1  17
TORSDOF 12
ENDMDL
MODEL 4
REMARK VINA RESULT:      -6.7      1.028      1.681
REMARK  Name = 
REMARK  14 active torsions:
REMARK  status: ('A' for Active; 'I' for Inactive)
REMARK    1  A    between atoms: C_1  and  C_2
REMARK    2  A    between atoms: C_2  and  C_3
REMARK    3  A    between atoms: C_3  and  C_4
REMARK    4  A    between atoms: C_4  and  N_5
REMARK    5  A    between atoms: N_5  and  C_6
REMARK    6  A    between atoms: N_5  and  C_10
REMARK    7  A    between atoms: C_6  and  C_7
REMARK    8  A    between atoms: C_7  and  C_8
REMARK    9  A    between atoms: C_8  and  C_9
REMARK   10  A    between atoms: C_10  and  C_11
REMARK   11  A    between atoms: C_11  and  C_12
REMARK   12  A    between atoms: C_12  and  O_13
REMARK   13  A    between atoms: O_13  and  C_14
REMARK   14  A    between atoms: C_17  and  C_18
REMARK                            x       y       z     vdW  Elec       q    Type
REMARK                         _______ _______ _______ _____ _____    ______ ____
ROOT
ATOM      1  C   UNL     1       7.284   5.820  17.713  0.00  0.00    +0.000 A 
ATOM      2  C   UNL     1       7.997   6.039  18.907  0.00  0.00    +0.000 A 
ATOM      3  C   UNL     1       8.500   7.304  19.203  0.00  0.00    +0.000 A 
ATOM      4  C   UNL     1       8.300   8.381  18.322  0.00  0.00    +0.000 A 
ATOM      5  C   UNL     1       7.588   8.159  17.129  0.00  0.00    +0.000 A 
ATOM      6  C   UNL     1       7.088   6.886  16.830  0.00  0.00    +0.000 A 
ENDROOT
BRANCH   4   7
ATOM      7  C   UNL     1       8.822   9.719  18.684  0.00  0.00    +0.000 A 
ATOM      8  N   UNL     1       9.369   9.990  19.899  0.00  0.00    +0.000 NA
ATOM      9  C   UNL     1       9.675  11.295  19.834  0.00  0.00    +0.000 A 
ATOM     10  C   UNL     1      10.252  12.086  20.822  0.00  0.00    +0.000 A 
ATOM     11  C   UNL     1      10.458  13.447  20.527  0.00  0.00    +0.000 A 
ATOM     12  C   UNL     1      10.088  13.969  19.266  0.00  0.00    +0.000 A 
ATOM     13  C   UNL     1       9.511  13.135  18.287  0.00  0.00    +0.000 A 
ATOM     14  C   UNL     1       9.323  11.794  18.618  0.00  0.00    +0.000 A 
ATOM     15  N   UNL     1       8.794  10.814  17.874  0.00  0.00    +0.000 N 
ATOM     16  H   UNL     1       8.420  10.899  16.903  0.00  0.00    +0.000 HD
ENDBRANCH   4   7
BRANCH   1  17
ATOM     17  O   UNL     1       6.773   4.603  17.388  0.00  0.00    +0.000 OA
BRANCH  17  18
ATOM     18  C   UNL     1       5.947   4.360  16.308  0.00  0.00    +0.000 C 
BRANCH  18  19
ATOM     19  C   UNL     1       4.886   3.329  16.685  0.00  0.00    +0.000 C 
BRANCH  19  20
ATOM     20  C   UNL     1       3.781   3.964  17.551  0.00  0.00    +0.000 C 
BRANCH  20  21
ATOM     21  N   UNL     1       4.152   4.152  18.984  0.00  0.00    +0.000 NA
BRANCH  21  22
ATOM     22  C   UNL     1       3.982   5.591  19.348  0.00  0.00    +0.000 C 
BRANCH  22  23
ATOM     23  C   UNL     1       3.647   6.540  18.180  0.00  0.00    +0.000 C 
BRANCH  23  25
ATOM     24  C   UNL     1       2.337   8.728  17.854  0.00  0.00    +0.000 C 
ATOM     25  C   UNL     1       2.290   7.258  18.277  0.00  0.00    +0.000 C 
ENDBRANCH  23  25
ENDBRANCH  22  23
ENDBRANCH  21  22
BRANCH  21  26
ATOM     26  C   UNL     1       3.319   3.265  19.853  0.00  0.00    +0.000 C 
BRANCH  26  27
ATOM     27  C   UNL     1       2.244   2.459  19.079  0.00  0.00    +0.000 C 
BRANCH  27  28
ATOM     28  C   UNL     1       0.819   2.829  19.520  0.00  0.00    +0.000 C 
ATOM     29  C   UNL     1       0.824   4.082  20.400  0.00  0.00    +0.000 C 
ENDBRANCH  27  28
ENDBRANCH  26  27
ENDBRANCH  21  26
ENDBRANCH  20  21
ENDBRANCH  19  20
ENDBRANCH  18  19
ENDBRANCH  17  18
ENDBRANCH   1  17
TORSDOF 12
ENDMDL
MODEL 5
REMARK VINA RESULT:      -6.7      0.785      1.398
REMARK  Name = 
REMARK  14 active torsions:
REMARK  status: ('A' for Active; 'I' for Inactive)
REMARK    1  A    between atoms: C_1  and  C_2
REMARK    2  A    between atoms: C_2  and  C_3
REMARK    3  A    between atoms: C_3  and  C_4
REMARK    4  A    between atoms: C_4  and  N_5
REMARK    5  A    between atoms: N_5  and  C_6
REMARK    6  A    between atoms: N_5  and  C_10
REMARK    7  A    between atoms: C_6  and  C_7
REMARK    8  A    between atoms: C_7  and  C_8
REMARK    9  A    between atoms: C_8  and  C_9
REMARK   10  A    between atoms: C_10  and  C_11
REMARK   11  A    between atoms: C_11  and  C_12
REMARK   12  A    between atoms: C_12  and  O_13
REMARK   13  A    between atoms: O_13  and  C_14
REMARK   14  A    between atoms: C_17  and  C_18
REMARK                            x       y       z     vdW  Elec       q    Type
REMARK                         _______ _______ _______ _____ _____    ______ ____
ROOT
ATOM      1  C   UNL     1       7.120   5.731  17.886  0.00  0.00    +0.000 A 
ATOM      2  C   UNL     1       7.993   5.999  18.958  0.00  0.00    +0.000 A 
ATOM      3  C   UNL     1       8.517   7.278  19.134  0.00  0.00    +0.000 A 
ATOM      4  C   UNL     1       8.183   8.320  18.253  0.00  0.00    +0.000 A 
ATOM      5  C   UNL     1       7.312   8.049  17.181  0.00  0.00    +0.000 A 
ATOM      6  C   UNL     1       6.789   6.762  17.002  0.00  0.00    +0.000 A 
ENDROOT
BRANCH   4   7
ATOM      7  C   UNL     1       8.735   9.673  18.488  0.00  0.00    +0.000 A 
ATOM      8  N   UNL     1       9.537   9.965  19.547  0.00  0.00    +0.000 NA
ATOM      9  C   UNL     1       9.784  11.278  19.417  0.00  0.00    +0.000 A 
ATOM     10  C   UNL     1      10.548  12.089  20.249  0.00  0.00    +0.000 A 
ATOM     11  C   UNL     1      10.643  13.454  19.917  0.00  0.00    +0.000 A 
ATOM     12  C   UNL     1       9.981  13.960  18.775  0.00  0.00    +0.000 A 
ATOM     13  C   UNL     1       9.220  13.106  17.951  0.00  0.00    +0.000 A 
ATOM     14  C   UNL     1       9.150  11.761  18.314  0.00  0.00    +0.000 A 
ATOM     15  N   UNL     1       8.493  10.763  17.708  0.00  0.00    +0.000 N 
ATOM     16  H   UNL     1       7.906  10.834  16.848  0.00  0.00    +0.000 HD
ENDBRANCH   4   7
BRANCH   1  17
ATOM     17  O   UNL     1       6.582   4.500  17.680  0.00  0.00    +0.000 OA
BRANCH  17  18
ATOM     18  C   UNL     1       5.605   4.215  16.746  0.00  0.00    +0.000 C 
BRANCH  18  19
ATOM     19  C   UNL     1       4.258   4.035  17.441  0.00  0.00    +0.000 C 
BRANCH  19  20
ATOM     20  C   UNL     1       4.134   4.969  18.659  0.00  0.00    +0.000 C 
BRANCH  20  21
ATOM     21  N   UNL     1       2.744   5.124  19.180  0.00  0.00    +0.000 NA
BRANCH  21  22
ATOM     22  C   UNL     1       2.356   6.565  19.116  0.00  0.00    +0.000 C 
BRANCH  22  23
ATOM     23  C   UNL     1       2.828   7.328  17.863  0.00  0.00    +0.000 C 
BRANCH  23  25
ATOM     24  C   UNL     1       1.415   9.215  18.891  0.00  0.00    +0.000 C 
ATOM     25  C   UNL     1       2.327   8.778  17.743  0.00  0.00    +0.000 C 
ENDBRANCH  23  25
ENDBRANCH  22  23
ENDBRANCH  21  22
BRANCH  21  26
ATOM     26  C   UNL     1       1.802   4.267  18.397  0.00  0.00    +0.000 C 
BRANCH  26  27
ATOM     27  C   UNL     1       1.159   3.123  19.223  0.00  0.00    +0.000 C 
BRANCH  27  28
ATOM     28  C   UNL     1       0.964   3.516  20.695  0.00  0.00    +0.000 C 
ATOM     29  C   UNL     1       1.702   2.550  21.625  0.00  0.00    +0.000 C 
ENDBRANCH  27  28
ENDBRANCH  26  27
ENDBRANCH  21  26
ENDBRANCH  20  21
ENDBRANCH  19  20
ENDBRANCH  18  19
ENDBRANCH  17  18
ENDBRANCH   1  17
TORSDOF 12
ENDMDL
MODEL 6
REMARK VINA RESULT:      -6.6      3.901      7.997
REMARK  Name = 
REMARK  14 active torsions:
REMARK  status: ('A' for Active; 'I' for Inactive)
REMARK    1  A    between atoms: C_1  and  C_2
REMARK    2  A    between atoms: C_2  and  C_3
REMARK    3  A    between atoms: C_3  and  C_4
REMARK    4  A    between atoms: C_4  and  N_5
REMARK    5  A    between atoms: N_5  and  C_6
REMARK    6  A    between atoms: N_5  and  C_10
REMARK    7  A    between atoms: C_6  and  C_7
REMARK    8  A    between atoms: C_7  and  C_8
REMARK    9  A    between atoms: C_8  and  C_9
REMARK   10  A    between atoms: C_10  and  C_11
REMARK   11  A    between atoms: C_11  and  C_12
REMARK   12  A    between atoms: C_12  and  O_13
REMARK   13  A    between atoms: O_13  and  C_14
REMARK   14  A    between atoms: C_17  and  C_18
REMARK                            x       y       z     vdW  Elec       q    Type
REMARK                         _______ _______ _______ _____ _____    ______ ____
ROOT
ATOM      1  C   UNL     1       3.089   6.082  19.255  0.00  0.00    +0.000 A 
ATOM      2  C   UNL     1       2.390   6.118  20.477  0.00  0.00    +0.000 A 
ATOM      3  C   UNL     1       1.592   7.213  20.798  0.00  0.00    +0.000 A 
ATOM      4  C   UNL     1       1.465   8.295  19.911  0.00  0.00    +0.000 A 
ATOM      5  C   UNL     1       2.166   8.258  18.691  0.00  0.00    +0.000 A 
ATOM      6  C   UNL     1       2.972   7.159  18.371  0.00  0.00    +0.000 A 
ENDROOT
BRANCH   4   7
ATOM      7  C   UNL     1       0.584   9.428  20.272  0.00  0.00    +0.000 A 
ATOM      8  N   UNL     1       0.304   9.759  21.561  0.00  0.00    +0.000 NA
ATOM      9  C   UNL     1      -0.542  10.797  21.455  0.00  0.00    +0.000 A 
ATOM     10  C   UNL     1      -1.148  11.511  22.482  0.00  0.00    +0.000 A 
ATOM     11  C   UNL     1      -2.023  12.553  22.120  0.00  0.00    +0.000 A 
ATOM     12  C   UNL     1      -2.259  12.847  20.758  0.00  0.00    +0.000 A 
ATOM     13  C   UNL     1      -1.621  12.105  19.744  0.00  0.00    +0.000 A 
ATOM     14  C   UNL     1      -0.763  11.081  20.143  0.00  0.00    +0.000 A 
ATOM     15  N   UNL     1      -0.054  10.238  19.381  0.00  0.00    +0.000 N 
ATOM     16  H   UNL     1      -0.034  10.205  18.338  0.00  0.00    +0.000 HD
ENDBRANCH   4   7
BRANCH   1  17
ATOM     17  O   UNL     1       3.875   5.031  18.900  0.00  0.00    +0.000 OA
BRANCH  17  18
ATOM     18  C   UNL     1       3.408   3.769  18.589  0.00  0.00    +0.000 C 
BRANCH  18  19
ATOM     19  C   UNL     1       4.106   3.250  17.335  0.00  0.00    +0.000 C 
BRANCH  19  20
ATOM     20  C   UNL     1       4.589   4.414  16.449  0.00  0.00    +0.000 C 
BRANCH  20  21
ATOM     21  N   UNL     1       5.817   4.117  15.654  0.00  0.00    +0.000 NA
BRANCH  21  22
ATOM     22  C   UNL     1       5.522   4.320  14.204  0.00  0.00    +0.000 C 
BRANCH  22  23
ATOM     23  C   UNL     1       6.545   3.714  13.223  0.00  0.00    +0.000 C 
BRANCH  23  25
ATOM     24  C   UNL     1       4.467   3.330  11.758  0.00  0.00    +0.000 C 
ATOM     25  C   UNL     1       5.947   3.017  11.989  0.00  0.00    +0.000 C 
ENDBRANCH  23  25
ENDBRANCH  22  23
ENDBRANCH  21  22
BRANCH  21  26
ATOM     26  C   UNL     1       6.947   4.982  16.111  0.00  0.00    +0.000 C 
BRANCH  26  27
ATOM     27  C   UNL     1       6.497   6.250  16.881  0.00  0.00    +0.000 C 
BRANCH  27  28
ATOM     28  C   UNL     1       7.587   6.762  17.834  0.00  0.00    +0.000 C 
ATOM     29  C   UNL     1       7.731   5.843  19.050  0.00  0.00    +0.000 C 
ENDBRANCH  27  28
ENDBRANCH  26  27
ENDBRANCH  21  26
ENDBRANCH  20  21
ENDBRANCH  19  20
ENDBRANCH  18  19
ENDBRANCH  17  18
ENDBRANCH   1  17
TORSDOF 12
ENDMDL
MODEL 7
REMARK VINA RESULT:      -6.6      3.550      7.618
REMARK  Name = 
REMARK  14 active torsions:
REMARK  status: ('A' for Active; 'I' for Inactive)
REMARK    1  A    between atoms: C_1  and  C_2
REMARK    2  A    between atoms: C_2  and  C_3
REMARK    3  A    between atoms: C_3  and  C_4
REMARK    4  A    between atoms: C_4  and  N_5
REMARK    5  A    between atoms: N_5  and  C_6
REMARK    6  A    between atoms: N_5  and  C_10
REMARK    7  A    between atoms: C_6  and  C_7
REMARK    8  A    between atoms: C_7  and  C_8
REMARK    9  A    between atoms: C_8  and  C_9
REMARK   10  A    between atoms: C_10  and  C_11
REMARK   11  A    between atoms: C_11  and  C_12
REMARK   12  A    between atoms: C_12  and  O_13
REMARK   13  A    between atoms: O_13  and  C_14
REMARK   14  A    between atoms: C_17  and  C_18
REMARK                            x       y       z     vdW  Elec       q    Type
REMARK                         _______ _______ _______ _____ _____    ______ ____
ROOT
ATOM      1  C   UNL     1       2.328   6.610  19.578  0.00  0.00    +0.000 A 
ATOM      2  C   UNL     1       2.448   7.439  18.446  0.00  0.00    +0.000 A 
ATOM      3  C   UNL     1       1.953   8.741  18.473  0.00  0.00    +0.000 A 
ATOM      4  C   UNL     1       1.333   9.251  19.626  0.00  0.00    +0.000 A 
ATOM      5  C   UNL     1       1.213   8.420  20.756  0.00  0.00    +0.000 A 
ATOM      6  C   UNL     1       1.705   7.110  20.726  0.00  0.00    +0.000 A 
ENDROOT
BRANCH   4   7
ATOM      7  C   UNL     1       0.846  10.649  19.628  0.00  0.00    +0.000 A 
ATOM      8  N   UNL     1      -0.212  11.057  20.378  0.00  0.00    +0.000 NA
ATOM      9  C   UNL     1      -0.347  12.357  20.071  0.00  0.00    +0.000 A 
ATOM     10  C   UNL     1      -1.294  13.253  20.554  0.00  0.00    +0.000 A 
ATOM     11  C   UNL     1      -1.250  14.572  20.062  0.00  0.00    +0.000 A 
ATOM     12  C   UNL     1      -0.270  14.950  19.115  0.00  0.00    +0.000 A 
ATOM     13  C   UNL     1       0.678  14.015  18.653  0.00  0.00    +0.000 A 
ATOM     14  C   UNL     1       0.600  12.719  19.164  0.00  0.00    +0.000 A 
ATOM     15  N   UNL     1       1.370  11.660  18.880  0.00  0.00    +0.000 N 
ATOM     16  H   UNL     1       2.168  11.630  18.209  0.00  0.00    +0.000 HD
ENDBRANCH   4   7
BRANCH   1  17
ATOM     17  O   UNL     1       2.800   5.336  19.597  0.00  0.00    +0.000 OA
BRANCH  17  18
ATOM     18  C   UNL     1       3.140   4.605  18.476  0.00  0.00    +0.000 C 
BRANCH  18  19
ATOM     19  C   UNL     1       4.642   4.335  18.466  0.00  0.00    +0.000 C 
BRANCH  19  20
ATOM     20  C   UNL     1       5.156   4.118  17.030  0.00  0.00    +0.000 C 
BRANCH  20  21
ATOM     21  N   UNL     1       6.343   4.947  16.667  0.00  0.00    +0.000 NA
BRANCH  21  22
ATOM     22  C   UNL     1       7.334   4.897  17.784  0.00  0.00    +0.000 C 
BRANCH  22  23
ATOM     23  C   UNL     1       7.719   6.258  18.397  0.00  0.00    +0.000 C 
BRANCH  23  25
ATOM     24  C   UNL     1       8.186   8.752  17.975  0.00  0.00    +0.000 C 
ATOM     25  C   UNL     1       7.478   7.482  17.496  0.00  0.00    +0.000 C 
ENDBRANCH  23  25
ENDBRANCH  22  23
ENDBRANCH  21  22
BRANCH  21  26
ATOM     26  C   UNL     1       6.937   4.462  15.384  0.00  0.00    +0.000 C 
BRANCH  26  27
ATOM     27  C   UNL     1       5.886   4.059  14.317  0.00  0.00    +0.000 C 
BRANCH  27  28
ATOM     28  C   UNL     1       6.509   3.919  12.920  0.00  0.00    +0.000 C 
ATOM     29  C   UNL     1       5.626   3.064  12.008  0.00  0.00    +0.000 C 
ENDBRANCH  27  28
ENDBRANCH  26  27
ENDBRANCH  21  26
ENDBRANCH  20  21
ENDBRANCH  19  20
ENDBRANCH  18  19
ENDBRANCH  17  18
ENDBRANCH   1  17
TORSDOF 12
ENDMDL
MODEL 8
REMARK VINA RESULT:      -6.6      3.871      8.188
REMARK  Name = 
REMARK  14 active torsions:
REMARK  status: ('A' for Active; 'I' for Inactive)
REMARK    1  A    between atoms: C_1  and  C_2
REMARK    2  A    between atoms: C_2  and  C_3
REMARK    3  A    between atoms: C_3  and  C_4
REMARK    4  A    between atoms: C_4  and  N_5
REMARK    5  A    between atoms: N_5  and  C_6
REMARK    6  A    between atoms: N_5  and  C_10
REMARK    7  A    between atoms: C_6  and  C_7
REMARK    8  A    between atoms: C_7  and  C_8
REMARK    9  A    between atoms: C_8  and  C_9
REMARK   10  A    between atoms: C_10  and  C_11
REMARK   11  A    between atoms: C_11  and  C_12
REMARK   12  A    between atoms: C_12  and  O_13
REMARK   13  A    between atoms: O_13  and  C_14
REMARK   14  A    between atoms: C_17  and  C_18
REMARK                            x       y       z     vdW  Elec       q    Type
REMARK                         _______ _______ _______ _____ _____    ______ ____
ROOT
ATOM      1  C   UNL     1       2.511   7.047  19.187  0.00  0.00    +0.000 A 
ATOM      2  C   UNL     1       2.000   7.124  20.497  0.00  0.00    +0.000 A 
ATOM      3  C   UNL     1       1.245   8.226  20.892  0.00  0.00    +0.000 A 
ATOM      4  C   UNL     1       0.977   9.274  19.994  0.00  0.00    +0.000 A 
ATOM      5  C   UNL     1       1.492   9.195  18.687  0.00  0.00    +0.000 A 
ATOM      6  C   UNL     1       2.254   8.089  18.292  0.00  0.00    +0.000 A 
ENDROOT
BRANCH   4   7
ATOM      7  C   UNL     1       0.147  10.415  20.441  0.00  0.00    +0.000 A 
ATOM      8  N   UNL     1       0.378  11.081  21.604  0.00  0.00    +0.000 NA
ATOM      9  C   UNL     1      -0.600  12.000  21.652  0.00  0.00    +0.000 A 
ATOM     10  C   UNL     1      -0.836  12.942  22.647  0.00  0.00    +0.000 A 
ATOM     11  C   UNL     1      -1.946  13.792  22.487  0.00  0.00    +0.000 A 
ATOM     12  C   UNL     1      -2.777  13.677  21.348  0.00  0.00    +0.000 A 
ATOM     13  C   UNL     1      -2.502  12.713  20.356  0.00  0.00    +0.000 A 
ATOM     14  C   UNL     1      -1.394  11.890  20.552  0.00  0.00    +0.000 A 
ATOM     15  N   UNL     1      -0.934  10.905  19.770  0.00  0.00    +0.000 N 
ATOM     16  H   UNL     1      -1.345  10.580  18.868  0.00  0.00    +0.000 HD
ENDBRANCH   4   7
BRANCH   1  17
ATOM     17  O   UNL     1       3.247   5.988  18.758  0.00  0.00    +0.000 OA
BRANCH  17  18
ATOM     18  C   UNL     1       3.721   4.977  19.571  0.00  0.00    +0.000 C 
BRANCH  18  19
ATOM     19  C   UNL     1       4.343   3.873  18.719  0.00  0.00    +0.000 C 
BRANCH  19  20
ATOM     20  C   UNL     1       4.302   4.238  17.224  0.00  0.00    +0.000 C 
BRANCH  20  21
ATOM     21  N   UNL     1       5.618   4.655  16.654  0.00  0.00    +0.000 NA
BRANCH  21  22
ATOM     22  C   UNL     1       6.006   3.700  15.573  0.00  0.00    +0.000 C 
BRANCH  22  23
ATOM     23  C   UNL     1       6.344   4.337  14.210  0.00  0.00    +0.000 C 
BRANCH  23  25
ATOM     24  C   UNL     1       6.583   3.208  11.912  0.00  0.00    +0.000 C 
ATOM     25  C   UNL     1       5.631   3.719  12.995  0.00  0.00    +0.000 C 
ENDBRANCH  23  25
ENDBRANCH  22  23
ENDBRANCH  21  22
BRANCH  21  26
ATOM     26  C   UNL     1       5.537   6.058  16.144  0.00  0.00    +0.000 C 
BRANCH  26  27
ATOM     27  C   UNL     1       6.055   7.121  17.147  0.00  0.00    +0.000 C 
BRANCH  27  28
ATOM     28  C   UNL     1       7.546   6.933  17.466  0.00  0.00    +0.000 C 
ATOM     29  C   UNL     1       7.735   6.177  18.783  0.00  0.00    +0.000 C 
ENDBRANCH  27  28
ENDBRANCH  26  27
ENDBRANCH  21  26
ENDBRANCH  20  21
ENDBRANCH  19  20
ENDBRANCH  18  19
ENDBRANCH  17  18
ENDBRANCH   1  17
TORSDOF 12
ENDMDL
MODEL 9
REMARK VINA RESULT:      -6.6      0.916      3.126
REMARK  Name = 
REMARK  14 active torsions:
REMARK  status: ('A' for Active; 'I' for Inactive)
REMARK    1  A    between atoms: C_1  and  C_2
REMARK    2  A    between atoms: C_2  and  C_3
REMARK    3  A    between atoms: C_3  and  C_4
REMARK    4  A    between atoms: C_4  and  N_5
REMARK    5  A    between atoms: N_5  and  C_6
REMARK    6  A    between atoms: N_5  and  C_10
REMARK    7  A    between atoms: C_6  and  C_7
REMARK    8  A    between atoms: C_7  and  C_8
REMARK    9  A    between atoms: C_8  and  C_9
REMARK   10  A    between atoms: C_10  and  C_11
REMARK   11  A    between atoms: C_11  and  C_12
REMARK   12  A    between atoms: C_12  and  O_13
REMARK   13  A    between atoms: O_13  and  C_14
REMARK   14  A    between atoms: C_17  and  C_18
REMARK                            x       y       z     vdW  Elec       q    Type
REMARK                         _______ _______ _______ _____ _____    ______ ____
ROOT
ATOM      1  C   UNL     1       7.002   5.934  17.783  0.00  0.00    +0.000 A 
ATOM      2  C   UNL     1       7.912   6.059  18.851  0.00  0.00    +0.000 A 
ATOM      3  C   UNL     1       8.515   7.286  19.118  0.00  0.00    +0.000 A 
ATOM      4  C   UNL     1       8.225   8.416  18.335  0.00  0.00    +0.000 A 
ATOM      5  C   UNL     1       7.317   8.287  17.268  0.00  0.00    +0.000 A 
ATOM      6  C   UNL     1       6.714   7.053  16.996  0.00  0.00    +0.000 A 
ENDROOT
BRANCH   4   7
ATOM      7  C   UNL     1       8.863   9.710  18.667  0.00  0.00    +0.000 A 
ATOM      8  N   UNL     1       8.936  10.741  17.784  0.00  0.00    +0.000 NA
ATOM      9  C   UNL     1       9.608  11.694  18.450  0.00  0.00    +0.000 A 
ATOM     10  C   UNL     1       9.969  12.958  17.997  0.00  0.00    +0.000 A 
ATOM     11  C   UNL     1      10.698  13.780  18.877  0.00  0.00    +0.000 A 
ATOM     12  C   UNL     1      11.040  13.318  20.169  0.00  0.00    +0.000 A 
ATOM     13  C   UNL     1      10.651  12.032  20.596  0.00  0.00    +0.000 A 
ATOM     14  C   UNL     1       9.931  11.249  19.695  0.00  0.00    +0.000 A 
ATOM     15  N   UNL     1       9.460  10.005  19.856  0.00  0.00    +0.000 N 
ATOM     16  H   UNL     1       9.566   9.402  20.701  0.00  0.00    +0.000 HD
ENDBRANCH   4   7
BRANCH   1  17
ATOM     17  O   UNL     1       6.386   4.758  17.490  0.00  0.00    +0.000 OA
BRANCH  17  18
ATOM     18  C   UNL     1       5.493   4.109  18.320  0.00  0.00    +0.000 C 
BRANCH  18  19
ATOM     19  C   UNL     1       5.102   5.022  19.479  0.00  0.00    +0.000 C 
BRANCH  19  20
ATOM     20  C   UNL     1       3.571   5.141  19.598  0.00  0.00    +0.000 C 
BRANCH  20  21
ATOM     21  N   UNL     1       2.912   5.804  18.434  0.00  0.00    +0.000 NA
BRANCH  21  22
ATOM     22  C   UNL     1       1.734   4.988  18.010  0.00  0.00    +0.000 C 
BRANCH  22  23
ATOM     23  C   UNL     1       2.009   3.490  17.775  0.00  0.00    +0.000 C 
BRANCH  23  25
ATOM     24  C   UNL     1       0.686   3.160  19.954  0.00  0.00    +0.000 C 
ATOM     25  C   UNL     1       1.216   2.522  18.669  0.00  0.00    +0.000 C 
ENDBRANCH  23  25
ENDBRANCH  22  23
ENDBRANCH  21  22
BRANCH  21  26
ATOM     26  C   UNL     1       2.512   7.198  18.794  0.00  0.00    +0.000 C 
BRANCH  26  27
ATOM     27  C   UNL     1       2.385   8.150  17.576  0.00  0.00    +0.000 C 
BRANCH  27  28
ATOM     28  C   UNL     1       2.017   9.580  17.999  0.00  0.00    +0.000 C 
ATOM     29  C   UNL     1       0.500   9.751  18.102  0.00  0.00    +0.000 C 
ENDBRANCH  27  28
ENDBRANCH  26  27
ENDBRANCH  21  26
ENDBRANCH  20  21
ENDBRANCH  19  20
ENDBRANCH  18  19
ENDBRANCH  17  18
ENDBRANCH   1  17
TORSDOF 12
ENDMDL
