MODEL 1
REMARK VINA RESULT:      -7.7      0.000      0.000
REMARK  Name = 
REMARK  6 active torsions:
REMARK  status: ('A' for Active; 'I' for Inactive)
REMARK    1  A    between atoms: C_2  and  C_3
REMARK    2  A    between atoms: C_6  and  C_7
REMARK    3  A    between atoms: C_7  and  C_8
REMARK    4  A    between atoms: C_8  and  C_9
REMARK    5  A    between atoms: C_8  and  N_11
REMARK    6  A    between atoms: C_12  and  C_14
REMARK                            x       y       z     vdW  Elec       q    Type
REMARK                         _______ _______ _______ _____ _____    ______ ____
ROOT
ATOM      1  C   UNL     1       6.793   5.648  18.306  0.00  0.00    +0.000 C 
ENDROOT
BRANCH   1   2
ATOM      2  N   UNL     1       5.336   5.452  18.388  0.00  0.00    +0.000 N 
ATOM      3  C   UNL     1       4.805   4.408  19.109  0.00  0.00    +0.000 C 
ATOM      4  O   UNL     1       5.524   3.569  19.666  0.00  0.00    +0.000 OA
ATOM      5  H   UNL     1       4.708   6.201  18.091  0.00  0.00    +0.000 HD
BRANCH   3   6
ATOM      6  C   UNL     1       3.265   4.337  19.142  0.00  0.00    +0.000 C 
ATOM      7  N   UNL     1       2.804   3.038  18.557  0.00  0.00    +0.000 NA
ATOM      8  C   UNL     1       2.023   2.402  19.650  0.00  0.00    +0.000 C 
ATOM      9  C   UNL     1       0.702   3.168  19.822  0.00  0.00    +0.000 C 
ATOM     10  C   UNL     1       1.156   4.479  20.481  0.00  0.00    +0.000 C 
ATOM     11  C   UNL     1       2.685   4.297  20.569  0.00  0.00    +0.000 C 
ATOM     12  C   UNL     1       2.792   2.812  20.897  0.00  0.00    +0.000 C 
ATOM     13  H   UNL     1       3.625   2.451  18.391  0.00  0.00    +0.000 HD
ENDBRANCH   3   6
ENDBRANCH   1   2
BRANCH   1  14
ATOM     14  C   UNL     1       7.119   7.018  17.735  0.00  0.00    +0.000 C 
ATOM     15  N   UNL     1       7.389   8.155  17.260  0.00  0.00    +0.000 NA
ENDBRANCH   1  14
BRANCH   1  16
ATOM     16  C   UNL     1       7.510   4.570  17.478  0.00  0.00    +0.000 C 
BRANCH  16  20
ATOM     17  C   UNL     1       6.119   4.006  13.401  0.00  0.00    +0.000 A 
ATOM     18  C   UNL     1       7.227   4.815  13.680  0.00  0.00    +0.000 A 
ATOM     19  C   UNL     1       7.668   5.007  14.993  0.00  0.00    +0.000 A 
ATOM     20  C   UNL     1       6.988   4.411  16.061  0.00  0.00    +0.000 A 
ATOM     21  C   UNL     1       5.840   3.654  15.785  0.00  0.00    +0.000 A 
ATOM     22  C   UNL     1       5.423   3.435  14.469  0.00  0.00    +0.000 A 
BRANCH  17  24
ATOM     23  C   UNL     1       4.465   3.239  11.745  0.00  0.00    +0.000 C 
ATOM     24  C   UNL     1       5.663   3.763  12.030  0.00  0.00    +0.000 C 
ENDBRANCH  17  24
ENDBRANCH  16  20
ENDBRANCH   1  16
TORSDOF 6
ENDMDL
MODEL 2
REMARK VINA RESULT:      -7.5      1.201      1.714
REMARK  Name = 
REMARK  6 active torsions:
REMARK  status: ('A' for Active; 'I' for Inactive)
REMARK    1  A    between atoms: C_2  and  C_3
REMARK    2  A    between atoms: C_6  and  C_7
REMARK    3  A    between atoms: C_7  and  C_8
REMARK    4  A    between atoms: C_8  and  C_9
REMARK    5  A    between atoms: C_8  and  N_11
REMARK    6  A    between atoms: C_12  and  C_14
REMARK                            x       y       z     vdW  Elec       q    Type
REMARK                         _______ _______ _______ _____ _____    ______ ____
ROOT
ATOM      1  C   UNL     1       6.557   4.831  17.985  0.00  0.00    +0.000 C 
ENDROOT
BRANCH   1   2
ATOM      2  N   UNL     1       5.175   4.876  18.491  0.00  0.00    +0.000 N 
ATOM      3  C   UNL     1       4.689   3.874  19.300  0.00  0.00    +0.000 C 
ATOM      4  O   UNL     1       5.368   2.882  19.587  0.00  0.00    +0.000 OA
ATOM      5  H   UNL     1       4.639   5.742  18.421  0.00  0.00    +0.000 HD
BRANCH   3   6
ATOM      6  C   UNL     1       3.238   4.060  19.788  0.00  0.00    +0.000 C 
ATOM      7  N   UNL     1       2.347   4.369  18.624  0.00  0.00    +0.000 NA
ATOM      8  C   UNL     1       1.330   3.284  18.644  0.00  0.00    +0.000 C 
ATOM      9  C   UNL     1       0.393   3.509  19.840  0.00  0.00    +0.000 C 
ATOM     10  C   UNL     1       1.278   3.132  21.037  0.00  0.00    +0.000 C 
ATOM     11  C   UNL     1       2.617   2.772  20.363  0.00  0.00    +0.000 C 
ATOM     12  C   UNL     1       2.136   2.075  19.094  0.00  0.00    +0.000 C 
ATOM     13  H   UNL     1       2.890   4.259  17.765  0.00  0.00    +0.000 HD
ENDBRANCH   3   6
ENDBRANCH   1   2
BRANCH   1  14
ATOM     14  C   UNL     1       7.536   5.278  19.059  0.00  0.00    +0.000 C 
ATOM     15  N   UNL     1       8.347   5.647  19.950  0.00  0.00    +0.000 NA
ENDBRANCH   1  14
BRANCH   1  16
ATOM     16  C   UNL     1       6.773   5.676  16.720  0.00  0.00    +0.000 C 
BRANCH  16  20
ATOM     17  C   UNL     1       5.770   3.742  12.962  0.00  0.00    +0.000 A 
ATOM     18  C   UNL     1       4.935   3.625  14.079  0.00  0.00    +0.000 A 
ATOM     19  C   UNL     1       5.262   4.236  15.292  0.00  0.00    +0.000 A 
ATOM     20  C   UNL     1       6.454   4.960  15.420  0.00  0.00    +0.000 A 
ATOM     21  C   UNL     1       7.321   5.021  14.318  0.00  0.00    +0.000 A 
ATOM     22  C   UNL     1       6.974   4.438  13.097  0.00  0.00    +0.000 A 
BRANCH  17  24
ATOM     23  C   UNL     1       4.177   3.109  11.193  0.00  0.00    +0.000 C 
ATOM     24  C   UNL     1       5.426   3.138  11.671  0.00  0.00    +0.000 C 
ENDBRANCH  17  24
ENDBRANCH  16  20
ENDBRANCH   1  16
TORSDOF 6
ENDMDL
MODEL 3
REMARK VINA RESULT:      -7.5      1.319      1.684
REMARK  Name = 
REMARK  6 active torsions:
REMARK  status: ('A' for Active; 'I' for Inactive)
REMARK    1  A    between atoms: C_2  and  C_3
REMARK    2  A    between atoms: C_6  and  C_7
REMARK    3  A    between atoms: C_7  and  C_8
REMARK    4  A    between atoms: C_8  and  C_9
REMARK    5  A    between atoms: C_8  and  N_11
REMARK    6  A    between atoms: C_12  and  C_14
REMARK                            x       y       z     vdW  Elec       q    Type
REMARK                         _______ _______ _______ _____ _____    ______ ____
ROOT
ATOM      1  C   UNL     1       5.824   5.308  16.955  0.00  0.00    +0.000 C 
ENDROOT
BRANCH   1   2
ATOM      2  N   UNL     1       4.660   5.138  17.841  0.00  0.00    +0.000 N 
ATOM      3  C   UNL     1       4.744   4.361  18.973  0.00  0.00    +0.000 C 
ATOM      4  O   UNL     1       5.773   3.738  19.260  0.00  0.00    +0.000 OA
ATOM      5  H   UNL     1       3.853   5.755  17.739  0.00  0.00    +0.000 HD
BRANCH   3   6
ATOM      6  C   UNL     1       3.463   4.294  19.830  0.00  0.00    +0.000 C 
ATOM      7  N   UNL     1       2.271   4.623  18.986  0.00  0.00    +0.000 NA
ATOM      8  C   UNL     1       1.404   3.420  19.094  0.00  0.00    +0.000 C 
ATOM      9  C   UNL     1       0.800   3.373  20.506  0.00  0.00    +0.000 C 
ATOM     10  C   UNL     1       2.003   2.972  21.373  0.00  0.00    +0.000 C 
ATOM     11  C   UNL     1       3.143   2.875  20.340  0.00  0.00    +0.000 C 
ATOM     12  C   UNL     1       2.411   2.281  19.141  0.00  0.00    +0.000 C 
ATOM     13  H   UNL     1       2.574   4.690  18.013  0.00  0.00    +0.000 HD
ENDBRANCH   3   6
ENDBRANCH   1   2
BRANCH   1  14
ATOM     14  C   UNL     1       6.885   6.167  17.624  0.00  0.00    +0.000 C 
ATOM     15  N   UNL     1       7.765   6.880  18.178  0.00  0.00    +0.000 NA
ENDBRANCH   1  14
BRANCH   1  16
ATOM     16  C   UNL     1       5.470   5.913  15.588  0.00  0.00    +0.000 C 
BRANCH  16  20
ATOM     17  C   UNL     1       6.705   3.387  12.277  0.00  0.00    +0.000 A 
ATOM     18  C   UNL     1       7.556   4.374  12.787  0.00  0.00    +0.000 A 
ATOM     19  C   UNL     1       7.155   5.197  13.844  0.00  0.00    +0.000 A 
ATOM     20  C   UNL     1       5.876   5.063  14.397  0.00  0.00    +0.000 A 
ATOM     21  C   UNL     1       5.002   4.117  13.842  0.00  0.00    +0.000 A 
ATOM     22  C   UNL     1       5.418   3.274  12.808  0.00  0.00    +0.000 A 
BRANCH  17  24
ATOM     23  C   UNL     1       6.616   1.262  11.034  0.00  0.00    +0.000 C 
ATOM     24  C   UNL     1       7.120   2.492  11.193  0.00  0.00    +0.000 C 
ENDBRANCH  17  24
ENDBRANCH  16  20
ENDBRANCH   1  16
TORSDOF 6
ENDMDL
MODEL 4
REMARK VINA RESULT:      -7.5      1.290      1.898
REMARK  Name = 
REMARK  6 active torsions:
REMARK  status: ('A' for Active; 'I' for Inactive)
REMARK    1  A    between atoms: C_2  and  C_3
REMARK    2  A    between atoms: C_6  and  C_7
REMARK    3  A    between atoms: C_7  and  C_8
REMARK    4  A    between atoms: C_8  and  C_9
REMARK    5  A    between atoms: C_8  and  N_11
REMARK    6  A    between atoms: C_12  and  C_14
REMARK                            x       y       z     vdW  Elec       q    Type
REMARK                         _______ _______ _______ _____ _____    ______ ____
ROOT
ATOM      1  C   UNL     1       5.952   5.518  17.043  0.00  0.00    +0.000 C 
ENDROOT
BRANCH   1   2
ATOM      2  N   UNL     1       4.776   5.345  17.913  0.00  0.00    +0.000 N 
ATOM      3  C   UNL     1       4.826   4.515  19.009  0.00  0.00    +0.000 C 
ATOM      4  O   UNL     1       5.832   3.846  19.273  0.00  0.00    +0.000 OA
ATOM      5  H   UNL     1       3.990   5.993  17.834  0.00  0.00    +0.000 HD
BRANCH   3   6
ATOM      6  C   UNL     1       3.538   4.451  19.854  0.00  0.00    +0.000 C 
ATOM      7  N   UNL     1       2.358   4.823  19.010  0.00  0.00    +0.000 NA
ATOM      8  C   UNL     1       1.469   3.634  19.082  0.00  0.00    +0.000 C 
ATOM      9  C   UNL     1       0.853   3.564  20.488  0.00  0.00    +0.000 C 
ATOM     10  C   UNL     1       2.041   3.121  21.354  0.00  0.00    +0.000 C 
ATOM     11  C   UNL     1       3.188   3.027  20.327  0.00  0.00    +0.000 C 
ATOM     12  C   UNL     1       2.455   2.475  19.108  0.00  0.00    +0.000 C 
ATOM     13  H   UNL     1       2.671   4.908  18.040  0.00  0.00    +0.000 HD
ENDBRANCH   3   6
ENDBRANCH   1   2
BRANCH   1  14
ATOM     14  C   UNL     1       6.960   6.458  17.684  0.00  0.00    +0.000 C 
ATOM     15  N   UNL     1       7.797   7.236  18.215  0.00  0.00    +0.000 NA
ENDBRANCH   1  14
BRANCH   1  16
ATOM     16  C   UNL     1       5.603   6.031  15.636  0.00  0.00    +0.000 C 
BRANCH  16  20
ATOM     17  C   UNL     1       6.646   3.439  12.310  0.00  0.00    +0.000 A 
ATOM     18  C   UNL     1       5.413   3.317  12.961  0.00  0.00    +0.000 A 
ATOM     19  C   UNL     1       5.081   4.141  14.040  0.00  0.00    +0.000 A 
ATOM     20  C   UNL     1       5.994   5.094  14.508  0.00  0.00    +0.000 A 
ATOM     21  C   UNL     1       7.254   5.171  13.895  0.00  0.00    +0.000 A 
ATOM     22  C   UNL     1       7.569   4.368  12.796  0.00  0.00    +0.000 A 
BRANCH  17  24
ATOM     23  C   UNL     1       6.620   1.330  11.038  0.00  0.00    +0.000 C 
ATOM     24  C   UNL     1       6.998   2.608  11.155  0.00  0.00    +0.000 C 
ENDBRANCH  17  24
ENDBRANCH  16  20
ENDBRANCH   1  16
TORSDOF 6
ENDMDL
MODEL 5
REMARK VINA RESULT:      -7.5      1.456      2.084
REMARK  Name = 
REMARK  6 active torsions:
REMARK  status: ('A' for Active; 'I' for Inactive)
REMARK    1  A    between atoms: C_2  and  C_3
REMARK    2  A    between atoms: C_6  and  C_7
REMARK    3  A    between atoms: C_7  and  C_8
REMARK    4  A    between atoms: C_8  and  C_9
REMARK    5  A    between atoms: C_8  and  N_11
REMARK    6  A    between atoms: C_12  and  C_14
REMARK                            x       y       z     vdW  Elec       q    Type
REMARK                         _______ _______ _______ _____ _____    ______ ____
ROOT
ATOM      1  C   UNL     1       7.191   4.644  17.774  0.00  0.00    +0.000 C 
ENDROOT
BRANCH   1   2
ATOM      2  N   UNL     1       6.018   3.884  18.239  0.00  0.00    +0.000 N 
ATOM      3  C   UNL     1       4.958   4.523  18.839  0.00  0.00    +0.000 C 
ATOM      4  O   UNL     1       4.971   5.740  19.059  0.00  0.00    +0.000 OA
ATOM      5  H   UNL     1       5.889   2.918  17.934  0.00  0.00    +0.000 HD
BRANCH   3   6
ATOM      6  C   UNL     1       3.780   3.616  19.248  0.00  0.00    +0.000 C 
ATOM      7  N   UNL     1       2.786   4.403  20.045  0.00  0.00    +0.000 NA
ATOM      8  C   UNL     1       1.521   4.283  19.272  0.00  0.00    +0.000 C 
ATOM      9  C   UNL     1       0.990   2.848  19.416  0.00  0.00    +0.000 C 
ATOM     10  C   UNL     1       1.967   2.039  18.549  0.00  0.00    +0.000 C 
ATOM     11  C   UNL     1       2.946   3.121  18.050  0.00  0.00    +0.000 C 
ATOM     12  C   UNL     1       2.004   4.300  17.829  0.00  0.00    +0.000 C 
ATOM     13  H   UNL     1       3.062   5.387  20.021  0.00  0.00    +0.000 HD
ENDBRANCH   3   6
ENDBRANCH   1   2
BRANCH   1  14
ATOM     14  C   UNL     1       7.806   5.434  18.918  0.00  0.00    +0.000 C 
ATOM     15  N   UNL     1       8.316   6.090  19.866  0.00  0.00    +0.000 NA
ENDBRANCH   1  14
BRANCH   1  16
ATOM     16  C   UNL     1       6.881   5.597  16.609  0.00  0.00    +0.000 C 
BRANCH  16  20
ATOM     17  C   UNL     1       5.709   3.745  12.859  0.00  0.00    +0.000 A 
ATOM     18  C   UNL     1       4.846   3.751  13.961  0.00  0.00    +0.000 A 
ATOM     19  C   UNL     1       5.227   4.335  15.172  0.00  0.00    +0.000 A 
ATOM     20  C   UNL     1       6.498   4.906  15.313  0.00  0.00    +0.000 A 
ATOM     21  C   UNL     1       7.384   4.841  14.227  0.00  0.00    +0.000 A 
ATOM     22  C   UNL     1       6.988   4.287  13.008  0.00  0.00    +0.000 A 
BRANCH  17  24
ATOM     23  C   UNL     1       4.042   3.111  11.159  0.00  0.00    +0.000 C 
ATOM     24  C   UNL     1       5.315   3.169  11.570  0.00  0.00    +0.000 C 
ENDBRANCH  17  24
ENDBRANCH  16  20
ENDBRANCH   1  16
TORSDOF 6
ENDMDL
MODEL 6
REMARK VINA RESULT:      -7.4      1.271      1.484
REMARK  Name = 
REMARK  6 active torsions:
REMARK  status: ('A' for Active; 'I' for Inactive)
REMARK    1  A    between atoms: C_2  and  C_3
REMARK    2  A    between atoms: C_6  and  C_7
REMARK    3  A    between atoms: C_7  and  C_8
REMARK    4  A    between atoms: C_8  and  C_9
REMARK    5  A    between atoms: C_8  and  N_11
REMARK    6  A    between atoms: C_12  and  C_14
REMARK                            x       y       z     vdW  Elec       q    Type
REMARK                         _______ _______ _______ _____ _____    ______ ____
ROOT
ATOM      1  C   UNL     1       6.409   4.910  17.887  0.00  0.00    +0.000 C 
ENDROOT
BRANCH   1   2
ATOM      2  N   UNL     1       5.044   4.899  18.440  0.00  0.00    +0.000 N 
ATOM      3  C   UNL     1       4.635   3.894  19.286  0.00  0.00    +0.000 C 
ATOM      4  O   UNL     1       5.371   2.942  19.569  0.00  0.00    +0.000 OA
ATOM      5  H   UNL     1       4.465   5.737  18.370  0.00  0.00    +0.000 HD
BRANCH   3   6
ATOM      6  C   UNL     1       3.193   4.020  19.819  0.00  0.00    +0.000 C 
ATOM      7  N   UNL     1       2.267   4.378  18.698  0.00  0.00    +0.000 NA
ATOM      8  C   UNL     1       1.273   3.272  18.679  0.00  0.00    +0.000 C 
ATOM      9  C   UNL     1       0.362   3.408  19.909  0.00  0.00    +0.000 C 
ATOM     10  C   UNL     1       1.285   2.981  21.060  0.00  0.00    +0.000 C 
ATOM     11  C   UNL     1       2.613   2.688  20.333  0.00  0.00    +0.000 C 
ATOM     12  C   UNL     1       2.114   2.056  19.038  0.00  0.00    +0.000 C 
ATOM     13  H   UNL     1       2.790   4.329  17.821  0.00  0.00    +0.000 HD
ENDBRANCH   3   6
ENDBRANCH   1   2
BRANCH   1  14
ATOM     14  C   UNL     1       7.419   5.289  18.959  0.00  0.00    +0.000 C 
ATOM     15  N   UNL     1       8.256   5.604  19.848  0.00  0.00    +0.000 NA
ENDBRANCH   1  14
BRANCH   1  16
ATOM     16  C   UNL     1       6.575   5.849  16.682  0.00  0.00    +0.000 C 
BRANCH  16  20
ATOM     17  C   UNL     1       6.287   3.790  12.867  0.00  0.00    +0.000 A 
ATOM     18  C   UNL     1       7.382   4.609  13.164  0.00  0.00    +0.000 A 
ATOM     19  C   UNL     1       7.470   5.283  14.386  0.00  0.00    +0.000 A 
ATOM     20  C   UNL     1       6.443   5.169  15.331  0.00  0.00    +0.000 A 
ATOM     21  C   UNL     1       5.316   4.399  15.004  0.00  0.00    +0.000 A 
ATOM     22  C   UNL     1       5.248   3.701  13.797  0.00  0.00    +0.000 A 
BRANCH  17  24
ATOM     23  C   UNL     1       5.917   1.740  11.553  0.00  0.00    +0.000 C 
ATOM     24  C   UNL     1       6.194   3.049  11.607  0.00  0.00    +0.000 C 
ENDBRANCH  17  24
ENDBRANCH  16  20
ENDBRANCH   1  16
TORSDOF 6
ENDMDL
MODEL 7
REMARK VINA RESULT:      -7.3      0.637      1.293
REMARK  Name = 
REMARK  6 active torsions:
REMARK  status: ('A' for Active; 'I' for Inactive)
REMARK    1  A    between atoms: C_2  and  C_3
REMARK    2  A    between atoms: C_6  and  C_7
REMARK    3  A    between atoms: C_7  and  C_8
REMARK    4  A    between atoms: C_8  and  C_9
REMARK    5  A    between atoms: C_8  and  N_11
REMARK    6  A    between atoms: C_12  and  C_14
REMARK                            x       y       z     vdW  Elec       q    Type
REMARK                         _______ _______ _______ _____ _____    ______ ____
ROOT
ATOM      1  C   UNL     1       6.801   5.686  18.298  0.00  0.00    +0.000 C 
ENDROOT
BRANCH   1   2
ATOM      2  N   UNL     1       5.345   5.471  18.371  0.00  0.00    +0.000 N 
ATOM      3  C   UNL     1       4.821   4.459  19.142  0.00  0.00    +0.000 C 
ATOM      4  O   UNL     1       5.545   3.666  19.755  0.00  0.00    +0.000 OA
ATOM      5  H   UNL     1       4.711   6.191  18.024  0.00  0.00    +0.000 HD
BRANCH   3   6
ATOM      6  C   UNL     1       3.282   4.365  19.157  0.00  0.00    +0.000 C 
ATOM      7  N   UNL     1       2.779   4.063  17.779  0.00  0.00    +0.000 NA
ATOM      8  C   UNL     1       2.024   2.791  17.937  0.00  0.00    +0.000 C 
ATOM      9  C   UNL     1       0.724   3.082  18.702  0.00  0.00    +0.000 C 
ATOM     10  C   UNL     1       1.223   3.331  20.133  0.00  0.00    +0.000 C 
ATOM     11  C   UNL     1       2.750   3.180  19.986  0.00  0.00    +0.000 C 
ATOM     12  C   UNL     1       2.843   2.040  18.977  0.00  0.00    +0.000 C 
ATOM     13  H   UNL     1       3.583   3.864  17.180  0.00  0.00    +0.000 HD
ENDBRANCH   3   6
ENDBRANCH   1   2
BRANCH   1  14
ATOM     14  C   UNL     1       7.113   7.046  17.695  0.00  0.00    +0.000 C 
ATOM     15  N   UNL     1       7.371   8.175  17.196  0.00  0.00    +0.000 NA
ENDBRANCH   1  14
BRANCH   1  16
ATOM     16  C   UNL     1       7.542   4.598  17.505  0.00  0.00    +0.000 C 
BRANCH  16  20
ATOM     17  C   UNL     1       5.976   4.112  13.482  0.00  0.00    +0.000 A 
ATOM     18  C   UNL     1       5.384   3.460  14.571  0.00  0.00    +0.000 A 
ATOM     19  C   UNL     1       5.894   3.606  15.864  0.00  0.00    +0.000 A 
ATOM     20  C   UNL     1       7.031   4.390  16.091  0.00  0.00    +0.000 A 
ATOM     21  C   UNL     1       7.661   4.990  14.989  0.00  0.00    +0.000 A 
ATOM     22  C   UNL     1       7.128   4.871  13.704  0.00  0.00    +0.000 A 
BRANCH  17  24
ATOM     23  C   UNL     1       4.615   3.012  11.749  0.00  0.00    +0.000 C 
ATOM     24  C   UNL     1       5.435   4.001  12.125  0.00  0.00    +0.000 C 
ENDBRANCH  17  24
ENDBRANCH  16  20
ENDBRANCH   1  16
TORSDOF 6
ENDMDL
MODEL 8
REMARK VINA RESULT:      -7.3      3.993      5.628
REMARK  Name = 
REMARK  6 active torsions:
REMARK  status: ('A' for Active; 'I' for Inactive)
REMARK    1  A    between atoms: C_2  and  C_3
REMARK    2  A    between atoms: C_6  and  C_7
REMARK    3  A    between atoms: C_7  and  C_8
REMARK    4  A    between atoms: C_8  and  C_9
REMARK    5  A    between atoms: C_8  and  N_11
REMARK    6  A    between atoms: C_12  and  C_14
REMARK                            x       y       z     vdW  Elec       q    Type
REMARK                         _______ _______ _______ _____ _____    ______ ____
ROOT
ATOM      1  C   UNL     1       2.279   5.676  19.713  0.00  0.00    +0.000 C 
ENDROOT
BRANCH   1   2
ATOM      2  N   UNL     1       1.837   6.659  20.717  0.00  0.00    +0.000 N 
ATOM      3  C   UNL     1       1.682   7.985  20.384  0.00  0.00    +0.000 C 
ATOM      4  O   UNL     1       1.957   8.409  19.256  0.00  0.00    +0.000 OA
ATOM      5  H   UNL     1       1.443   6.335  21.602  0.00  0.00    +0.000 HD
BRANCH   3   6
ATOM      6  C   UNL     1       1.182   8.901  21.519  0.00  0.00    +0.000 C 
ATOM      7  N   UNL     1       1.372  10.336  21.134  0.00  0.00    +0.000 NA
ATOM      8  C   UNL     1       0.004  10.914  21.195  0.00  0.00    +0.000 C 
ATOM      9  C   UNL     1      -0.419  11.026  22.668  0.00  0.00    +0.000 C 
ATOM     10  C   UNL     1      -0.678   9.563  23.057  0.00  0.00    +0.000 C 
ATOM     11  C   UNL     1      -0.337   8.806  21.757  0.00  0.00    +0.000 C 
ATOM     12  C   UNL     1      -0.869   9.770  20.701  0.00  0.00    +0.000 C 
ATOM     13  H   UNL     1       1.671  10.370  20.157  0.00  0.00    +0.000 HD
ENDBRANCH   3   6
ENDBRANCH   1   2
BRANCH   1  14
ATOM     14  C   UNL     1       1.567   4.348  19.913  0.00  0.00    +0.000 C 
ATOM     15  N   UNL     1       0.977   3.246  20.079  0.00  0.00    +0.000 NA
ENDBRANCH   1  14
BRANCH   1  16
ATOM     16  C   UNL     1       3.798   5.442  19.712  0.00  0.00    +0.000 C 
BRANCH  16  20
ATOM     17  C   UNL     1       5.434   5.093  15.703  0.00  0.00    +0.000 A 
ATOM     18  C   UNL     1       5.196   3.958  16.487  0.00  0.00    +0.000 A 
ATOM     19  C   UNL     1       4.681   4.069  17.782  0.00  0.00    +0.000 A 
ATOM     20  C   UNL     1       4.418   5.329  18.331  0.00  0.00    +0.000 A 
ATOM     21  C   UNL     1       4.718   6.468  17.568  0.00  0.00    +0.000 A 
ATOM     22  C   UNL     1       5.200   6.351  16.262  0.00  0.00    +0.000 A 
BRANCH  17  24
ATOM     23  C   UNL     1       6.148   3.825  13.716  0.00  0.00    +0.000 C 
ATOM     24  C   UNL     1       5.939   4.995  14.331  0.00  0.00    +0.000 C 
ENDBRANCH  17  24
ENDBRANCH  16  20
ENDBRANCH   1  16
TORSDOF 6
ENDMDL
MODEL 9
REMARK VINA RESULT:      -7.3      1.511      1.995
REMARK  Name = 
REMARK  6 active torsions:
REMARK  status: ('A' for Active; 'I' for Inactive)
REMARK    1  A    between atoms: C_2  and  C_3
REMARK    2  A    between atoms: C_6  and  C_7
REMARK    3  A    between atoms: C_7  and  C_8
REMARK    4  A    between atoms: C_8  and  C_9
REMARK    5  A    between atoms: C_8  and  N_11
REMARK    6  A    between atoms: C_12  and  C_14
REMARK                            x       y       z     vdW  Elec       q    Type
REMARK                         _______ _______ _______ _____ _____    ______ ____
ROOT
ATOM      1  C   UNL     1       6.155   5.610  16.807  0.00  0.00    +0.000 C 
ENDROOT
BRANCH   1   2
ATOM      2  N   UNL     1       5.272   5.257  17.932  0.00  0.00    +0.000 N 
ATOM      3  C   UNL     1       4.665   4.023  17.991  0.00  0.00    +0.000 C 
ATOM      4  O   UNL     1       4.793   3.191  17.085  0.00  0.00    +0.000 OA
ATOM      5  H   UNL     1       5.269   5.836  18.772  0.00  0.00    +0.000 HD
BRANCH   3   6
ATOM      6  C   UNL     1       3.794   3.771  19.238  0.00  0.00    +0.000 C 
ATOM      7  N   UNL     1       3.293   5.074  19.779  0.00  0.00    +0.000 NA
ATOM      8  C   UNL     1       1.813   4.938  19.747  0.00  0.00    +0.000 C 
ATOM      9  C   UNL     1       1.385   3.946  20.839  0.00  0.00    +0.000 C 
ATOM     10  C   UNL     1       1.838   2.595  20.264  0.00  0.00    +0.000 C 
ATOM     11  C   UNL     1       2.494   3.003  18.929  0.00  0.00    +0.000 C 
ATOM     12  C   UNL     1       1.575   4.134  18.476  0.00  0.00    +0.000 C 
ATOM     13  H   UNL     1       3.543   5.814  19.120  0.00  0.00    +0.000 HD
ENDBRANCH   3   6
ENDBRANCH   1   2
BRANCH   1  14
ATOM     14  C   UNL     1       7.021   6.808  17.160  0.00  0.00    +0.000 C 
ATOM     15  N   UNL     1       7.739   7.802  17.452  0.00  0.00    +0.000 NA
ENDBRANCH   1  14
BRANCH   1  16
ATOM     16  C   UNL     1       5.398   5.899  15.501  0.00  0.00    +0.000 C 
BRANCH  16  20
ATOM     17  C   UNL     1       6.691   3.360  12.221  0.00  0.00    +0.000 A 
ATOM     18  C   UNL     1       7.553   4.311  12.782  0.00  0.00    +0.000 A 
ATOM     19  C   UNL     1       7.134   5.137  13.828  0.00  0.00    +0.000 A 
ATOM     20  C   UNL     1       5.827   5.046  14.321  0.00  0.00    +0.000 A 
ATOM     21  C   UNL     1       4.945   4.138  13.715  0.00  0.00    +0.000 A 
ATOM     22  C   UNL     1       5.377   3.290  12.692  0.00  0.00    +0.000 A 
BRANCH  17  24
ATOM     23  C   UNL     1       6.693   1.198  11.042  0.00  0.00    +0.000 C 
ATOM     24  C   UNL     1       7.122   2.461  11.148  0.00  0.00    +0.000 C 
ENDBRANCH  17  24
ENDBRANCH  16  20
ENDBRANCH   1  16
TORSDOF 6
ENDMDL
