MODEL 1
REMARK VINA RESULT:      -8.5      0.000      0.000
REMARK  Name = 
REMARK  7 active torsions:
REMARK  status: ('A' for Active; 'I' for Inactive)
REMARK    1  A    between atoms: C_1  and  C_2
REMARK    2  A    between atoms: C_6  and  C_7
REMARK    3  A    between atoms: C_10  and  C_11
REMARK    4  A    between atoms: N_13  and  C_14
REMARK    5  A    between atoms: N_17  and  C_18
REMARK    6  A    between atoms: C_18  and  C_19
REMARK    7  A    between atoms: C_31  and  C_32
REMARK                            x       y       z     vdW  Elec       q    Type
REMARK                         _______ _______ _______ _____ _____    ______ ____
ROOT
ATOM      1  C   UNL     1       0.629   9.113  21.374  0.00  0.00    +0.000 A 
ATOM      2  C   UNL     1      -0.109   8.823  22.499  0.00  0.00    +0.000 A 
ATOM      3  C   UNL     1      -0.751   9.986  23.042  0.00  0.00    +0.000 A 
ATOM      4  C   UNL     1      -0.480  11.130  22.312  0.00  0.00    +0.000 A 
ATOM      5  S   UNL     1       0.552  10.780  20.994  0.00  0.00    +0.000 S 
ENDROOT
BRANCH   1  11
ATOM      6  C   UNL     1       4.786   5.559  16.488  0.00  0.00    +0.000 C 
ATOM      7  C   UNL     1       3.946   5.817  17.709  0.00  0.00    +0.000 A 
ATOM      8  C   UNL     1       3.311   7.073  17.839  0.00  0.00    +0.000 A 
ATOM      9  C   UNL     1       2.558   7.342  18.988  0.00  0.00    +0.000 A 
ATOM     10  N   UNL     1       1.879   8.483  19.357  0.00  0.00    +0.000 NA
ATOM     11  C   UNL     1       1.379   8.214  20.543  0.00  0.00    +0.000 A 
ATOM     12  N   UNL     1       1.675   6.932  20.924  0.00  0.00    +0.000 N 
ATOM     13  C   UNL     1       2.445   6.357  19.957  0.00  0.00    +0.000 A 
ATOM     14  C   UNL     1       3.036   5.099  19.865  0.00  0.00    +0.000 A 
ATOM     15  C   UNL     1       3.800   4.836  18.716  0.00  0.00    +0.000 A 
ATOM     16  C   UNL     1       4.460   3.487  18.590  0.00  0.00    +0.000 C 
ATOM     17  H   UNL     1       1.397   6.505  21.797  0.00  0.00    +0.000 HD
ENDBRANCH   1  11
BRANCH   4  18
ATOM     18  C   UNL     1      -0.952  12.502  22.536  0.00  0.00    +0.000 C 
ATOM     19  O   UNL     1      -0.261  13.493  22.306  0.00  0.00    +0.000 OA
ATOM     20  N   UNL     1      -2.239  12.597  23.034  0.00  0.00    +0.000 N 
ATOM     21  H   UNL     1      -2.744  11.730  23.150  0.00  0.00    +0.000 HD
BRANCH  20  22
ATOM     22  C   UNL     1      -2.925  13.855  23.316  0.00  0.00    +0.000 C 
ATOM     23  C   UNL     1      -4.012  13.682  24.377  0.00  0.00    +0.000 C 
ATOM     24  C   UNL     1      -5.234  12.918  23.864  0.00  0.00    +0.000 C 
ATOM     25  N   UNL     1      -5.797  13.445  22.614  0.00  0.00    +0.000 NA
ATOM     26  C   UNL     1      -4.781  13.717  21.582  0.00  0.00    +0.000 C 
ATOM     27  C   UNL     1      -3.548  14.480  22.072  0.00  0.00    +0.000 C 
BRANCH  25  28
ATOM     28  C   UNL     1      -6.797  12.499  22.057  0.00  0.00    +0.000 C 
BRANCH  28  29
ATOM     29  C   UNL     1      -6.893  12.463  20.544  0.00  0.00    +0.000 A 
ATOM     30  C   UNL     1      -6.475  11.338  19.823  0.00  0.00    +0.000 A 
ATOM     31  C   UNL     1      -6.628  11.288  18.434  0.00  0.00    +0.000 A 
ATOM     32  C   UNL     1      -7.217  12.353  17.755  0.00  0.00    +0.000 A 
ATOM     33  C   UNL     1      -7.629  13.482  18.459  0.00  0.00    +0.000 A 
ATOM     34  C   UNL     1      -7.458  13.542  19.844  0.00  0.00    +0.000 A 
ENDBRANCH  28  29
ENDBRANCH  25  28
ENDBRANCH  20  22
ENDBRANCH   4  18
TORSDOF 5
ENDMDL
MODEL 2
REMARK VINA RESULT:      -8.4      3.625     12.181
REMARK  Name = 
REMARK  7 active torsions:
REMARK  status: ('A' for Active; 'I' for Inactive)
REMARK    1  A    between atoms: C_1  and  C_2
REMARK    2  A    between atoms: C_6  and  C_7
REMARK    3  A    between atoms: C_10  and  C_11
REMARK    4  A    between atoms: N_13  and  C_14
REMARK    5  A    between atoms: N_17  and  C_18
REMARK    6  A    between atoms: C_18  and  C_19
REMARK    7  A    between atoms: C_31  and  C_32
REMARK                            x       y       z     vdW  Elec       q    Type
REMARK                         _______ _______ _______ _____ _____    ______ ____
ROOT
ATOM      1  C   UNL     1       1.280   9.283  19.277  0.00  0.00    +0.000 A 
ATOM      2  C   UNL     1       1.894   9.273  18.046  0.00  0.00    +0.000 A 
ATOM      3  C   UNL     1       2.690   8.095  17.845  0.00  0.00    +0.000 A 
ATOM      4  C   UNL     1       2.658   7.243  18.935  0.00  0.00    +0.000 A 
ATOM      5  S   UNL     1       1.678   7.885  20.181  0.00  0.00    +0.000 S 
ENDROOT
BRANCH   1  11
ATOM      6  C   UNL     1      -4.039  13.984  21.120  0.00  0.00    +0.000 C 
ATOM      7  C   UNL     1      -2.771  13.179  21.204  0.00  0.00    +0.000 A 
ATOM      8  C   UNL     1      -2.381  12.414  20.081  0.00  0.00    +0.000 A 
ATOM      9  C   UNL     1      -1.225  11.628  20.158  0.00  0.00    +0.000 A 
ATOM     10  N   UNL     1      -0.661  10.785  19.225  0.00  0.00    +0.000 NA
ATOM     11  C   UNL     1       0.388  10.268  19.823  0.00  0.00    +0.000 A 
ATOM     12  N   UNL     1       0.543  10.782  21.084  0.00  0.00    +0.000 N 
ATOM     13  C   UNL     1      -0.488  11.641  21.332  0.00  0.00    +0.000 A 
ATOM     14  C   UNL     1      -0.821  12.391  22.457  0.00  0.00    +0.000 A 
ATOM     15  C   UNL     1      -1.988  13.170  22.381  0.00  0.00    +0.000 A 
ATOM     16  C   UNL     1      -2.381  13.988  23.584  0.00  0.00    +0.000 C 
ATOM     17  H   UNL     1       1.277  10.530  21.729  0.00  0.00    +0.000 HD
ENDBRANCH   1  11
BRANCH   4  18
ATOM     18  C   UNL     1       3.324   5.946  19.114  0.00  0.00    +0.000 C 
ATOM     19  O   UNL     1       2.914   5.085  19.889  0.00  0.00    +0.000 OA
ATOM     20  N   UNL     1       4.459   5.769  18.343  0.00  0.00    +0.000 N 
ATOM     21  H   UNL     1       4.693   6.515  17.704  0.00  0.00    +0.000 HD
BRANCH  20  22
ATOM     22  C   UNL     1       5.273   4.556  18.339  0.00  0.00    +0.000 C 
ATOM     23  C   UNL     1       6.747   4.864  18.075  0.00  0.00    +0.000 C 
ATOM     24  C   UNL     1       7.023   5.275  16.627  0.00  0.00    +0.000 C 
ATOM     25  N   UNL     1       6.491   4.346  15.621  0.00  0.00    +0.000 NA
ATOM     26  C   UNL     1       5.096   3.942  15.877  0.00  0.00    +0.000 C 
ATOM     27  C   UNL     1       4.796   3.527  17.319  0.00  0.00    +0.000 C 
BRANCH  25  28
ATOM     28  C   UNL     1       6.569   4.949  14.267  0.00  0.00    +0.000 C 
BRANCH  28  29
ATOM     29  C   UNL     1       6.255   4.014  13.115  0.00  0.00    +0.000 A 
ATOM     30  C   UNL     1       7.274   3.308  12.463  0.00  0.00    +0.000 A 
ATOM     31  C   UNL     1       6.968   2.399  11.445  0.00  0.00    +0.000 A 
ATOM     32  C   UNL     1       5.641   2.173  11.083  0.00  0.00    +0.000 A 
ATOM     33  C   UNL     1       4.619   2.875  11.717  0.00  0.00    +0.000 A 
ATOM     34  C   UNL     1       4.925   3.798  12.719  0.00  0.00    +0.000 A 
ENDBRANCH  28  29
ENDBRANCH  25  28
ENDBRANCH  20  22
ENDBRANCH   4  18
TORSDOF 5
ENDMDL
MODEL 3
REMARK VINA RESULT:      -8.3      3.592     12.184
REMARK  Name = 
REMARK  7 active torsions:
REMARK  status: ('A' for Active; 'I' for Inactive)
REMARK    1  A    between atoms: C_1  and  C_2
REMARK    2  A    between atoms: C_6  and  C_7
REMARK    3  A    between atoms: C_10  and  C_11
REMARK    4  A    between atoms: N_13  and  C_14
REMARK    5  A    between atoms: N_17  and  C_18
REMARK    6  A    between atoms: C_18  and  C_19
REMARK    7  A    between atoms: C_31  and  C_32
REMARK                            x       y       z     vdW  Elec       q    Type
REMARK                         _______ _______ _______ _____ _____    ______ ____
ROOT
ATOM      1  C   UNL     1       1.186   9.042  19.608  0.00  0.00    +0.000 A 
ATOM      2  C   UNL     1       1.698   9.036  18.330  0.00  0.00    +0.000 A 
ATOM      3  C   UNL     1       2.535   7.897  18.086  0.00  0.00    +0.000 A 
ATOM      4  C   UNL     1       2.639   7.069  19.190  0.00  0.00    +0.000 A 
ATOM      5  S   UNL     1       1.731   7.688  20.501  0.00  0.00    +0.000 S 
ENDROOT
BRANCH   1  11
ATOM      6  C   UNL     1      -2.838  13.561  23.752  0.00  0.00    +0.000 C 
ATOM      7  C   UNL     1      -2.248  12.911  22.531  0.00  0.00    +0.000 A 
ATOM      8  C   UNL     1      -1.428  11.773  22.701  0.00  0.00    +0.000 A 
ATOM      9  C   UNL     1      -0.839  11.180  21.577  0.00  0.00    +0.000 A 
ATOM     10  N   UNL     1       0.010  10.098  21.486  0.00  0.00    +0.000 NA
ATOM     11  C   UNL     1       0.292   9.992  20.207  0.00  0.00    +0.000 A 
ATOM     12  N   UNL     1      -0.380  10.935  19.473  0.00  0.00    +0.000 N 
ATOM     13  C   UNL     1      -1.096  11.721  20.327  0.00  0.00    +0.000 A 
ATOM     14  C   UNL     1      -1.911  12.830  20.107  0.00  0.00    +0.000 A 
ATOM     15  C   UNL     1      -2.491  13.429  21.238  0.00  0.00    +0.000 A 
ATOM     16  C   UNL     1      -3.372  14.635  21.035  0.00  0.00    +0.000 C 
ATOM     17  H   UNL     1      -0.318  11.046  18.472  0.00  0.00    +0.000 HD
ENDBRANCH   1  11
BRANCH   4  18
ATOM     18  C   UNL     1       3.385   5.813  19.337  0.00  0.00    +0.000 C 
ATOM     19  O   UNL     1       3.104   4.962  20.178  0.00  0.00    +0.000 OA
ATOM     20  N   UNL     1       4.440   5.661  18.456  0.00  0.00    +0.000 N 
ATOM     21  H   UNL     1       4.568   6.394  17.772  0.00  0.00    +0.000 HD
BRANCH  20  22
ATOM     22  C   UNL     1       5.311   4.489  18.403  0.00  0.00    +0.000 C 
ATOM     23  C   UNL     1       6.754   4.870  18.076  0.00  0.00    +0.000 C 
ATOM     24  C   UNL     1       6.946   5.306  16.622  0.00  0.00    +0.000 C 
ATOM     25  N   UNL     1       6.414   4.361  15.631  0.00  0.00    +0.000 NA
ATOM     26  C   UNL     1       5.053   3.889  15.944  0.00  0.00    +0.000 C 
ATOM     27  C   UNL     1       4.838   3.448  17.393  0.00  0.00    +0.000 C 
BRANCH  25  28
ATOM     28  C   UNL     1       6.403   4.979  14.281  0.00  0.00    +0.000 C 
BRANCH  28  29
ATOM     29  C   UNL     1       6.113   4.035  13.132  0.00  0.00    +0.000 A 
ATOM     30  C   UNL     1       7.139   3.286  12.539  0.00  0.00    +0.000 A 
ATOM     31  C   UNL     1       6.851   2.369  11.523  0.00  0.00    +0.000 A 
ATOM     32  C   UNL     1       5.537   2.177  11.103  0.00  0.00    +0.000 A 
ATOM     33  C   UNL     1       4.509   2.922  11.677  0.00  0.00    +0.000 A 
ATOM     34  C   UNL     1       4.797   3.853  12.677  0.00  0.00    +0.000 A 
ENDBRANCH  28  29
ENDBRANCH  25  28
ENDBRANCH  20  22
ENDBRANCH   4  18
TORSDOF 5
ENDMDL
MODEL 4
REMARK VINA RESULT:      -8.2      1.387      1.804
REMARK  Name = 
REMARK  7 active torsions:
REMARK  status: ('A' for Active; 'I' for Inactive)
REMARK    1  A    between atoms: C_1  and  C_2
REMARK    2  A    between atoms: C_6  and  C_7
REMARK    3  A    between atoms: C_10  and  C_11
REMARK    4  A    between atoms: N_13  and  C_14
REMARK    5  A    between atoms: N_17  and  C_18
REMARK    6  A    between atoms: C_18  and  C_19
REMARK    7  A    between atoms: C_31  and  C_32
REMARK                            x       y       z     vdW  Elec       q    Type
REMARK                         _______ _______ _______ _____ _____    ______ ____
ROOT
ATOM      1  C   UNL     1       1.114   9.179  20.042  0.00  0.00    +0.000 A 
ATOM      2  C   UNL     1       1.000  10.410  19.439  0.00  0.00    +0.000 A 
ATOM      3  C   UNL     1       0.258  11.341  20.240  0.00  0.00    +0.000 A 
ATOM      4  C   UNL     1      -0.173  10.786  21.433  0.00  0.00    +0.000 A 
ATOM      5  S   UNL     1       0.317   9.153  21.556  0.00  0.00    +0.000 S 
ENDROOT
BRANCH   1  11
ATOM      6  C   UNL     1       5.098   3.988  16.729  0.00  0.00    +0.000 C 
ATOM      7  C   UNL     1       4.234   4.668  17.756  0.00  0.00    +0.000 A 
ATOM      8  C   UNL     1       3.729   5.956  17.466  0.00  0.00    +0.000 A 
ATOM      9  C   UNL     1       2.956   6.619  18.427  0.00  0.00    +0.000 A 
ATOM     10  N   UNL     1       2.384   7.873  18.396  0.00  0.00    +0.000 NA
ATOM     11  C   UNL     1       1.804   8.012  19.567  0.00  0.00    +0.000 A 
ATOM     12  N   UNL     1       1.946   6.880  20.327  0.00  0.00    +0.000 N 
ATOM     13  C   UNL     1       2.696   5.980  19.630  0.00  0.00    +0.000 A 
ATOM     14  C   UNL     1       3.156   4.705  19.953  0.00  0.00    +0.000 A 
ATOM     15  C   UNL     1       3.941   4.047  18.991  0.00  0.00    +0.000 A 
ATOM     16  C   UNL     1       4.461   2.670  19.313  0.00  0.00    +0.000 C 
ATOM     17  H   UNL     1       1.585   6.758  21.262  0.00  0.00    +0.000 HD
ENDBRANCH   1  11
BRANCH   4  18
ATOM     18  C   UNL     1      -0.944  11.410  22.516  0.00  0.00    +0.000 C 
ATOM     19  O   UNL     1      -1.065  10.901  23.629  0.00  0.00    +0.000 OA
ATOM     20  N   UNL     1      -1.533  12.617  22.186  0.00  0.00    +0.000 N 
ATOM     21  H   UNL     1      -1.342  12.976  21.262  0.00  0.00    +0.000 HD
BRANCH  20  22
ATOM     22  C   UNL     1      -2.330  13.426  23.105  0.00  0.00    +0.000 C 
ATOM     23  C   UNL     1      -3.673  12.769  23.420  0.00  0.00    +0.000 C 
ATOM     24  C   UNL     1      -4.652  12.811  22.244  0.00  0.00    +0.000 C 
ATOM     25  N   UNL     1      -4.842  14.146  21.662  0.00  0.00    +0.000 NA
ATOM     26  C   UNL     1      -3.578  14.865  21.420  0.00  0.00    +0.000 C 
ATOM     27  C   UNL     1      -2.584  14.837  22.583  0.00  0.00    +0.000 C 
BRANCH  25  28
ATOM     28  C   UNL     1      -5.586  14.051  20.381  0.00  0.00    +0.000 C 
BRANCH  28  29
ATOM     29  C   UNL     1      -5.979  12.650  19.955  0.00  0.00    +0.000 A 
ATOM     30  C   UNL     1      -7.048  11.984  20.569  0.00  0.00    +0.000 A 
ATOM     31  C   UNL     1      -7.445  10.719  20.126  0.00  0.00    +0.000 A 
ATOM     32  C   UNL     1      -6.791  10.115  19.053  0.00  0.00    +0.000 A 
ATOM     33  C   UNL     1      -5.721  10.762  18.439  0.00  0.00    +0.000 A 
ATOM     34  C   UNL     1      -5.311  12.017  18.894  0.00  0.00    +0.000 A 
ENDBRANCH  28  29
ENDBRANCH  25  28
ENDBRANCH  20  22
ENDBRANCH   4  18
TORSDOF 5
ENDMDL
MODEL 5
REMARK VINA RESULT:      -8.2      3.033     10.879
REMARK  Name = 
REMARK  7 active torsions:
REMARK  status: ('A' for Active; 'I' for Inactive)
REMARK    1  A    between atoms: C_1  and  C_2
REMARK    2  A    between atoms: C_6  and  C_7
REMARK    3  A    between atoms: C_10  and  C_11
REMARK    4  A    between atoms: N_13  and  C_14
REMARK    5  A    between atoms: N_17  and  C_18
REMARK    6  A    between atoms: C_18  and  C_19
REMARK    7  A    between atoms: C_31  and  C_32
REMARK                            x       y       z     vdW  Elec       q    Type
REMARK                         _______ _______ _______ _____ _____    ______ ____
ROOT
ATOM      1  C   UNL     1       0.523   9.456  20.366  0.00  0.00    +0.000 A 
ATOM      2  C   UNL     1       0.903   8.305  21.018  0.00  0.00    +0.000 A 
ATOM      3  C   UNL     1       1.860   7.546  20.266  0.00  0.00    +0.000 A 
ATOM      4  C   UNL     1       2.179   8.143  19.059  0.00  0.00    +0.000 A 
ATOM      5  S   UNL     1       1.311   9.601  18.854  0.00  0.00    +0.000 S 
ENDROOT
BRANCH   1  11
ATOM      6  C   UNL     1      -4.454  14.737  21.429  0.00  0.00    +0.000 C 
ATOM      7  C   UNL     1      -3.443  13.665  21.731  0.00  0.00    +0.000 A 
ATOM      8  C   UNL     1      -2.725  13.092  20.656  0.00  0.00    +0.000 A 
ATOM      9  C   UNL     1      -1.810  12.065  20.916  0.00  0.00    +0.000 A 
ATOM     10  N   UNL     1      -1.022  11.337  20.050  0.00  0.00    +0.000 NA
ATOM     11  C   UNL     1      -0.384  10.477  20.811  0.00  0.00    +0.000 A 
ATOM     12  N   UNL     1      -0.697  10.658  22.133  0.00  0.00    +0.000 N 
ATOM     13  C   UNL     1      -1.623  11.655  22.227  0.00  0.00    +0.000 A 
ATOM     14  C   UNL     1      -2.293  12.200  23.320  0.00  0.00    +0.000 A 
ATOM     15  C   UNL     1      -3.219  13.223  23.055  0.00  0.00    +0.000 A 
ATOM     16  C   UNL     1      -3.966  13.829  24.215  0.00  0.00    +0.000 C 
ATOM     17  H   UNL     1      -0.330  10.112  22.898  0.00  0.00    +0.000 HD
ENDBRANCH   1  11
BRANCH   4  18
ATOM     18  C   UNL     1       3.115   7.688  18.023  0.00  0.00    +0.000 C 
ATOM     19  O   UNL     1       3.097   8.117  16.871  0.00  0.00    +0.000 OA
ATOM     20  N   UNL     1       4.021   6.730  18.441  0.00  0.00    +0.000 N 
ATOM     21  H   UNL     1       3.988   6.472  19.417  0.00  0.00    +0.000 HD
BRANCH  20  22
ATOM     22  C   UNL     1       5.056   6.145  17.593  0.00  0.00    +0.000 C 
ATOM     23  C   UNL     1       4.457   5.414  16.391  0.00  0.00    +0.000 C 
ATOM     24  C   UNL     1       3.767   4.102  16.770  0.00  0.00    +0.000 C 
ATOM     25  N   UNL     1       4.592   3.196  17.579  0.00  0.00    +0.000 NA
ATOM     26  C   UNL     1       5.268   3.867  18.704  0.00  0.00    +0.000 C 
ATOM     27  C   UNL     1       5.966   5.182  18.349  0.00  0.00    +0.000 C 
BRANCH  25  28
ATOM     28  C   UNL     1       3.766   2.086  18.117  0.00  0.00    +0.000 C 
BRANCH  28  29
ATOM     29  C   UNL     1       2.858   2.448  19.276  0.00  0.00    +0.000 A 
ATOM     30  C   UNL     1       3.309   2.356  20.599  0.00  0.00    +0.000 A 
ATOM     31  C   UNL     1       2.488   2.754  21.658  0.00  0.00    +0.000 A 
ATOM     32  C   UNL     1       1.216   3.264  21.405  0.00  0.00    +0.000 A 
ATOM     33  C   UNL     1       0.752   3.352  20.095  0.00  0.00    +0.000 A 
ATOM     34  C   UNL     1       1.563   2.936  19.038  0.00  0.00    +0.000 A 
ENDBRANCH  28  29
ENDBRANCH  25  28
ENDBRANCH  20  22
ENDBRANCH   4  18
TORSDOF 5
ENDMDL
MODEL 6
REMARK VINA RESULT:      -8.1      3.107     10.934
REMARK  Name = 
REMARK  7 active torsions:
REMARK  status: ('A' for Active; 'I' for Inactive)
REMARK    1  A    between atoms: C_1  and  C_2
REMARK    2  A    between atoms: C_6  and  C_7
REMARK    3  A    between atoms: C_10  and  C_11
REMARK    4  A    between atoms: N_13  and  C_14
REMARK    5  A    between atoms: N_17  and  C_18
REMARK    6  A    between atoms: C_18  and  C_19
REMARK    7  A    between atoms: C_31  and  C_32
REMARK                            x       y       z     vdW  Elec       q    Type
REMARK                         _______ _______ _______ _____ _____    ______ ____
ROOT
ATOM      1  C   UNL     1       0.456   9.417  20.510  0.00  0.00    +0.000 A 
ATOM      2  C   UNL     1       0.853   8.253  21.128  0.00  0.00    +0.000 A 
ATOM      3  C   UNL     1       1.813   7.525  20.349  0.00  0.00    +0.000 A 
ATOM      4  C   UNL     1       2.117   8.158  19.156  0.00  0.00    +0.000 A 
ATOM      5  S   UNL     1       1.231   9.611  18.997  0.00  0.00    +0.000 S 
ENDROOT
BRANCH   1  11
ATOM      6  C   UNL     1      -3.722  14.267  24.089  0.00  0.00    +0.000 C 
ATOM      7  C   UNL     1      -3.081  13.519  22.952  0.00  0.00    +0.000 A 
ATOM      8  C   UNL     1      -2.278  12.395  23.251  0.00  0.00    +0.000 A 
ATOM      9  C   UNL     1      -1.643  11.713  22.206  0.00  0.00    +0.000 A 
ATOM     10  N   UNL     1      -0.798  10.623  22.242  0.00  0.00    +0.000 NA
ATOM     11  C   UNL     1      -0.458  10.415  20.989  0.00  0.00    +0.000 A 
ATOM     12  N   UNL     1      -1.088  11.299  20.153  0.00  0.00    +0.000 N 
ATOM     13  C   UNL     1      -1.837  12.153  20.907  0.00  0.00    +0.000 A 
ATOM     14  C   UNL     1      -2.632  13.244  20.562  0.00  0.00    +0.000 A 
ATOM     15  C   UNL     1      -3.260  13.933  21.613  0.00  0.00    +0.000 A 
ATOM     16  C   UNL     1      -4.121  15.123  21.274  0.00  0.00    +0.000 C 
ATOM     17  H   UNL     1      -0.978  11.330  19.149  0.00  0.00    +0.000 HD
ENDBRANCH   1  11
BRANCH   4  18
ATOM     18  C   UNL     1       3.050   7.742  18.101  0.00  0.00    +0.000 C 
ATOM     19  O   UNL     1       3.037   8.223  16.970  0.00  0.00    +0.000 OA
ATOM     20  N   UNL     1       3.947   6.758  18.477  0.00  0.00    +0.000 N 
ATOM     21  H   UNL     1       3.910   6.456  19.440  0.00  0.00    +0.000 HD
BRANCH  20  22
ATOM     22  C   UNL     1       4.977   6.203  17.604  0.00  0.00    +0.000 C 
ATOM     23  C   UNL     1       4.372   5.464  16.411  0.00  0.00    +0.000 C 
ATOM     24  C   UNL     1       3.722   4.134  16.796  0.00  0.00    +0.000 C 
ATOM     25  N   UNL     1       4.585   3.244  17.583  0.00  0.00    +0.000 NA
ATOM     26  C   UNL     1       5.268   3.925  18.698  0.00  0.00    +0.000 C 
ATOM     27  C   UNL     1       5.926   5.259  18.335  0.00  0.00    +0.000 C 
BRANCH  25  28
ATOM     28  C   UNL     1       3.797   2.111  18.132  0.00  0.00    +0.000 C 
BRANCH  28  29
ATOM     29  C   UNL     1       2.877   2.453  19.287  0.00  0.00    +0.000 A 
ATOM     30  C   UNL     1       3.323   2.367  20.613  0.00  0.00    +0.000 A 
ATOM     31  C   UNL     1       2.488   2.747  21.668  0.00  0.00    +0.000 A 
ATOM     32  C   UNL     1       1.209   3.233  21.410  0.00  0.00    +0.000 A 
ATOM     33  C   UNL     1       0.749   3.315  20.097  0.00  0.00    +0.000 A 
ATOM     34  C   UNL     1       1.574   2.917  19.043  0.00  0.00    +0.000 A 
ENDBRANCH  28  29
ENDBRANCH  25  28
ENDBRANCH  20  22
ENDBRANCH   4  18
TORSDOF 5
ENDMDL
MODEL 7
REMARK VINA RESULT:      -8.1      1.573      2.144
REMARK  Name = 
REMARK  7 active torsions:
REMARK  status: ('A' for Active; 'I' for Inactive)
REMARK    1  A    between atoms: C_1  and  C_2
REMARK    2  A    between atoms: C_6  and  C_7
REMARK    3  A    between atoms: C_10  and  C_11
REMARK    4  A    between atoms: N_13  and  C_14
REMARK    5  A    between atoms: N_17  and  C_18
REMARK    6  A    between atoms: C_18  and  C_19
REMARK    7  A    between atoms: C_31  and  C_32
REMARK                            x       y       z     vdW  Elec       q    Type
REMARK                         _______ _______ _______ _____ _____    ______ ____
ROOT
ATOM      1  C   UNL     1       1.494   8.853  19.422  0.00  0.00    +0.000 A 
ATOM      2  C   UNL     1       1.228  10.081  18.861  0.00  0.00    +0.000 A 
ATOM      3  C   UNL     1       0.572  10.967  19.781  0.00  0.00    +0.000 A 
ATOM      4  C   UNL     1       0.356  10.382  21.016  0.00  0.00    +0.000 A 
ATOM      5  S   UNL     1       0.939   8.775  21.039  0.00  0.00    +0.000 S 
ENDROOT
BRANCH   1  11
ATOM      6  C   UNL     1       5.757   3.944  16.028  0.00  0.00    +0.000 C 
ATOM      7  C   UNL     1       4.657   4.511  16.883  0.00  0.00    +0.000 A 
ATOM      8  C   UNL     1       4.471   5.912  16.903  0.00  0.00    +0.000 A 
ATOM      9  C   UNL     1       3.477   6.457  17.725  0.00  0.00    +0.000 A 
ATOM     10  N   UNL     1       3.125   7.773  17.939  0.00  0.00    +0.000 NA
ATOM     11  C   UNL     1       2.160   7.727  18.830  0.00  0.00    +0.000 A 
ATOM     12  N   UNL     1       1.852   6.433  19.159  0.00  0.00    +0.000 N 
ATOM     13  C   UNL     1       2.693   5.600  18.481  0.00  0.00    +0.000 A 
ATOM     14  C   UNL     1       2.826   4.213  18.481  0.00  0.00    +0.000 A 
ATOM     15  C   UNL     1       3.832   3.669  17.664  0.00  0.00    +0.000 A 
ATOM     16  C   UNL     1       4.008   2.173  17.647  0.00  0.00    +0.000 C 
ATOM     17  H   UNL     1       1.145   6.153  19.824  0.00  0.00    +0.000 HD
ENDBRANCH   1  11
BRANCH   4  18
ATOM     18  C   UNL     1      -0.270  10.958  22.214  0.00  0.00    +0.000 C 
ATOM     19  O   UNL     1      -0.163  10.455  23.331  0.00  0.00    +0.000 OA
ATOM     20  N   UNL     1      -0.999  12.111  21.988  0.00  0.00    +0.000 N 
ATOM     21  H   UNL     1      -0.993  12.472  21.045  0.00  0.00    +0.000 HD
BRANCH  20  22
ATOM     22  C   UNL     1      -1.692  12.867  23.027  0.00  0.00    +0.000 C 
ATOM     23  C   UNL     1      -3.093  12.315  23.291  0.00  0.00    +0.000 C 
ATOM     24  C   UNL     1      -4.078  12.614  22.159  0.00  0.00    +0.000 C 
ATOM     25  N   UNL     1      -4.136  14.027  21.764  0.00  0.00    +0.000 NA
ATOM     26  C   UNL     1      -2.807  14.639  21.582  0.00  0.00    +0.000 C 
ATOM     27  C   UNL     1      -1.804  14.353  22.702  0.00  0.00    +0.000 C 
BRANCH  25  28
ATOM     28  C   UNL     1      -4.904  14.180  20.503  0.00  0.00    +0.000 C 
BRANCH  28  29
ATOM     29  C   UNL     1      -5.593  12.927  19.999  0.00  0.00    +0.000 A 
ATOM     30  C   UNL     1      -5.010  12.138  18.999  0.00  0.00    +0.000 A 
ATOM     31  C   UNL     1      -5.621  10.949  18.588  0.00  0.00    +0.000 A 
ATOM     32  C   UNL     1      -6.807  10.528  19.184  0.00  0.00    +0.000 A 
ATOM     33  C   UNL     1      -7.402  11.308  20.173  0.00  0.00    +0.000 A 
ATOM     34  C   UNL     1      -6.805  12.505  20.571  0.00  0.00    +0.000 A 
ENDBRANCH  28  29
ENDBRANCH  25  28
ENDBRANCH  20  22
ENDBRANCH   4  18
TORSDOF 5
ENDMDL
MODEL 8
REMARK VINA RESULT:      -8.1      0.591      1.031
REMARK  Name = 
REMARK  7 active torsions:
REMARK  status: ('A' for Active; 'I' for Inactive)
REMARK    1  A    between atoms: C_1  and  C_2
REMARK    2  A    between atoms: C_6  and  C_7
REMARK    3  A    between atoms: C_10  and  C_11
REMARK    4  A    between atoms: N_13  and  C_14
REMARK    5  A    between atoms: N_17  and  C_18
REMARK    6  A    between atoms: C_18  and  C_19
REMARK    7  A    between atoms: C_31  and  C_32
REMARK                            x       y       z     vdW  Elec       q    Type
REMARK                         _______ _______ _______ _____ _____    ______ ____
ROOT
ATOM      1  C   UNL     1       0.872   8.996  21.219  0.00  0.00    +0.000 A 
ATOM      2  C   UNL     1       0.319   8.919  22.477  0.00  0.00    +0.000 A 
ATOM      3  C   UNL     1      -0.281  10.158  22.882  0.00  0.00    +0.000 A 
ATOM      4  C   UNL     1      -0.165  11.144  21.918  0.00  0.00    +0.000 A 
ATOM      5  S   UNL     1       0.675  10.558  20.548  0.00  0.00    +0.000 S 
ENDROOT
BRANCH   1  11
ATOM      6  C   UNL     1       4.591   4.654  16.624  0.00  0.00    +0.000 C 
ATOM      7  C   UNL     1       3.816   5.099  17.834  0.00  0.00    +0.000 A 
ATOM      8  C   UNL     1       3.276   6.405  17.847  0.00  0.00    +0.000 A 
ATOM      9  C   UNL     1       2.586   6.848  18.982  0.00  0.00    +0.000 A 
ATOM     10  N   UNL     1       2.002   8.069  19.246  0.00  0.00    +0.000 NA
ATOM     11  C   UNL     1       1.528   7.962  20.467  0.00  0.00    +0.000 A 
ATOM     12  N   UNL     1       1.746   6.708  20.975  0.00  0.00    +0.000 N 
ATOM     13  C   UNL     1       2.438   5.980  20.053  0.00  0.00    +0.000 A 
ATOM     14  C   UNL     1       2.936   4.680  20.080  0.00  0.00    +0.000 A 
ATOM     15  C   UNL     1       3.638   4.242  18.944  0.00  0.00    +0.000 A 
ATOM     16  C   UNL     1       4.197   2.842  18.944  0.00  0.00    +0.000 C 
ATOM     17  H   UNL     1       1.471   6.397  21.896  0.00  0.00    +0.000 HD
ENDBRANCH   1  11
BRANCH   4  18
ATOM     18  C   UNL     1      -0.653  12.529  21.948  0.00  0.00    +0.000 C 
ATOM     19  O   UNL     1      -0.074  13.454  21.382  0.00  0.00    +0.000 OA
ATOM     20  N   UNL     1      -1.816  12.716  22.672  0.00  0.00    +0.000 N 
ATOM     21  H   UNL     1      -2.242  11.889  23.065  0.00  0.00    +0.000 HD
BRANCH  20  22
ATOM     22  C   UNL     1      -2.495  13.999  22.826  0.00  0.00    +0.000 C 
ATOM     23  C   UNL     1      -3.574  13.944  23.908  0.00  0.00    +0.000 C 
ATOM     24  C   UNL     1      -4.803  13.135  23.489  0.00  0.00    +0.000 C 
ATOM     25  N   UNL     1      -5.376  13.530  22.195  0.00  0.00    +0.000 NA
ATOM     26  C   UNL     1      -4.367  13.687  21.132  0.00  0.00    +0.000 C 
ATOM     27  C   UNL     1      -3.128  14.493  21.528  0.00  0.00    +0.000 C 
BRANCH  25  28
ATOM     28  C   UNL     1      -6.383  12.535  21.750  0.00  0.00    +0.000 C 
BRANCH  28  29
ATOM     29  C   UNL     1      -6.841  12.667  20.310  0.00  0.00    +0.000 A 
ATOM     30  C   UNL     1      -7.545  13.799  19.880  0.00  0.00    +0.000 A 
ATOM     31  C   UNL     1      -7.906  13.942  18.536  0.00  0.00    +0.000 A 
ATOM     32  C   UNL     1      -7.552  12.965  17.608  0.00  0.00    +0.000 A 
ATOM     33  C   UNL     1      -6.861  11.829  18.024  0.00  0.00    +0.000 A 
ATOM     34  C   UNL     1      -6.517  11.676  19.369  0.00  0.00    +0.000 A 
ENDBRANCH  28  29
ENDBRANCH  25  28
ENDBRANCH  20  22
ENDBRANCH   4  18
TORSDOF 5
ENDMDL
MODEL 9
REMARK VINA RESULT:      -8.1      1.154      1.901
REMARK  Name = 
REMARK  7 active torsions:
REMARK  status: ('A' for Active; 'I' for Inactive)
REMARK    1  A    between atoms: C_1  and  C_2
REMARK    2  A    between atoms: C_6  and  C_7
REMARK    3  A    between atoms: C_10  and  C_11
REMARK    4  A    between atoms: N_13  and  C_14
REMARK    5  A    between atoms: N_17  and  C_18
REMARK    6  A    between atoms: C_18  and  C_19
REMARK    7  A    between atoms: C_31  and  C_32
REMARK                            x       y       z     vdW  Elec       q    Type
REMARK                         _______ _______ _______ _____ _____    ______ ____
ROOT
ATOM      1  C   UNL     1       0.392   9.654  20.236  0.00  0.00    +0.000 A 
ATOM      2  C   UNL     1      -0.453  10.397  19.443  0.00  0.00    +0.000 A 
ATOM      3  C   UNL     1      -1.113  11.436  20.179  0.00  0.00    +0.000 A 
ATOM      4  C   UNL     1      -0.751  11.452  21.515  0.00  0.00    +0.000 A 
ATOM      5  S   UNL     1       0.370  10.207  21.855  0.00  0.00    +0.000 S 
ENDROOT
BRANCH   1  11
ATOM      6  C   UNL     1       4.135   3.431  19.209  0.00  0.00    +0.000 C 
ATOM      7  C   UNL     1       3.615   4.823  18.978  0.00  0.00    +0.000 A 
ATOM      8  C   UNL     1       2.808   5.417  19.975  0.00  0.00    +0.000 A 
ATOM      9  C   UNL     1       2.284   6.697  19.757  0.00  0.00    +0.000 A 
ATOM     10  N   UNL     1       1.459   7.465  20.551  0.00  0.00    +0.000 NA
ATOM     11  C   UNL     1       1.241   8.559  19.856  0.00  0.00    +0.000 A 
ATOM     12  N   UNL     1       1.931   8.539  18.672  0.00  0.00    +0.000 N 
ATOM     13  C   UNL     1       2.591   7.350  18.574  0.00  0.00    +0.000 A 
ATOM     14  C   UNL     1       3.396   6.814  17.571  0.00  0.00    +0.000 A 
ATOM     15  C   UNL     1       3.911   5.525  17.787  0.00  0.00    +0.000 A 
ATOM     16  C   UNL     1       4.779   4.914  16.718  0.00  0.00    +0.000 C 
ATOM     17  H   UNL     1       1.914   9.271  17.976  0.00  0.00    +0.000 HD
ENDBRANCH   1  11
BRANCH   4  18
ATOM     18  C   UNL     1      -1.194  12.359  22.582  0.00  0.00    +0.000 C 
ATOM     19  O   UNL     1      -0.417  13.053  23.234  0.00  0.00    +0.000 OA
ATOM     20  N   UNL     1      -2.559  12.368  22.803  0.00  0.00    +0.000 N 
ATOM     21  H   UNL     1      -3.121  11.797  22.188  0.00  0.00    +0.000 HD
BRANCH  20  22
ATOM     22  C   UNL     1      -3.229  13.203  23.797  0.00  0.00    +0.000 C 
ATOM     23  C   UNL     1      -4.542  12.578  24.269  0.00  0.00    +0.000 C 
ATOM     24  C   UNL     1      -5.646  12.631  23.211  0.00  0.00    +0.000 C 
ATOM     25  N   UNL     1      -5.874  13.965  22.639  0.00  0.00    +0.000 NA
ATOM     26  C   UNL     1      -4.631  14.654  22.247  0.00  0.00    +0.000 C 
ATOM     27  C   UNL     1      -3.512  14.614  23.291  0.00  0.00    +0.000 C 
BRANCH  25  28
ATOM     28  C   UNL     1      -6.760  13.874  21.452  0.00  0.00    +0.000 C 
BRANCH  28  29
ATOM     29  C   UNL     1      -6.389  12.811  20.437  0.00  0.00    +0.000 A 
ATOM     30  C   UNL     1      -5.189  12.891  19.717  0.00  0.00    +0.000 A 
ATOM     31  C   UNL     1      -4.824  11.872  18.832  0.00  0.00    +0.000 A 
ATOM     32  C   UNL     1      -5.643  10.757  18.671  0.00  0.00    +0.000 A 
ATOM     33  C   UNL     1      -6.843  10.669  19.373  0.00  0.00    +0.000 A 
ATOM     34  C   UNL     1      -7.219  11.695  20.243  0.00  0.00    +0.000 A 
ENDBRANCH  28  29
ENDBRANCH  25  28
ENDBRANCH  20  22
ENDBRANCH   4  18
TORSDOF 5
ENDMDL
