MODEL 1
REMARK VINA RESULT:      -6.7      0.000      0.000
REMARK  Name = 
REMARK  4 active torsions:
REMARK  status: ('A' for Active; 'I' for Inactive)
REMARK    1  A    between atoms: C_2  and  N_3
REMARK    2  A    between atoms: N_6  and  C_7
REMARK    3  A    between atoms: C_7  and  C_8
REMARK    4  A    between atoms: N_16  and  N_17
REMARK                            x       y       z     vdW  Elec       q    Type
REMARK                         _______ _______ _______ _____ _____    ______ ____
ROOT
ATOM      1  N   UNL     1       2.707   4.156  19.958  0.00  0.00    +0.000 N 
ATOM      2  C   UNL     1       2.176   5.519  20.017  0.00  0.00    +0.000 C 
ATOM      3  C   UNL     1       3.196   6.324  19.210  0.00  0.00    +0.000 C 
ATOM      4  N   UNL     1       4.352   5.447  19.219  0.00  0.00    +0.000 N 
ATOM      5  C   UNL     1       4.047   4.134  19.569  0.00  0.00    +0.000 C 
ATOM      6  N   UNL     1       4.945   3.206  19.513  0.00  0.00    +0.000 NA
ENDROOT
BRANCH   6   7
ATOM      7  N   UNL     1       4.641   1.971  19.954  0.00  0.00    +0.000 N 
ATOM      8  O   UNL     1       4.846   1.662  21.135  0.00  0.00    +0.000 OA
ATOM      9  O   UNL     1       4.238   1.162  19.110  0.00  0.00    +0.000 OA
ENDBRANCH   6   7
BRANCH   1  11
ATOM     10  N   UNL     1       1.125   2.405  18.848  0.00  0.00    +0.000 NA
ATOM     11  C   UNL     1       1.829   3.197  19.315  0.00  0.00    +0.000 C 
ENDBRANCH   1  11
BRANCH   4  12
ATOM     12  C   UNL     1       5.655   5.942  18.814  0.00  0.00    +0.000 C 
BRANCH  12  13
ATOM     13  C   UNL     1       5.935   5.583  17.377  0.00  0.00    +0.000 A 
ATOM     14  C   UNL     1       5.057   5.935  16.346  0.00  0.00    +0.000 A 
ATOM     15  C   UNL     1       5.326   5.541  15.038  0.00  0.00    +0.000 A 
ATOM     16  C   UNL     1       6.478   4.811  14.807  0.00  0.00    +0.000 A 
ATOM     17 CL   UNL     1       6.861   4.245  13.235  0.00  0.00    +0.000 Cl
ATOM     18  N   UNL     1       7.367   4.473  15.763  0.00  0.00    +0.000 NA
ATOM     19  C   UNL     1       7.077   4.872  17.022  0.00  0.00    +0.000 A 
ENDBRANCH  12  13
ENDBRANCH   4  12
TORSDOF 4
ENDMDL
MODEL 2
REMARK VINA RESULT:      -6.7      3.690      5.943
REMARK  Name = 
REMARK  4 active torsions:
REMARK  status: ('A' for Active; 'I' for Inactive)
REMARK    1  A    between atoms: C_2  and  N_3
REMARK    2  A    between atoms: N_6  and  C_7
REMARK    3  A    between atoms: C_7  and  C_8
REMARK    4  A    between atoms: N_16  and  N_17
REMARK                            x       y       z     vdW  Elec       q    Type
REMARK                         _______ _______ _______ _____ _____    ______ ____
ROOT
ATOM      1  N   UNL     1       5.344   6.646  16.814  0.00  0.00    +0.000 N 
ATOM      2  C   UNL     1       4.169   7.292  17.401  0.00  0.00    +0.000 C 
ATOM      3  C   UNL     1       3.315   6.110  17.858  0.00  0.00    +0.000 C 
ATOM      4  N   UNL     1       3.862   5.018  17.073  0.00  0.00    +0.000 N 
ATOM      5  C   UNL     1       5.114   5.299  16.532  0.00  0.00    +0.000 C 
ATOM      6  N   UNL     1       5.785   4.390  15.905  0.00  0.00    +0.000 NA
ENDROOT
BRANCH   6   7
ATOM      7  N   UNL     1       6.945   4.725  15.309  0.00  0.00    +0.000 N 
ATOM      8  O   UNL     1       6.944   5.220  14.174  0.00  0.00    +0.000 OA
ATOM      9  O   UNL     1       7.985   4.435  15.912  0.00  0.00    +0.000 OA
ENDBRANCH   6   7
BRANCH   1  11
ATOM     10  N   UNL     1       7.620   7.182  17.969  0.00  0.00    +0.000 NA
ATOM     11  C   UNL     1       6.597   6.966  17.472  0.00  0.00    +0.000 C 
ENDBRANCH   1  11
BRANCH   4  12
ATOM     12  C   UNL     1       3.152   3.755  16.973  0.00  0.00    +0.000 C 
BRANCH  12  13
ATOM     13  C   UNL     1       2.600   3.349  18.315  0.00  0.00    +0.000 A 
ATOM     14  C   UNL     1       1.227   3.370  18.584  0.00  0.00    +0.000 A 
ATOM     15  C   UNL     1       0.761   3.036  19.853  0.00  0.00    +0.000 A 
ATOM     16  C   UNL     1       1.694   2.682  20.812  0.00  0.00    +0.000 A 
ATOM     17 CL   UNL     1       1.211   2.304  22.412  0.00  0.00    +0.000 Cl
ATOM     18  N   UNL     1       3.023   2.621  20.592  0.00  0.00    +0.000 NA
ATOM     19  C   UNL     1       3.443   2.950  19.349  0.00  0.00    +0.000 A 
ENDBRANCH  12  13
ENDBRANCH   4  12
TORSDOF 4
ENDMDL
MODEL 3
REMARK VINA RESULT:      -6.6      2.565      3.231
REMARK  Name = 
REMARK  4 active torsions:
REMARK  status: ('A' for Active; 'I' for Inactive)
REMARK    1  A    between atoms: C_2  and  N_3
REMARK    2  A    between atoms: N_6  and  C_7
REMARK    3  A    between atoms: C_7  and  C_8
REMARK    4  A    between atoms: N_16  and  N_17
REMARK                            x       y       z     vdW  Elec       q    Type
REMARK                         _______ _______ _______ _____ _____    ______ ____
ROOT
ATOM      1  N   UNL     1       2.211   4.043  18.326  0.00  0.00    +0.000 N 
ATOM      2  C   UNL     1       2.463   2.688  17.832  0.00  0.00    +0.000 C 
ATOM      3  C   UNL     1       3.973   2.528  18.012  0.00  0.00    +0.000 C 
ATOM      4  N   UNL     1       4.415   3.907  18.118  0.00  0.00    +0.000 N 
ATOM      5  C   UNL     1       3.383   4.797  18.402  0.00  0.00    +0.000 C 
ATOM      6  N   UNL     1       3.628   6.043  18.640  0.00  0.00    +0.000 NA
ENDROOT
BRANCH   6   7
ATOM      7  N   UNL     1       2.599   6.894  18.811  0.00  0.00    +0.000 N 
ATOM      8  O   UNL     1       2.041   7.404  17.830  0.00  0.00    +0.000 OA
ATOM      9  O   UNL     1       2.312   7.193  19.976  0.00  0.00    +0.000 OA
ENDBRANCH   6   7
BRANCH   1  11
ATOM     10  N   UNL     1       0.642   4.203  20.402  0.00  0.00    +0.000 NA
ATOM     11  C   UNL     1       1.322   4.110  19.470  0.00  0.00    +0.000 C 
ENDBRANCH   1  11
BRANCH   4  12
ATOM     12  C   UNL     1       5.823   4.239  18.007  0.00  0.00    +0.000 C 
BRANCH  12  13
ATOM     13  C   UNL     1       6.202   4.467  16.566  0.00  0.00    +0.000 A 
ATOM     14  C   UNL     1       5.557   3.797  15.520  0.00  0.00    +0.000 A 
ATOM     15  C   UNL     1       5.970   3.998  14.205  0.00  0.00    +0.000 A 
ATOM     16  C   UNL     1       7.016   4.876  13.983  0.00  0.00    +0.000 A 
ATOM     17 CL   UNL     1       7.619   5.145  12.402  0.00  0.00    +0.000 Cl
ATOM     18  N   UNL     1       7.648   5.565  14.955  0.00  0.00    +0.000 NA
ATOM     19  C   UNL     1       7.222   5.349  16.220  0.00  0.00    +0.000 A 
ENDBRANCH  12  13
ENDBRANCH   4  12
TORSDOF 4
ENDMDL
MODEL 4
REMARK VINA RESULT:      -6.6      3.757      6.133
REMARK  Name = 
REMARK  4 active torsions:
REMARK  status: ('A' for Active; 'I' for Inactive)
REMARK    1  A    between atoms: C_2  and  N_3
REMARK    2  A    between atoms: N_6  and  C_7
REMARK    3  A    between atoms: C_7  and  C_8
REMARK    4  A    between atoms: N_16  and  N_17
REMARK                            x       y       z     vdW  Elec       q    Type
REMARK                         _______ _______ _______ _____ _____    ______ ____
ROOT
ATOM      1  N   UNL     1       6.360   4.650  16.392  0.00  0.00    +0.000 N 
ATOM      2  C   UNL     1       5.559   3.462  16.090  0.00  0.00    +0.000 C 
ATOM      3  C   UNL     1       4.124   3.954  16.275  0.00  0.00    +0.000 C 
ATOM      4  N   UNL     1       4.312   5.144  17.085  0.00  0.00    +0.000 N 
ATOM      5  C   UNL     1       5.622   5.616  17.077  0.00  0.00    +0.000 C 
ATOM      6  N   UNL     1       5.930   6.731  17.655  0.00  0.00    +0.000 NA
ENDROOT
BRANCH   6   7
ATOM      7  N   UNL     1       7.221   7.105  17.714  0.00  0.00    +0.000 N 
ATOM      8  O   UNL     1       7.667   7.939  16.915  0.00  0.00    +0.000 OA
ATOM      9  O   UNL     1       7.934   6.516  18.536  0.00  0.00    +0.000 OA
ENDBRANCH   6   7
BRANCH   1  11
ATOM     10  N   UNL     1       7.800   5.465  14.378  0.00  0.00    +0.000 NA
ATOM     11  C   UNL     1       7.178   5.119  15.290  0.00  0.00    +0.000 C 
ENDBRANCH   1  11
BRANCH   4  12
ATOM     12  C   UNL     1       3.182   5.772  17.746  0.00  0.00    +0.000 C 
BRANCH  12  13
ATOM     13  C   UNL     1       2.625   4.868  18.816  0.00  0.00    +0.000 A 
ATOM     14  C   UNL     1       1.526   4.035  18.578  0.00  0.00    +0.000 A 
ATOM     15  C   UNL     1       1.010   3.252  19.607  0.00  0.00    +0.000 A 
ATOM     16  C   UNL     1       1.624   3.326  20.845  0.00  0.00    +0.000 A 
ATOM     17 CL   UNL     1       1.024   2.434  22.180  0.00  0.00    +0.000 Cl
ATOM     18  N   UNL     1       2.701   4.092  21.114  0.00  0.00    +0.000 NA
ATOM     19  C   UNL     1       3.178   4.839  20.093  0.00  0.00    +0.000 A 
ENDBRANCH  12  13
ENDBRANCH   4  12
TORSDOF 4
ENDMDL
MODEL 5
REMARK VINA RESULT:      -6.6      3.653      5.579
REMARK  Name = 
REMARK  4 active torsions:
REMARK  status: ('A' for Active; 'I' for Inactive)
REMARK    1  A    between atoms: C_2  and  N_3
REMARK    2  A    between atoms: N_6  and  C_7
REMARK    3  A    between atoms: C_7  and  C_8
REMARK    4  A    between atoms: N_16  and  N_17
REMARK                            x       y       z     vdW  Elec       q    Type
REMARK                         _______ _______ _______ _____ _____    ______ ____
ROOT
ATOM      1  N   UNL     1       5.993   4.422  17.208  0.00  0.00    +0.000 N 
ATOM      2  C   UNL     1       4.879   3.621  16.698  0.00  0.00    +0.000 C 
ATOM      3  C   UNL     1       3.665   4.225  17.404  0.00  0.00    +0.000 C 
ATOM      4  N   UNL     1       4.278   4.919  18.522  0.00  0.00    +0.000 N 
ATOM      5  C   UNL     1       5.646   5.124  18.363  0.00  0.00    +0.000 C 
ATOM      6  N   UNL     1       6.316   5.827  19.215  0.00  0.00    +0.000 NA
ENDROOT
BRANCH   6   7
ATOM      7  N   UNL     1       7.653   5.919  19.084  0.00  0.00    +0.000 N 
ATOM      8  O   UNL     1       8.165   6.941  18.609  0.00  0.00    +0.000 OA
ATOM      9  O   UNL     1       8.311   4.914  19.378  0.00  0.00    +0.000 OA
ENDBRANCH   6   7
BRANCH   1  11
ATOM     10  N   UNL     1       7.247   5.760  15.354  0.00  0.00    +0.000 NA
ATOM     11  C   UNL     1       6.716   5.162  16.191  0.00  0.00    +0.000 C 
ENDBRANCH   1  11
BRANCH   4  12
ATOM     12  C   UNL     1       3.466   5.395  19.627  0.00  0.00    +0.000 C 
BRANCH  12  13
ATOM     13  C   UNL     1       2.795   6.696  19.270  0.00  0.00    +0.000 A 
ATOM     14  C   UNL     1       2.971   7.297  18.018  0.00  0.00    +0.000 A 
ATOM     15  C   UNL     1       2.373   8.524  17.745  0.00  0.00    +0.000 A 
ATOM     16  C   UNL     1       1.607   9.106  18.740  0.00  0.00    +0.000 A 
ATOM     17 CL   UNL     1       0.876  10.638  18.506  0.00  0.00    +0.000 Cl
ATOM     18  N   UNL     1       1.386   8.552  19.949  0.00  0.00    +0.000 NA
ATOM     19  C   UNL     1       1.979   7.360  20.183  0.00  0.00    +0.000 A 
ENDBRANCH  12  13
ENDBRANCH   4  12
TORSDOF 4
ENDMDL
MODEL 6
REMARK VINA RESULT:      -6.6      1.144      1.287
REMARK  Name = 
REMARK  4 active torsions:
REMARK  status: ('A' for Active; 'I' for Inactive)
REMARK    1  A    between atoms: C_2  and  N_3
REMARK    2  A    between atoms: N_6  and  C_7
REMARK    3  A    between atoms: C_7  and  C_8
REMARK    4  A    between atoms: N_16  and  N_17
REMARK                            x       y       z     vdW  Elec       q    Type
REMARK                         _______ _______ _______ _____ _____    ______ ____
ROOT
ATOM      1  N   UNL     1       2.758   4.820  18.998  0.00  0.00    +0.000 N 
ATOM      2  C   UNL     1       2.640   6.249  18.701  0.00  0.00    +0.000 C 
ATOM      3  C   UNL     1       3.873   6.528  17.841  0.00  0.00    +0.000 C 
ATOM      4  N   UNL     1       4.728   5.399  18.159  0.00  0.00    +0.000 N 
ATOM      5  C   UNL     1       4.047   4.342  18.759  0.00  0.00    +0.000 C 
ATOM      6  N   UNL     1       4.642   3.220  18.999  0.00  0.00    +0.000 NA
ENDROOT
BRANCH   6   7
ATOM      7  N   UNL     1       3.982   2.258  19.670  0.00  0.00    +0.000 N 
ATOM      8  O   UNL     1       3.845   2.334  20.898  0.00  0.00    +0.000 OA
ATOM      9  O   UNL     1       3.608   1.279  19.013  0.00  0.00    +0.000 OA
ENDBRANCH   6   7
BRANCH   1  11
ATOM     10  N   UNL     1       0.819   3.321  18.110  0.00  0.00    +0.000 NA
ATOM     11  C   UNL     1       1.663   4.010  18.499  0.00  0.00    +0.000 C 
ENDBRANCH   1  11
BRANCH   4  12
ATOM     12  C   UNL     1       6.131   5.409  17.787  0.00  0.00    +0.000 C 
BRANCH  12  13
ATOM     13  C   UNL     1       6.294   5.066  16.328  0.00  0.00    +0.000 A 
ATOM     14  C   UNL     1       5.355   4.284  15.646  0.00  0.00    +0.000 A 
ATOM     15  C   UNL     1       5.567   3.947  14.312  0.00  0.00    +0.000 A 
ATOM     16  C   UNL     1       6.717   4.416  13.702  0.00  0.00    +0.000 A 
ATOM     17 CL   UNL     1       7.082   4.009  12.077  0.00  0.00    +0.000 Cl
ATOM     18  N   UNL     1       7.635   5.194  14.310  0.00  0.00    +0.000 NA
ATOM     19  C   UNL     1       7.399   5.505  15.604  0.00  0.00    +0.000 A 
ENDBRANCH  12  13
ENDBRANCH   4  12
TORSDOF 4
ENDMDL
MODEL 7
REMARK VINA RESULT:      -6.5      3.762      6.067
REMARK  Name = 
REMARK  4 active torsions:
REMARK  status: ('A' for Active; 'I' for Inactive)
REMARK    1  A    between atoms: C_2  and  N_3
REMARK    2  A    between atoms: N_6  and  C_7
REMARK    3  A    between atoms: C_7  and  C_8
REMARK    4  A    between atoms: N_16  and  N_17
REMARK                            x       y       z     vdW  Elec       q    Type
REMARK                         _______ _______ _______ _____ _____    ______ ____
ROOT
ATOM      1  N   UNL     1       5.288   6.696  16.774  0.00  0.00    +0.000 N 
ATOM      2  C   UNL     1       4.121   7.371  17.344  0.00  0.00    +0.000 C 
ATOM      3  C   UNL     1       3.280   6.215  17.886  0.00  0.00    +0.000 C 
ATOM      4  N   UNL     1       3.818   5.080  17.156  0.00  0.00    +0.000 N 
ATOM      5  C   UNL     1       5.058   5.334  16.576  0.00  0.00    +0.000 C 
ATOM      6  N   UNL     1       5.722   4.393  15.990  0.00  0.00    +0.000 NA
ENDROOT
BRANCH   6   7
ATOM      7  N   UNL     1       6.869   4.696  15.354  0.00  0.00    +0.000 N 
ATOM      8  O   UNL     1       6.843   5.144  14.200  0.00  0.00    +0.000 OA
ATOM      9  O   UNL     1       7.921   4.425  15.944  0.00  0.00    +0.000 OA
ENDBRANCH   6   7
BRANCH   1  11
ATOM     10  N   UNL     1       7.571   7.375  17.836  0.00  0.00    +0.000 NA
ATOM     11  C   UNL     1       6.551   7.058  17.389  0.00  0.00    +0.000 C 
ENDBRANCH   1  11
BRANCH   4  12
ATOM     12  C   UNL     1       3.112   3.812  17.143  0.00  0.00    +0.000 C 
BRANCH  12  13
ATOM     13  C   UNL     1       2.639   3.454  18.528  0.00  0.00    +0.000 A 
ATOM     14  C   UNL     1       3.534   3.099  19.544  0.00  0.00    +0.000 A 
ATOM     15  C   UNL     1       3.054   2.727  20.796  0.00  0.00    +0.000 A 
ATOM     16  C   UNL     1       1.684   2.732  20.991  0.00  0.00    +0.000 A 
ATOM     17 CL   UNL     1       1.005   2.241  22.486  0.00  0.00    +0.000 Cl
ATOM     18  N   UNL     1       0.786   3.093  20.053  0.00  0.00    +0.000 NA
ATOM     19  C   UNL     1       1.284   3.451  18.848  0.00  0.00    +0.000 A 
ENDBRANCH  12  13
ENDBRANCH   4  12
TORSDOF 4
ENDMDL
MODEL 8
REMARK VINA RESULT:      -6.4      0.664      1.116
REMARK  Name = 
REMARK  4 active torsions:
REMARK  status: ('A' for Active; 'I' for Inactive)
REMARK    1  A    between atoms: C_2  and  N_3
REMARK    2  A    between atoms: N_6  and  C_7
REMARK    3  A    between atoms: C_7  and  C_8
REMARK    4  A    between atoms: N_16  and  N_17
REMARK                            x       y       z     vdW  Elec       q    Type
REMARK                         _______ _______ _______ _____ _____    ______ ____
ROOT
ATOM      1  N   UNL     1       2.610   4.135  20.040  0.00  0.00    +0.000 N 
ATOM      2  C   UNL     1       2.050   5.486  20.093  0.00  0.00    +0.000 C 
ATOM      3  C   UNL     1       3.020   6.298  19.233  0.00  0.00    +0.000 C 
ATOM      4  N   UNL     1       4.196   5.447  19.215  0.00  0.00    +0.000 N 
ATOM      5  C   UNL     1       3.934   4.135  19.602  0.00  0.00    +0.000 C 
ATOM      6  N   UNL     1       4.851   3.226  19.529  0.00  0.00    +0.000 NA
ENDROOT
BRANCH   6   7
ATOM      7  N   UNL     1       4.592   1.994  20.005  0.00  0.00    +0.000 N 
ATOM      8  O   UNL     1       4.818   1.722  21.192  0.00  0.00    +0.000 OA
ATOM      9  O   UNL     1       4.209   1.150  19.186  0.00  0.00    +0.000 OA
ENDBRANCH   6   7
BRANCH   1  11
ATOM     10  N   UNL     1       1.040   2.373  18.930  0.00  0.00    +0.000 NA
ATOM     11  C   UNL     1       1.731   3.143  19.449  0.00  0.00    +0.000 C 
ENDBRANCH   1  11
BRANCH   4  12
ATOM     12  C   UNL     1       5.471   5.963  18.752  0.00  0.00    +0.000 C 
BRANCH  12  13
ATOM     13  C   UNL     1       5.789   5.432  17.378  0.00  0.00    +0.000 A 
ATOM     14  C   UNL     1       6.989   4.766  17.104  0.00  0.00    +0.000 A 
ATOM     15  C   UNL     1       7.267   4.336  15.810  0.00  0.00    +0.000 A 
ATOM     16  C   UNL     1       6.323   4.582  14.830  0.00  0.00    +0.000 A 
ATOM     17 CL   UNL     1       6.605   4.130  13.201  0.00  0.00    +0.000 Cl
ATOM     18  N   UNL     1       5.142   5.194  15.051  0.00  0.00    +0.000 NA
ATOM     19  C   UNL     1       4.901   5.598  16.318  0.00  0.00    +0.000 A 
ENDBRANCH  12  13
ENDBRANCH   4  12
TORSDOF 4
ENDMDL
MODEL 9
REMARK VINA RESULT:      -6.3      3.549      5.515
REMARK  Name = 
REMARK  4 active torsions:
REMARK  status: ('A' for Active; 'I' for Inactive)
REMARK    1  A    between atoms: C_2  and  N_3
REMARK    2  A    between atoms: N_6  and  C_7
REMARK    3  A    between atoms: C_7  and  C_8
REMARK    4  A    between atoms: N_16  and  N_17
REMARK                            x       y       z     vdW  Elec       q    Type
REMARK                         _______ _______ _______ _____ _____    ______ ____
ROOT
ATOM      1  N   UNL     1       6.044   4.373  17.204  0.00  0.00    +0.000 N 
ATOM      2  C   UNL     1       4.967   3.555  16.644  0.00  0.00    +0.000 C 
ATOM      3  C   UNL     1       3.722   4.081  17.360  0.00  0.00    +0.000 C 
ATOM      4  N   UNL     1       4.295   4.747  18.516  0.00  0.00    +0.000 N 
ATOM      5  C   UNL     1       5.656   5.010  18.384  0.00  0.00    +0.000 C 
ATOM      6  N   UNL     1       6.289   5.699  19.276  0.00  0.00    +0.000 NA
ENDROOT
BRANCH   6   7
ATOM      7  N   UNL     1       7.622   5.847  19.167  0.00  0.00    +0.000 N 
ATOM      8  O   UNL     1       8.387   5.012  19.668  0.00  0.00    +0.000 OA
ATOM      9  O   UNL     1       8.025   6.884  18.626  0.00  0.00    +0.000 OA
ENDBRANCH   6   7
BRANCH   1  11
ATOM     10  N   UNL     1       7.358   5.823  15.481  0.00  0.00    +0.000 NA
ATOM     11  C   UNL     1       6.750   5.185  16.231  0.00  0.00    +0.000 C 
ENDBRANCH   1  11
BRANCH   4  12
ATOM     12  C   UNL     1       3.453   5.142  19.630  0.00  0.00    +0.000 C 
BRANCH  12  13
ATOM     13  C   UNL     1       2.827   6.488  19.370  0.00  0.00    +0.000 A 
ATOM     14  C   UNL     1       2.078   7.154  20.347  0.00  0.00    +0.000 A 
ATOM     15  C   UNL     1       1.474   8.373  20.050  0.00  0.00    +0.000 A 
ATOM     16  C   UNL     1       1.650   8.889  18.779  0.00  0.00    +0.000 A 
ATOM     17 CL   UNL     1       0.902  10.360  18.314  0.00  0.00    +0.000 Cl
ATOM     18  N   UNL     1       2.385   8.299  17.815  0.00  0.00    +0.000 NA
ATOM     19  C   UNL     1       2.960   7.118  18.135  0.00  0.00    +0.000 A 
ENDBRANCH  12  13
ENDBRANCH   4  12
TORSDOF 4
ENDMDL
