MODEL 1
REMARK VINA RESULT:      -8.3      0.000      0.000
REMARK  Name = 
REMARK  7 active torsions:
REMARK  status: ('A' for Active; 'I' for Inactive)
REMARK    1  A    between atoms: C_1  and  O_2
REMARK    2  A    between atoms: O_2  and  C_3
REMARK    3  A    between atoms: C_7  and  C_8
REMARK    4  A    between atoms: N_11  and  C_12
REMARK    5  A    between atoms: C_15  and  C_16
REMARK    6  A    between atoms: C_20  and  O_21
REMARK    7  A    between atoms: O_21  and  C_22
REMARK                            x       y       z     vdW  Elec       q    Type
REMARK                         _______ _______ _______ _____ _____    ______ ____
ROOT
ATOM      1  C   UNL     1       0.780   9.695  19.486  0.00  0.00    +0.000 C 
ATOM      2  C   UNL     1       1.592   8.625  19.360  0.00  0.00    +0.000 C 
ATOM      3  C   UNL     1       1.762   7.556  20.399  0.00  0.00    +0.000 C 
ATOM      4  N   UNL     1       2.108   6.262  19.805  0.00  0.00    +0.000 NA
ATOM      5  C   UNL     1       2.155   5.225  20.836  0.00  0.00    +0.000 C 
ATOM      6  C   UNL     1       3.401   6.383  19.129  0.00  0.00    +0.000 C 
ATOM      7  C   UNL     1       3.344   7.364  17.994  0.00  0.00    +0.000 C 
ATOM      8  C   UNL     1       4.091   7.302  16.873  0.00  0.00    +0.000 C 
ATOM      9  C   UNL     1       2.375   8.502  18.093  0.00  0.00    +0.000 C 
ATOM     10  O   UNL     1       2.246   9.318  17.181  0.00  0.00    +0.000 OA
ENDROOT
BRANCH   1  15
ATOM     11  C   UNL     1      -1.266  11.493  22.072  0.00  0.00    +0.000 A 
ATOM     12  C   UNL     1      -1.167  10.601  23.145  0.00  0.00    +0.000 A 
ATOM     13  C   UNL     1      -0.494   9.387  23.003  0.00  0.00    +0.000 A 
ATOM     14  C   UNL     1       0.106   9.062  21.789  0.00  0.00    +0.000 A 
ATOM     15  C   UNL     1       0.021   9.950  20.713  0.00  0.00    +0.000 A 
ATOM     16  C   UNL     1      -0.687  11.154  20.849  0.00  0.00    +0.000 A 
BRANCH  11  18
ATOM     17  C   UNL     1      -3.285  12.749  21.983  0.00  0.00    +0.000 C 
ATOM     18  O   UNL     1      -1.916  12.661  22.357  0.00  0.00    +0.000 OA
ENDBRANCH  11  18
ENDBRANCH   1  15
BRANCH   8  19
ATOM     19  C   UNL     1       5.080   6.261  16.595  0.00  0.00    +0.000 A 
ATOM     20  C   UNL     1       5.112   5.648  15.340  0.00  0.00    +0.000 A 
ATOM     21  C   UNL     1       6.051   4.655  15.072  0.00  0.00    +0.000 A 
ATOM     22  C   UNL     1       6.961   4.276  16.059  0.00  0.00    +0.000 A 
ATOM     23  C   UNL     1       6.941   4.882  17.317  0.00  0.00    +0.000 A 
ATOM     24  C   UNL     1       5.995   5.874  17.585  0.00  0.00    +0.000 A 
BRANCH  23  25
ATOM     25  O   UNL     1       7.887   4.422  18.193  0.00  0.00    +0.000 OA
ATOM     26  C   UNL     1       8.258   5.300  19.249  0.00  0.00    +0.000 C 
ENDBRANCH  23  25
ENDBRANCH   8  19
TORSDOF 4
ENDMDL
MODEL 2
REMARK VINA RESULT:      -8.3      1.106      1.905
REMARK  Name = 
REMARK  7 active torsions:
REMARK  status: ('A' for Active; 'I' for Inactive)
REMARK    1  A    between atoms: C_1  and  O_2
REMARK    2  A    between atoms: O_2  and  C_3
REMARK    3  A    between atoms: C_7  and  C_8
REMARK    4  A    between atoms: N_11  and  C_12
REMARK    5  A    between atoms: C_15  and  C_16
REMARK    6  A    between atoms: C_20  and  O_21
REMARK    7  A    between atoms: O_21  and  C_22
REMARK                            x       y       z     vdW  Elec       q    Type
REMARK                         _______ _______ _______ _____ _____    ______ ____
ROOT
ATOM      1  C   UNL     1       0.938   9.550  19.484  0.00  0.00    +0.000 C 
ATOM      2  C   UNL     1       1.743   8.475  19.348  0.00  0.00    +0.000 C 
ATOM      3  C   UNL     1       1.901   7.393  20.375  0.00  0.00    +0.000 C 
ATOM      4  N   UNL     1       2.240   6.104  19.767  0.00  0.00    +0.000 NA
ATOM      5  C   UNL     1       2.276   5.054  20.785  0.00  0.00    +0.000 C 
ATOM      6  C   UNL     1       3.537   6.224  19.097  0.00  0.00    +0.000 C 
ATOM      7  C   UNL     1       3.491   7.219  17.974  0.00  0.00    +0.000 C 
ATOM      8  C   UNL     1       4.242   7.165  16.855  0.00  0.00    +0.000 C 
ATOM      9  C   UNL     1       2.530   8.363  18.083  0.00  0.00    +0.000 C 
ATOM     10  O   UNL     1       2.410   9.190  17.180  0.00  0.00    +0.000 OA
ENDROOT
BRANCH   1  15
ATOM     11  C   UNL     1      -0.889  11.379  22.209  0.00  0.00    +0.000 A 
ATOM     12  C   UNL     1      -0.998  10.369  23.169  0.00  0.00    +0.000 A 
ATOM     13  C   UNL     1      -0.539   9.077  22.902  0.00  0.00    +0.000 A 
ATOM     14  C   UNL     1       0.053   8.791  21.675  0.00  0.00    +0.000 A 
ATOM     15  C   UNL     1       0.176   9.796  20.711  0.00  0.00    +0.000 A 
ATOM     16  C   UNL     1      -0.318  11.082  20.971  0.00  0.00    +0.000 A 
BRANCH  11  18
ATOM     17  C   UNL     1      -1.826  13.481  21.604  0.00  0.00    +0.000 C 
ATOM     18  O   UNL     1      -1.340  12.604  22.613  0.00  0.00    +0.000 OA
ENDBRANCH  11  18
ENDBRANCH   1  15
BRANCH   8  19
ATOM     19  C   UNL     1       5.225   6.121  16.568  0.00  0.00    +0.000 A 
ATOM     20  C   UNL     1       6.320   5.943  17.417  0.00  0.00    +0.000 A 
ATOM     21  C   UNL     1       7.260   4.952  17.146  0.00  0.00    +0.000 A 
ATOM     22  C   UNL     1       7.104   4.136  16.025  0.00  0.00    +0.000 A 
ATOM     23  C   UNL     1       6.013   4.303  15.169  0.00  0.00    +0.000 A 
ATOM     24  C   UNL     1       5.075   5.300  15.440  0.00  0.00    +0.000 A 
BRANCH  23  25
ATOM     25  O   UNL     1       5.976   3.437  14.109  0.00  0.00    +0.000 OA
ATOM     26  C   UNL     1       6.541   3.900  12.889  0.00  0.00    +0.000 C 
ENDBRANCH  23  25
ENDBRANCH   8  19
TORSDOF 4
ENDMDL
MODEL 3
REMARK VINA RESULT:      -8.1      3.141      5.266
REMARK  Name = 
REMARK  7 active torsions:
REMARK  status: ('A' for Active; 'I' for Inactive)
REMARK    1  A    between atoms: C_1  and  O_2
REMARK    2  A    between atoms: O_2  and  C_3
REMARK    3  A    between atoms: C_7  and  C_8
REMARK    4  A    between atoms: N_11  and  C_12
REMARK    5  A    between atoms: C_15  and  C_16
REMARK    6  A    between atoms: C_20  and  O_21
REMARK    7  A    between atoms: O_21  and  C_22
REMARK                            x       y       z     vdW  Elec       q    Type
REMARK                         _______ _______ _______ _____ _____    ______ ____
ROOT
ATOM      1  C   UNL     1      -1.411  11.864  23.305  0.00  0.00    +0.000 C 
ATOM      2  C   UNL     1      -0.985  11.220  22.198  0.00  0.00    +0.000 C 
ATOM      3  C   UNL     1      -1.436  11.535  20.802  0.00  0.00    +0.000 C 
ATOM      4  N   UNL     1      -0.407  11.220  19.808  0.00  0.00    +0.000 NA
ATOM      5  C   UNL     1      -0.839  11.643  18.476  0.00  0.00    +0.000 C 
ATOM      6  C   UNL     1      -0.146   9.779  19.838  0.00  0.00    +0.000 C 
ATOM      7  C   UNL     1       0.403   9.342  21.164  0.00  0.00    +0.000 C 
ATOM      8  C   UNL     1       1.246   8.307  21.355  0.00  0.00    +0.000 C 
ATOM      9  C   UNL     1       0.003  10.115  22.383  0.00  0.00    +0.000 C 
ATOM     10  O   UNL     1       0.451   9.838  23.496  0.00  0.00    +0.000 OA
ENDROOT
BRANCH   1  15
ATOM     11  C   UNL     1      -4.761  13.528  22.967  0.00  0.00    +0.000 A 
ATOM     12  C   UNL     1      -4.372  14.862  22.816  0.00  0.00    +0.000 A 
ATOM     13  C   UNL     1      -3.027  15.227  22.894  0.00  0.00    +0.000 A 
ATOM     14  C   UNL     1      -2.054  14.253  23.104  0.00  0.00    +0.000 A 
ATOM     15  C   UNL     1      -2.431  12.914  23.245  0.00  0.00    +0.000 A 
ATOM     16  C   UNL     1      -3.787  12.557  23.202  0.00  0.00    +0.000 A 
BRANCH  11  18
ATOM     17  C   UNL     1      -6.904  13.424  23.997  0.00  0.00    +0.000 C 
ATOM     18  O   UNL     1      -6.103  13.303  22.828  0.00  0.00    +0.000 OA
ENDBRANCH  11  18
ENDBRANCH   1  15
BRANCH   8  19
ATOM     19  C   UNL     1       1.752   7.445  20.287  0.00  0.00    +0.000 A 
ATOM     20  C   UNL     1       2.227   8.011  19.101  0.00  0.00    +0.000 A 
ATOM     21  C   UNL     1       2.707   7.194  18.081  0.00  0.00    +0.000 A 
ATOM     22  C   UNL     1       2.715   5.809  18.247  0.00  0.00    +0.000 A 
ATOM     23  C   UNL     1       2.245   5.231  19.428  0.00  0.00    +0.000 A 
ATOM     24  C   UNL     1       1.759   6.052  20.447  0.00  0.00    +0.000 A 
BRANCH  23  25
ATOM     25  O   UNL     1       2.310   3.864  19.465  0.00  0.00    +0.000 OA
ATOM     26  C   UNL     1       3.159   3.241  18.509  0.00  0.00    +0.000 C 
ENDBRANCH  23  25
ENDBRANCH   8  19
TORSDOF 4
ENDMDL
MODEL 4
REMARK VINA RESULT:      -8.0      2.973      5.250
REMARK  Name = 
REMARK  7 active torsions:
REMARK  status: ('A' for Active; 'I' for Inactive)
REMARK    1  A    between atoms: C_1  and  O_2
REMARK    2  A    between atoms: O_2  and  C_3
REMARK    3  A    between atoms: C_7  and  C_8
REMARK    4  A    between atoms: N_11  and  C_12
REMARK    5  A    between atoms: C_15  and  C_16
REMARK    6  A    between atoms: C_20  and  O_21
REMARK    7  A    between atoms: O_21  and  C_22
REMARK                            x       y       z     vdW  Elec       q    Type
REMARK                         _______ _______ _______ _____ _____    ______ ____
ROOT
ATOM      1  C   UNL     1      -1.474  11.807  23.377  0.00  0.00    +0.000 C 
ATOM      2  C   UNL     1      -1.012  11.221  22.252  0.00  0.00    +0.000 C 
ATOM      3  C   UNL     1      -1.416  11.611  20.861  0.00  0.00    +0.000 C 
ATOM      4  N   UNL     1      -0.355  11.346  19.886  0.00  0.00    +0.000 NA
ATOM      5  C   UNL     1      -0.742  11.841  18.565  0.00  0.00    +0.000 C 
ATOM      6  C   UNL     1      -0.097   9.906  19.848  0.00  0.00    +0.000 C 
ATOM      7  C   UNL     1       0.407   9.397  21.167  0.00  0.00    +0.000 C 
ATOM      8  C   UNL     1       1.242   8.351  21.330  0.00  0.00    +0.000 C 
ATOM      9  C   UNL     1      -0.032  10.105  22.412  0.00  0.00    +0.000 C 
ATOM     10  O   UNL     1       0.378   9.768  23.522  0.00  0.00    +0.000 OA
ENDROOT
BRANCH   1  15
ATOM     11  C   UNL     1      -3.044  15.215  23.530  0.00  0.00    +0.000 A 
ATOM     12  C   UNL     1      -4.398  14.873  23.587  0.00  0.00    +0.000 A 
ATOM     13  C   UNL     1      -4.801  13.539  23.505  0.00  0.00    +0.000 A 
ATOM     14  C   UNL     1      -3.848  12.531  23.387  0.00  0.00    +0.000 A 
ATOM     15  C   UNL     1      -2.490  12.861  23.340  0.00  0.00    +0.000 A 
ATOM     16  C   UNL     1      -2.092  14.206  23.386  0.00  0.00    +0.000 A 
BRANCH  11  18
ATOM     17  C   UNL     1      -2.908  17.110  24.964  0.00  0.00    +0.000 C 
ATOM     18  O   UNL     1      -2.785  16.551  23.662  0.00  0.00    +0.000 OA
ENDBRANCH  11  18
ENDBRANCH   1  15
BRANCH   8  19
ATOM     19  C   UNL     1       1.783   7.545  20.235  0.00  0.00    +0.000 A 
ATOM     20  C   UNL     1       2.152   8.159  19.035  0.00  0.00    +0.000 A 
ATOM     21  C   UNL     1       2.664   7.395  17.989  0.00  0.00    +0.000 A 
ATOM     22  C   UNL     1       2.810   6.016  18.144  0.00  0.00    +0.000 A 
ATOM     23  C   UNL     1       2.446   5.391  19.339  0.00  0.00    +0.000 A 
ATOM     24  C   UNL     1       1.927   6.158  20.384  0.00  0.00    +0.000 A 
BRANCH  23  25
ATOM     25  O   UNL     1       2.642   4.036  19.361  0.00  0.00    +0.000 OA
ATOM     26  C   UNL     1       3.899   3.567  18.890  0.00  0.00    +0.000 C 
ENDBRANCH  23  25
ENDBRANCH   8  19
TORSDOF 4
ENDMDL
MODEL 5
REMARK VINA RESULT:      -7.9      1.948      9.138
REMARK  Name = 
REMARK  7 active torsions:
REMARK  status: ('A' for Active; 'I' for Inactive)
REMARK    1  A    between atoms: C_1  and  O_2
REMARK    2  A    between atoms: O_2  and  C_3
REMARK    3  A    between atoms: C_7  and  C_8
REMARK    4  A    between atoms: N_11  and  C_12
REMARK    5  A    between atoms: C_15  and  C_16
REMARK    6  A    between atoms: C_20  and  O_21
REMARK    7  A    between atoms: O_21  and  C_22
REMARK                            x       y       z     vdW  Elec       q    Type
REMARK                         _______ _______ _______ _____ _____    ______ ____
ROOT
ATOM      1  C   UNL     1       2.841   7.558  17.964  0.00  0.00    +0.000 C 
ATOM      2  C   UNL     1       2.059   8.276  18.797  0.00  0.00    +0.000 C 
ATOM      3  C   UNL     1       1.662   7.843  20.178  0.00  0.00    +0.000 C 
ATOM      4  N   UNL     1       1.430   8.985  21.066  0.00  0.00    +0.000 NA
ATOM      5  C   UNL     1       1.156   8.524  22.427  0.00  0.00    +0.000 C 
ATOM      6  C   UNL     1       0.309   9.769  20.546  0.00  0.00    +0.000 C 
ATOM      7  C   UNL     1       0.614  10.344  19.193  0.00  0.00    +0.000 C 
ATOM      8  C   UNL     1       0.117  11.500  18.709  0.00  0.00    +0.000 C 
ATOM      9  C   UNL     1       1.556   9.593  18.303  0.00  0.00    +0.000 C 
ATOM     10  O   UNL     1       1.883  10.029  17.200  0.00  0.00    +0.000 OA
ENDROOT
BRANCH   1  15
ATOM     11  C   UNL     1       5.208   4.749  18.748  0.00  0.00    +0.000 A 
ATOM     12  C   UNL     1       4.339   3.655  18.688  0.00  0.00    +0.000 A 
ATOM     13  C   UNL     1       2.974   3.839  18.461  0.00  0.00    +0.000 A 
ATOM     14  C   UNL     1       2.469   5.123  18.271  0.00  0.00    +0.000 A 
ATOM     15  C   UNL     1       3.330   6.223  18.319  0.00  0.00    +0.000 A 
ATOM     16  C   UNL     1       4.695   6.036  18.583  0.00  0.00    +0.000 A 
BRANCH  11  18
ATOM     17  C   UNL     1       7.419   4.717  17.870  0.00  0.00    +0.000 C 
ATOM     18  O   UNL     1       6.523   4.426  18.935  0.00  0.00    +0.000 OA
ENDBRANCH  11  18
ENDBRANCH   1  15
BRANCH   8  19
ATOM     19  C   UNL     1      -0.806  12.372  19.434  0.00  0.00    +0.000 A 
ATOM     20  C   UNL     1      -0.329  13.529  20.055  0.00  0.00    +0.000 A 
ATOM     21  C   UNL     1      -1.204  14.361  20.749  0.00  0.00    +0.000 A 
ATOM     22  C   UNL     1      -2.559  14.037  20.821  0.00  0.00    +0.000 A 
ATOM     23  C   UNL     1      -3.049  12.883  20.204  0.00  0.00    +0.000 A 
ATOM     24  C   UNL     1      -2.169  12.048  19.513  0.00  0.00    +0.000 A 
BRANCH  23  25
ATOM     25  O   UNL     1      -4.396  12.682  20.347  0.00  0.00    +0.000 OA
ATOM     26  C   UNL     1      -4.939  12.915  21.641  0.00  0.00    +0.000 C 
ENDBRANCH  23  25
ENDBRANCH   8  19
TORSDOF 4
ENDMDL
MODEL 6
REMARK VINA RESULT:      -7.8      2.810      4.021
REMARK  Name = 
REMARK  7 active torsions:
REMARK  status: ('A' for Active; 'I' for Inactive)
REMARK    1  A    between atoms: C_1  and  O_2
REMARK    2  A    between atoms: O_2  and  C_3
REMARK    3  A    between atoms: C_7  and  C_8
REMARK    4  A    between atoms: N_11  and  C_12
REMARK    5  A    between atoms: C_15  and  C_16
REMARK    6  A    between atoms: C_20  and  O_21
REMARK    7  A    between atoms: O_21  and  C_22
REMARK                            x       y       z     vdW  Elec       q    Type
REMARK                         _______ _______ _______ _____ _____    ______ ____
ROOT
ATOM      1  C   UNL     1       0.945  11.931  18.877  0.00  0.00    +0.000 C 
ATOM      2  C   UNL     1       1.118  10.662  19.299  0.00  0.00    +0.000 C 
ATOM      3  C   UNL     1       0.712  10.149  20.648  0.00  0.00    +0.000 C 
ATOM      4  N   UNL     1       0.381   8.722  20.618  0.00  0.00    +0.000 NA
ATOM      5  C   UNL     1      -0.117   8.286  21.922  0.00  0.00    +0.000 C 
ATOM      6  C   UNL     1       1.576   7.967  20.237  0.00  0.00    +0.000 C 
ATOM      7  C   UNL     1       2.039   8.321  18.854  0.00  0.00    +0.000 C 
ATOM      8  C   UNL     1       2.679   7.487  18.010  0.00  0.00    +0.000 C 
ATOM      9  C   UNL     1       1.764   9.705  18.350  0.00  0.00    +0.000 C 
ATOM     10  O   UNL     1       2.077  10.048  17.210  0.00  0.00    +0.000 OA
ENDROOT
BRANCH   1  15
ATOM     11  C   UNL     1       0.686  14.482  21.622  0.00  0.00    +0.000 A 
ATOM     12  C   UNL     1      -0.693  14.710  21.633  0.00  0.00    +0.000 A 
ATOM     13  C   UNL     1      -1.527  14.087  20.703  0.00  0.00    +0.000 A 
ATOM     14  C   UNL     1      -0.988  13.211  19.764  0.00  0.00    +0.000 A 
ATOM     15  C   UNL     1       0.388  12.968  19.750  0.00  0.00    +0.000 A 
ATOM     16  C   UNL     1       1.227  13.624  20.664  0.00  0.00    +0.000 A 
BRANCH  11  18
ATOM     17  C   UNL     1       1.176  16.523  22.743  0.00  0.00    +0.000 C 
ATOM     18  O   UNL     1       1.380  15.122  22.611  0.00  0.00    +0.000 OA
ENDBRANCH  11  18
ENDBRANCH   1  15
BRANCH   8  19
ATOM     19  C   UNL     1       3.025   6.100  18.321  0.00  0.00    +0.000 A 
ATOM     20  C   UNL     1       4.221   5.812  18.982  0.00  0.00    +0.000 A 
ATOM     21  C   UNL     1       4.555   4.493  19.277  0.00  0.00    +0.000 A 
ATOM     22  C   UNL     1       3.691   3.460  18.913  0.00  0.00    +0.000 A 
ATOM     23  C   UNL     1       2.491   3.735  18.253  0.00  0.00    +0.000 A 
ATOM     24  C   UNL     1       2.161   5.057  17.953  0.00  0.00    +0.000 A 
BRANCH  23  25
ATOM     25  O   UNL     1       1.734   2.634  17.954  0.00  0.00    +0.000 OA
ATOM     26  C   UNL     1       0.647   2.353  18.827  0.00  0.00    +0.000 C 
ENDBRANCH  23  25
ENDBRANCH   8  19
TORSDOF 4
ENDMDL
MODEL 7
REMARK VINA RESULT:      -7.8      2.919     10.166
REMARK  Name = 
REMARK  7 active torsions:
REMARK  status: ('A' for Active; 'I' for Inactive)
REMARK    1  A    between atoms: C_1  and  O_2
REMARK    2  A    between atoms: O_2  and  C_3
REMARK    3  A    between atoms: C_7  and  C_8
REMARK    4  A    between atoms: N_11  and  C_12
REMARK    5  A    between atoms: C_15  and  C_16
REMARK    6  A    between atoms: C_20  and  O_21
REMARK    7  A    between atoms: O_21  and  C_22
REMARK                            x       y       z     vdW  Elec       q    Type
REMARK                         _______ _______ _______ _____ _____    ______ ____
ROOT
ATOM      1  C   UNL     1       1.311   8.351  21.169  0.00  0.00    +0.000 C 
ATOM      2  C   UNL     1       0.483   9.400  20.984  0.00  0.00    +0.000 C 
ATOM      3  C   UNL     1      -0.002   9.879  19.648  0.00  0.00    +0.000 C 
ATOM      4  N   UNL     1      -1.319  10.515  19.736  0.00  0.00    +0.000 NA
ATOM      5  C   UNL     1      -1.806  10.867  18.402  0.00  0.00    +0.000 C 
ATOM      6  C   UNL     1      -1.215  11.704  20.584  0.00  0.00    +0.000 C 
ATOM      7  C   UNL     1      -0.823  11.351  21.989  0.00  0.00    +0.000 C 
ATOM      8  C   UNL     1      -1.180  12.039  23.092  0.00  0.00    +0.000 C 
ATOM      9  C   UNL     1       0.020  10.132  22.202  0.00  0.00    +0.000 C 
ATOM     10  O   UNL     1       0.341   9.762  23.331  0.00  0.00    +0.000 OA
ENDROOT
BRANCH   1  15
ATOM     11  C   UNL     1       2.871   5.561  19.196  0.00  0.00    +0.000 A 
ATOM     12  C   UNL     1       3.246   6.244  18.035  0.00  0.00    +0.000 A 
ATOM     13  C   UNL     1       2.929   7.593  17.867  0.00  0.00    +0.000 A 
ATOM     14  C   UNL     1       2.251   8.278  18.872  0.00  0.00    +0.000 A 
ATOM     15  C   UNL     1       1.880   7.607  20.042  0.00  0.00    +0.000 A 
ATOM     16  C   UNL     1       2.169   6.243  20.191  0.00  0.00    +0.000 A 
BRANCH  11  18
ATOM     17  C   UNL     1       2.747   3.456  20.298  0.00  0.00    +0.000 C 
ATOM     18  O   UNL     1       3.278   4.257  19.250  0.00  0.00    +0.000 OA
ENDBRANCH  11  18
ENDBRANCH   1  15
BRANCH   8  19
ATOM     19  C   UNL     1      -2.007  13.246  23.083  0.00  0.00    +0.000 A 
ATOM     20  C   UNL     1      -1.418  14.493  22.857  0.00  0.00    +0.000 A 
ATOM     21  C   UNL     1      -2.200  15.644  22.850  0.00  0.00    +0.000 A 
ATOM     22  C   UNL     1      -3.575  15.550  23.069  0.00  0.00    +0.000 A 
ATOM     23  C   UNL     1      -4.177  14.310  23.296  0.00  0.00    +0.000 A 
ATOM     24  C   UNL     1      -3.389  13.157  23.307  0.00  0.00    +0.000 A 
BRANCH  23  25
ATOM     25  O   UNL     1      -5.531  14.355  23.493  0.00  0.00    +0.000 OA
ATOM     26  C   UNL     1      -6.183  13.112  23.717  0.00  0.00    +0.000 C 
ENDBRANCH  23  25
ENDBRANCH   8  19
TORSDOF 4
ENDMDL
MODEL 8
REMARK VINA RESULT:      -7.7      2.409      3.391
REMARK  Name = 
REMARK  7 active torsions:
REMARK  status: ('A' for Active; 'I' for Inactive)
REMARK    1  A    between atoms: C_1  and  O_2
REMARK    2  A    between atoms: O_2  and  C_3
REMARK    3  A    between atoms: C_7  and  C_8
REMARK    4  A    between atoms: N_11  and  C_12
REMARK    5  A    between atoms: C_15  and  C_16
REMARK    6  A    between atoms: C_20  and  O_21
REMARK    7  A    between atoms: O_21  and  C_22
REMARK                            x       y       z     vdW  Elec       q    Type
REMARK                         _______ _______ _______ _____ _____    ______ ____
ROOT
ATOM      1  C   UNL     1       0.873  12.129  19.004  0.00  0.00    +0.000 C 
ATOM      2  C   UNL     1       1.073  10.844  19.366  0.00  0.00    +0.000 C 
ATOM      3  C   UNL     1       0.672  10.259  20.688  0.00  0.00    +0.000 C 
ATOM      4  N   UNL     1       0.372   8.828  20.588  0.00  0.00    +0.000 NA
ATOM      5  C   UNL     1      -0.121   8.320  21.868  0.00  0.00    +0.000 C 
ATOM      6  C   UNL     1       1.584   8.118  20.177  0.00  0.00    +0.000 C 
ATOM      7  C   UNL     1       2.044   8.548  18.815  0.00  0.00    +0.000 C 
ATOM      8  C   UNL     1       2.705   7.769  17.935  0.00  0.00    +0.000 C 
ATOM      9  C   UNL     1       1.741   9.947  18.376  0.00  0.00    +0.000 C 
ATOM     10  O   UNL     1       2.051  10.352  17.255  0.00  0.00    +0.000 OA
ENDROOT
BRANCH   1  15
ATOM     11  C   UNL     1       0.586  14.636  21.787  0.00  0.00    +0.000 A 
ATOM     12  C   UNL     1      -0.804  14.746  21.892  0.00  0.00    +0.000 A 
ATOM     13  C   UNL     1      -1.643  14.058  21.014  0.00  0.00    +0.000 A 
ATOM     14  C   UNL     1      -1.097  13.235  20.033  0.00  0.00    +0.000 A 
ATOM     15  C   UNL     1       0.291  13.110  19.924  0.00  0.00    +0.000 A 
ATOM     16  C   UNL     1       1.131  13.831  20.786  0.00  0.00    +0.000 A 
BRANCH  11  18
ATOM     17  C   UNL     1       0.724  16.550  23.194  0.00  0.00    +0.000 C 
ATOM     18  O   UNL     1       1.289  15.329  22.733  0.00  0.00    +0.000 OA
ENDBRANCH  11  18
ENDBRANCH   1  15
BRANCH   8  19
ATOM     19  C   UNL     1       3.080   6.376  18.181  0.00  0.00    +0.000 A 
ATOM     20  C   UNL     1       2.095   5.386  18.217  0.00  0.00    +0.000 A 
ATOM     21  C   UNL     1       2.447   4.060  18.454  0.00  0.00    +0.000 A 
ATOM     22  C   UNL     1       3.786   3.722  18.653  0.00  0.00    +0.000 A 
ATOM     23  C   UNL     1       4.780   4.702  18.618  0.00  0.00    +0.000 A 
ATOM     24  C   UNL     1       4.424   6.032  18.386  0.00  0.00    +0.000 A 
BRANCH  23  25
ATOM     25  O   UNL     1       6.052   4.239  18.826  0.00  0.00    +0.000 OA
ATOM     26  C   UNL     1       7.050   4.693  17.920  0.00  0.00    +0.000 C 
ENDBRANCH  23  25
ENDBRANCH   8  19
TORSDOF 4
ENDMDL
MODEL 9
REMARK VINA RESULT:      -7.7      2.939      3.956
REMARK  Name = 
REMARK  7 active torsions:
REMARK  status: ('A' for Active; 'I' for Inactive)
REMARK    1  A    between atoms: C_1  and  O_2
REMARK    2  A    between atoms: O_2  and  C_3
REMARK    3  A    between atoms: C_7  and  C_8
REMARK    4  A    between atoms: N_11  and  C_12
REMARK    5  A    between atoms: C_15  and  C_16
REMARK    6  A    between atoms: C_20  and  O_21
REMARK    7  A    between atoms: O_21  and  C_22
REMARK                            x       y       z     vdW  Elec       q    Type
REMARK                         _______ _______ _______ _____ _____    ______ ____
ROOT
ATOM      1  C   UNL     1       1.502  12.033  18.888  0.00  0.00    +0.000 C 
ATOM      2  C   UNL     1       1.447  10.746  19.289  0.00  0.00    +0.000 C 
ATOM      3  C   UNL     1       0.934  10.290  20.622  0.00  0.00    +0.000 C 
ATOM      4  N   UNL     1       0.363   8.942  20.559  0.00  0.00    +0.000 NA
ATOM      5  C   UNL     1      -0.226   8.577  21.848  0.00  0.00    +0.000 C 
ATOM      6  C   UNL     1       1.418   7.999  20.183  0.00  0.00    +0.000 C 
ATOM      7  C   UNL     1       1.960   8.290  18.814  0.00  0.00    +0.000 C 
ATOM      8  C   UNL     1       2.462   7.371  17.965  0.00  0.00    +0.000 C 
ATOM      9  C   UNL     1       1.936   9.708  18.332  0.00  0.00    +0.000 C 
ATOM     10  O   UNL     1       2.324  10.010  17.204  0.00  0.00    +0.000 OA
ENDROOT
BRANCH   1  15
ATOM     11  C   UNL     1       1.650  14.570  21.654  0.00  0.00    +0.000 A 
ATOM     12  C   UNL     1       0.323  15.009  21.673  0.00  0.00    +0.000 A 
ATOM     13  C   UNL     1      -0.600  14.531  20.741  0.00  0.00    +0.000 A 
ATOM     14  C   UNL     1      -0.206  13.590  19.793  0.00  0.00    +0.000 A 
ATOM     15  C   UNL     1       1.116  13.136  19.772  0.00  0.00    +0.000 A 
ATOM     16  C   UNL     1       2.049  13.647  20.687  0.00  0.00    +0.000 A 
BRANCH  11  18
ATOM     17  C   UNL     1       2.570  16.502  22.697  0.00  0.00    +0.000 C 
ATOM     18  O   UNL     1       2.439  15.087  22.645  0.00  0.00    +0.000 OA
ENDBRANCH  11  18
ENDBRANCH   1  15
BRANCH   8  19
ATOM     19  C   UNL     1       2.559   5.941  18.255  0.00  0.00    +0.000 A 
ATOM     20  C   UNL     1       1.503   5.089  17.921  0.00  0.00    +0.000 A 
ATOM     21  C   UNL     1       1.590   3.727  18.198  0.00  0.00    +0.000 A 
ATOM     22  C   UNL     1       2.736   3.215  18.809  0.00  0.00    +0.000 A 
ATOM     23  C   UNL     1       3.799   4.056  19.147  0.00  0.00    +0.000 A 
ATOM     24  C   UNL     1       3.707   5.422  18.873  0.00  0.00    +0.000 A 
BRANCH  23  25
ATOM     25  O   UNL     1       4.863   3.428  19.738  0.00  0.00    +0.000 OA
ATOM     26  C   UNL     1       4.639   2.106  20.210  0.00  0.00    +0.000 C 
ENDBRANCH  23  25
ENDBRANCH   8  19
TORSDOF 4
ENDMDL
