MODEL 1
REMARK VINA RESULT:      -8.3      0.000      0.000
REMARK  Name = 
REMARK  5 active torsions:
REMARK  status: ('A' for Active; 'I' for Inactive)
REMARK    1  A    between atoms: N_1  and  S_2
REMARK    2  A    between atoms: S_2  and  C_5
REMARK    3  A    between atoms: C_8  and  N_9
REMARK    4  A    between atoms: C_11  and  C_12
REMARK    5  A    between atoms: C_18  and  C_19
REMARK                            x       y       z     vdW  Elec       q    Type
REMARK                         _______ _______ _______ _____ _____    ______ ____
ROOT
ATOM      1  N   UNL     1       3.646   6.063  17.998  0.00  0.00    +0.000 N 
ATOM      2  N   UNL     1       4.200   6.151  16.757  0.00  0.00    +0.000 NA
ATOM      3  C   UNL     1       4.880   5.058  16.581  0.00  0.00    +0.000 C 
ATOM      4  C   UNL     1       4.831   4.065  17.702  0.00  0.00    +0.000 C 
ATOM      5  C   UNL     1       3.896   4.781  18.669  0.00  0.00    +0.000 C 
ENDROOT
BRANCH   1   9
ATOM      6  C   UNL     1       1.294   9.158  19.628  0.00  0.00    +0.000 A 
ATOM      7  C   UNL     1       1.737   9.250  18.304  0.00  0.00    +0.000 A 
ATOM      8  C   UNL     1       2.527   8.219  17.779  0.00  0.00    +0.000 A 
ATOM      9  C   UNL     1       2.872   7.087  18.534  0.00  0.00    +0.000 A 
ATOM     10  C   UNL     1       2.399   7.026  19.861  0.00  0.00    +0.000 A 
ATOM     11  C   UNL     1       1.634   8.056  20.408  0.00  0.00    +0.000 A 
BRANCH   6  12
ATOM     12  S   UNL     1       0.367  10.468  20.363  0.00  0.00    +0.000 S 
ATOM     13  O   UNL     1       0.717  10.587  21.757  0.00  0.00    +0.000 OA
ATOM     14  O   UNL     1      -1.009  10.380  19.918  0.00  0.00    +0.000 OA
BRANCH  12  15
ATOM     15  N   UNL     1       1.002  11.818  19.594  0.00  0.00    +0.000 NA
ATOM     16  H   UNL     1       2.020  11.804  19.682  0.00  0.00    +0.000 HD
ATOM     17  H   UNL     1       0.574  12.670  19.954  0.00  0.00    +0.000 HD
ENDBRANCH  12  15
ENDBRANCH   6  12
ENDBRANCH   1   9
BRANCH   3  18
ATOM     18  C   UNL     1       5.648   4.790  15.401  0.00  0.00    +0.000 A 
ATOM     19  C   UNL     1       5.455   3.921  14.347  0.00  0.00    +0.000 A 
ATOM     20  C   UNL     1       6.568   4.078  13.482  0.00  0.00    +0.000 A 
ATOM     21  C   UNL     1       7.362   5.042  14.053  0.00  0.00    +0.000 A 
ATOM     22  O   UNL     1       6.810   5.487  15.211  0.00  0.00    +0.000 OA
ENDBRANCH   3  18
BRANCH   5  23
ATOM     23  C   UNL     1       2.671   3.960  18.933  0.00  0.00    +0.000 A 
ATOM     24  C   UNL     1       1.584   3.606  18.157  0.00  0.00    +0.000 A 
ATOM     25  C   UNL     1       0.732   2.845  18.988  0.00  0.00    +0.000 A 
ATOM     26  C   UNL     1       1.352   2.777  20.213  0.00  0.00    +0.000 A 
ATOM     27  O   UNL     1       2.533   3.447  20.190  0.00  0.00    +0.000 OA
ENDBRANCH   5  23
TORSDOF 5
ENDMDL
MODEL 2
REMARK VINA RESULT:      -8.3      0.759      1.401
REMARK  Name = 
REMARK  5 active torsions:
REMARK  status: ('A' for Active; 'I' for Inactive)
REMARK    1  A    between atoms: N_1  and  S_2
REMARK    2  A    between atoms: S_2  and  C_5
REMARK    3  A    between atoms: C_8  and  N_9
REMARK    4  A    between atoms: C_11  and  C_12
REMARK    5  A    between atoms: C_18  and  C_19
REMARK                            x       y       z     vdW  Elec       q    Type
REMARK                         _______ _______ _______ _____ _____    ______ ____
ROOT
ATOM      1  N   UNL     1       3.544   6.112  18.158  0.00  0.00    +0.000 N 
ATOM      2  N   UNL     1       4.104   6.201  16.920  0.00  0.00    +0.000 NA
ATOM      3  C   UNL     1       4.808   5.121  16.757  0.00  0.00    +0.000 C 
ATOM      4  C   UNL     1       4.773   4.137  17.887  0.00  0.00    +0.000 C 
ATOM      5  C   UNL     1       3.818   4.843  18.843  0.00  0.00    +0.000 C 
ENDROOT
BRANCH   1   9
ATOM      6  C   UNL     1       1.134   9.188  19.738  0.00  0.00    +0.000 A 
ATOM      7  C   UNL     1       1.497   8.109  20.550  0.00  0.00    +0.000 A 
ATOM      8  C   UNL     1       2.290   7.087  20.008  0.00  0.00    +0.000 A 
ATOM      9  C   UNL     1       2.746   7.125  18.681  0.00  0.00    +0.000 A 
ATOM     10  C   UNL     1       2.368   8.234  17.898  0.00  0.00    +0.000 A 
ATOM     11  C   UNL     1       1.557   9.245  18.414  0.00  0.00    +0.000 A 
BRANCH   6  12
ATOM     12  S   UNL     1       0.069  10.458  20.347  0.00  0.00    +0.000 S 
ATOM     13  O   UNL     1      -1.120  10.525  19.533  0.00  0.00    +0.000 OA
ATOM     14  O   UNL     1       0.861  11.631  20.655  0.00  0.00    +0.000 OA
BRANCH  12  15
ATOM     15  N   UNL     1      -0.403   9.833  21.832  0.00  0.00    +0.000 NA
ATOM     16  H   UNL     1      -0.961  10.532  22.326  0.00  0.00    +0.000 HD
ATOM     17  H   UNL     1       0.409   9.513  22.360  0.00  0.00    +0.000 HD
ENDBRANCH  12  15
ENDBRANCH   6  12
ENDBRANCH   1   9
BRANCH   3  18
ATOM     18  C   UNL     1       5.587   4.859  15.585  0.00  0.00    +0.000 A 
ATOM     19  C   UNL     1       5.411   3.987  14.529  0.00  0.00    +0.000 A 
ATOM     20  C   UNL     1       6.529   4.152  13.674  0.00  0.00    +0.000 A 
ATOM     21  C   UNL     1       7.310   5.123  14.250  0.00  0.00    +0.000 A 
ATOM     22  O   UNL     1       6.745   5.565  15.404  0.00  0.00    +0.000 OA
ENDBRANCH   3  18
BRANCH   5  23
ATOM     23  C   UNL     1       2.609   3.999  19.108  0.00  0.00    +0.000 A 
ATOM     24  C   UNL     1       1.572   3.553  18.310  0.00  0.00    +0.000 A 
ATOM     25  C   UNL     1       0.706   2.821  19.152  0.00  0.00    +0.000 A 
ATOM     26  C   UNL     1       1.269   2.859  20.406  0.00  0.00    +0.000 A 
ATOM     27  O   UNL     1       2.428   3.568  20.390  0.00  0.00    +0.000 OA
ENDBRANCH   5  23
TORSDOF 5
ENDMDL
MODEL 3
REMARK VINA RESULT:      -8.2      1.099      1.713
REMARK  Name = 
REMARK  5 active torsions:
REMARK  status: ('A' for Active; 'I' for Inactive)
REMARK    1  A    between atoms: N_1  and  S_2
REMARK    2  A    between atoms: S_2  and  C_5
REMARK    3  A    between atoms: C_8  and  N_9
REMARK    4  A    between atoms: C_11  and  C_12
REMARK    5  A    between atoms: C_18  and  C_19
REMARK                            x       y       z     vdW  Elec       q    Type
REMARK                         _______ _______ _______ _____ _____    ______ ____
ROOT
ATOM      1  N   UNL     1       3.358   6.588  18.572  0.00  0.00    +0.000 N 
ATOM      2  N   UNL     1       3.932   6.499  17.340  0.00  0.00    +0.000 NA
ATOM      3  C   UNL     1       4.745   5.486  17.387  0.00  0.00    +0.000 C 
ATOM      4  C   UNL     1       4.787   4.735  18.683  0.00  0.00    +0.000 C 
ATOM      5  C   UNL     1       3.745   5.505  19.485  0.00  0.00    +0.000 C 
ENDROOT
BRANCH   1   9
ATOM      6  C   UNL     1       0.614   9.640  19.536  0.00  0.00    +0.000 A 
ATOM      7  C   UNL     1       1.062   8.771  20.537  0.00  0.00    +0.000 A 
ATOM      8  C   UNL     1       1.965   7.754  20.199  0.00  0.00    +0.000 A 
ATOM      9  C   UNL     1       2.450   7.593  18.892  0.00  0.00    +0.000 A 
ATOM     10  C   UNL     1       1.984   8.493  17.913  0.00  0.00    +0.000 A 
ATOM     11  C   UNL     1       1.064   9.494  18.226  0.00  0.00    +0.000 A 
BRANCH   6  12
ATOM     12  S   UNL     1      -0.586  10.884  19.891  0.00  0.00    +0.000 S 
ATOM     13  O   UNL     1      -0.819  10.941  21.313  0.00  0.00    +0.000 OA
ATOM     14  O   UNL     1      -1.669  10.782  18.934  0.00  0.00    +0.000 OA
BRANCH  12  15
ATOM     15  N   UNL     1       0.239  12.288  19.485  0.00  0.00    +0.000 NA
ATOM     16  H   UNL     1      -0.237  13.089  19.906  0.00  0.00    +0.000 HD
ATOM     17  H   UNL     1       0.343  12.363  18.473  0.00  0.00    +0.000 HD
ENDBRANCH  12  15
ENDBRANCH   6  12
ENDBRANCH   1   9
BRANCH   3  18
ATOM     18  C   UNL     1       5.572   5.090  16.286  0.00  0.00    +0.000 A 
ATOM     19  C   UNL     1       6.879   5.385  15.955  0.00  0.00    +0.000 A 
ATOM     20  C   UNL     1       7.146   4.725  14.729  0.00  0.00    +0.000 A 
ATOM     21  C   UNL     1       5.994   4.056  14.396  0.00  0.00    +0.000 A 
ATOM     22  O   UNL     1       5.036   4.263  15.336  0.00  0.00    +0.000 OA
ENDBRANCH   3  18
BRANCH   5  23
ATOM     23  C   UNL     1       2.622   4.606  19.904  0.00  0.00    +0.000 A 
ATOM     24  C   UNL     1       2.162   4.177  21.134  0.00  0.00    +0.000 A 
ATOM     25  C   UNL     1       1.086   3.300  20.874  0.00  0.00    +0.000 A 
ATOM     26  C   UNL     1       0.952   3.252  19.507  0.00  0.00    +0.000 A 
ATOM     27  O   UNL     1       1.878   4.045  18.907  0.00  0.00    +0.000 OA
ENDBRANCH   5  23
TORSDOF 5
ENDMDL
MODEL 4
REMARK VINA RESULT:      -8.2      1.141      1.452
REMARK  Name = 
REMARK  5 active torsions:
REMARK  status: ('A' for Active; 'I' for Inactive)
REMARK    1  A    between atoms: N_1  and  S_2
REMARK    2  A    between atoms: S_2  and  C_5
REMARK    3  A    between atoms: C_8  and  N_9
REMARK    4  A    between atoms: C_11  and  C_12
REMARK    5  A    between atoms: C_18  and  C_19
REMARK                            x       y       z     vdW  Elec       q    Type
REMARK                         _______ _______ _______ _____ _____    ______ ____
ROOT
ATOM      1  N   UNL     1       3.394   6.560  18.411  0.00  0.00    +0.000 N 
ATOM      2  N   UNL     1       3.909   6.439  17.156  0.00  0.00    +0.000 NA
ATOM      3  C   UNL     1       4.704   5.411  17.183  0.00  0.00    +0.000 C 
ATOM      4  C   UNL     1       4.791   4.682  18.489  0.00  0.00    +0.000 C 
ATOM      5  C   UNL     1       3.802   5.486  19.325  0.00  0.00    +0.000 C 
ENDROOT
BRANCH   1   9
ATOM      6  C   UNL     1       0.744   9.667  19.457  0.00  0.00    +0.000 A 
ATOM      7  C   UNL     1       1.207   9.567  18.141  0.00  0.00    +0.000 A 
ATOM      8  C   UNL     1       2.097   8.536  17.811  0.00  0.00    +0.000 A 
ATOM      9  C   UNL     1       2.522   7.588  18.755  0.00  0.00    +0.000 A 
ATOM     10  C   UNL     1       2.025   7.715  20.068  0.00  0.00    +0.000 A 
ATOM     11  C   UNL     1       1.161   8.752  20.420  0.00  0.00    +0.000 A 
BRANCH   6  12
ATOM     12  S   UNL     1      -0.312  10.995  19.945  0.00  0.00    +0.000 S 
ATOM     13  O   UNL     1      -1.581  10.878  19.270  0.00  0.00    +0.000 OA
ATOM     14  O   UNL     1       0.450  12.226  19.949  0.00  0.00    +0.000 OA
BRANCH  12  15
ATOM     15  N   UNL     1      -0.595  10.637  21.560  0.00  0.00    +0.000 NA
ATOM     16  H   UNL     1       0.257  10.251  21.972  0.00  0.00    +0.000 HD
ATOM     17  H   UNL     1      -1.405  10.025  21.654  0.00  0.00    +0.000 HD
ENDBRANCH  12  15
ENDBRANCH   6  12
ENDBRANCH   1   9
BRANCH   3  18
ATOM     18  C   UNL     1       5.471   4.981  16.053  0.00  0.00    +0.000 A 
ATOM     19  C   UNL     1       5.353   3.892  15.212  0.00  0.00    +0.000 A 
ATOM     20  C   UNL     1       6.423   3.976  14.286  0.00  0.00    +0.000 A 
ATOM     21  C   UNL     1       7.118   5.115  14.608  0.00  0.00    +0.000 A 
ATOM     22  O   UNL     1       6.546   5.737  15.671  0.00  0.00    +0.000 OA
ENDBRANCH   3  18
BRANCH   5  23
ATOM     23  C   UNL     1       2.684   4.615  19.810  0.00  0.00    +0.000 A 
ATOM     24  C   UNL     1       2.262   4.230  21.069  0.00  0.00    +0.000 A 
ATOM     25  C   UNL     1       1.165   3.361  20.874  0.00  0.00    +0.000 A 
ATOM     26  C   UNL     1       0.981   3.276  19.514  0.00  0.00    +0.000 A 
ATOM     27  O   UNL     1       1.895   4.037  18.858  0.00  0.00    +0.000 OA
ENDBRANCH   5  23
TORSDOF 5
ENDMDL
MODEL 5
REMARK VINA RESULT:      -8.2      1.187      1.694
REMARK  Name = 
REMARK  5 active torsions:
REMARK  status: ('A' for Active; 'I' for Inactive)
REMARK    1  A    between atoms: N_1  and  S_2
REMARK    2  A    between atoms: S_2  and  C_5
REMARK    3  A    between atoms: C_8  and  N_9
REMARK    4  A    between atoms: C_11  and  C_12
REMARK    5  A    between atoms: C_18  and  C_19
REMARK                            x       y       z     vdW  Elec       q    Type
REMARK                         _______ _______ _______ _____ _____    ______ ____
ROOT
ATOM      1  N   UNL     1       3.395   6.579  18.423  0.00  0.00    +0.000 N 
ATOM      2  N   UNL     1       3.915   6.455  17.170  0.00  0.00    +0.000 NA
ATOM      3  C   UNL     1       4.708   5.425  17.203  0.00  0.00    +0.000 C 
ATOM      4  C   UNL     1       4.787   4.698  18.511  0.00  0.00    +0.000 C 
ATOM      5  C   UNL     1       3.796   5.505  19.340  0.00  0.00    +0.000 C 
ENDROOT
BRANCH   1   9
ATOM      6  C   UNL     1       0.759   9.708  19.440  0.00  0.00    +0.000 A 
ATOM      7  C   UNL     1       1.147   8.785  20.417  0.00  0.00    +0.000 A 
ATOM      8  C   UNL     1       2.015   7.743  20.062  0.00  0.00    +0.000 A 
ATOM      9  C   UNL     1       2.523   7.609  18.760  0.00  0.00    +0.000 A 
ATOM     10  C   UNL     1       2.117   8.564  17.806  0.00  0.00    +0.000 A 
ATOM     11  C   UNL     1       1.233   9.591  18.136  0.00  0.00    +0.000 A 
BRANCH   6  12
ATOM     12  S   UNL     1      -0.396  10.989  19.814  0.00  0.00    +0.000 S 
ATOM     13  O   UNL     1       0.115  12.254  19.347  0.00  0.00    +0.000 OA
ATOM     14  O   UNL     1      -0.883  10.805  21.166  0.00  0.00    +0.000 OA
BRANCH  12  15
ATOM     15  N   UNL     1      -1.686  10.596  18.816  0.00  0.00    +0.000 NA
ATOM     16  H   UNL     1      -1.496  10.941  17.873  0.00  0.00    +0.000 HD
ATOM     17  H   UNL     1      -2.561  10.944  19.207  0.00  0.00    +0.000 HD
ENDBRANCH  12  15
ENDBRANCH   6  12
ENDBRANCH   1   9
BRANCH   3  18
ATOM     18  C   UNL     1       5.480   4.991  16.078  0.00  0.00    +0.000 A 
ATOM     19  C   UNL     1       5.364   3.901  15.238  0.00  0.00    +0.000 A 
ATOM     20  C   UNL     1       6.438   3.981  14.317  0.00  0.00    +0.000 A 
ATOM     21  C   UNL     1       7.134   5.120  14.640  0.00  0.00    +0.000 A 
ATOM     22  O   UNL     1       6.557   5.745  15.699  0.00  0.00    +0.000 OA
ENDBRANCH   3  18
BRANCH   5  23
ATOM     23  C   UNL     1       2.673   4.638  19.822  0.00  0.00    +0.000 A 
ATOM     24  C   UNL     1       2.244   4.257  21.079  0.00  0.00    +0.000 A 
ATOM     25  C   UNL     1       1.146   3.390  20.880  0.00  0.00    +0.000 A 
ATOM     26  C   UNL     1       0.970   3.301  19.520  0.00  0.00    +0.000 A 
ATOM     27  O   UNL     1       1.889   4.059  18.867  0.00  0.00    +0.000 OA
ENDBRANCH   5  23
TORSDOF 5
ENDMDL
MODEL 6
REMARK VINA RESULT:      -8.2      0.905      1.065
REMARK  Name = 
REMARK  5 active torsions:
REMARK  status: ('A' for Active; 'I' for Inactive)
REMARK    1  A    between atoms: N_1  and  S_2
REMARK    2  A    between atoms: S_2  and  C_5
REMARK    3  A    between atoms: C_8  and  N_9
REMARK    4  A    between atoms: C_11  and  C_12
REMARK    5  A    between atoms: C_18  and  C_19
REMARK                            x       y       z     vdW  Elec       q    Type
REMARK                         _______ _______ _______ _____ _____    ______ ____
ROOT
ATOM      1  N   UNL     1       3.459   6.289  18.559  0.00  0.00    +0.000 N 
ATOM      2  N   UNL     1       4.030   6.331  17.324  0.00  0.00    +0.000 NA
ATOM      3  C   UNL     1       4.771   5.267  17.226  0.00  0.00    +0.000 C 
ATOM      4  C   UNL     1       4.755   4.344  18.406  0.00  0.00    +0.000 C 
ATOM      5  C   UNL     1       3.766   5.067  19.313  0.00  0.00    +0.000 C 
ENDROOT
BRANCH   1   9
ATOM      6  C   UNL     1       0.918   9.348  19.959  0.00  0.00    +0.000 A 
ATOM      7  C   UNL     1       1.375   9.379  18.637  0.00  0.00    +0.000 A 
ATOM      8  C   UNL     1       2.229   8.362  18.189  0.00  0.00    +0.000 A 
ATOM      9  C   UNL     1       2.623   7.301  19.020  0.00  0.00    +0.000 A 
ATOM     10  C   UNL     1       2.133   7.299  20.342  0.00  0.00    +0.000 A 
ATOM     11  C   UNL     1       1.305   8.318  20.812  0.00  0.00    +0.000 A 
BRANCH   6  12
ATOM     12  S   UNL     1      -0.091  10.648  20.597  0.00  0.00    +0.000 S 
ATOM     13  O   UNL     1      -0.735  10.210  21.811  0.00  0.00    +0.000 OA
ATOM     14  O   UNL     1      -0.829  11.252  19.506  0.00  0.00    +0.000 OA
BRANCH  12  15
ATOM     15  N   UNL     1       1.056  11.788  21.048  0.00  0.00    +0.000 NA
ATOM     16  H   UNL     1       1.987  11.372  20.974  0.00  0.00    +0.000 HD
ATOM     17  H   UNL     1       0.847  12.157  21.975  0.00  0.00    +0.000 HD
ENDBRANCH  12  15
ENDBRANCH   6  12
ENDBRANCH   1   9
BRANCH   3  18
ATOM     18  C   UNL     1       5.572   4.969  16.077  0.00  0.00    +0.000 A 
ATOM     19  C   UNL     1       6.869   5.301  15.739  0.00  0.00    +0.000 A 
ATOM     20  C   UNL     1       7.109   4.746  14.457  0.00  0.00    +0.000 A 
ATOM     21  C   UNL     1       5.953   4.099  14.098  0.00  0.00    +0.000 A 
ATOM     22  O   UNL     1       5.018   4.219  15.075  0.00  0.00    +0.000 OA
ENDBRANCH   3  18
BRANCH   5  23
ATOM     23  C   UNL     1       2.582   4.199  19.611  0.00  0.00    +0.000 A 
ATOM     24  C   UNL     1       1.535   3.730  18.841  0.00  0.00    +0.000 A 
ATOM     25  C   UNL     1       0.707   2.982  19.707  0.00  0.00    +0.000 A 
ATOM     26  C   UNL     1       1.301   3.035  20.946  0.00  0.00    +0.000 A 
ATOM     27  O   UNL     1       2.443   3.768  20.898  0.00  0.00    +0.000 OA
ENDBRANCH   5  23
TORSDOF 5
ENDMDL
MODEL 7
REMARK VINA RESULT:      -8.1      1.069      1.563
REMARK  Name = 
REMARK  5 active torsions:
REMARK  status: ('A' for Active; 'I' for Inactive)
REMARK    1  A    between atoms: N_1  and  S_2
REMARK    2  A    between atoms: S_2  and  C_5
REMARK    3  A    between atoms: C_8  and  N_9
REMARK    4  A    between atoms: C_11  and  C_12
REMARK    5  A    between atoms: C_18  and  C_19
REMARK                            x       y       z     vdW  Elec       q    Type
REMARK                         _______ _______ _______ _____ _____    ______ ____
ROOT
ATOM      1  N   UNL     1       3.443   6.330  18.338  0.00  0.00    +0.000 N 
ATOM      2  N   UNL     1       4.045   6.329  17.117  0.00  0.00    +0.000 NA
ATOM      3  C   UNL     1       4.780   5.259  17.071  0.00  0.00    +0.000 C 
ATOM      4  C   UNL     1       4.729   4.373  18.279  0.00  0.00    +0.000 C 
ATOM      5  C   UNL     1       3.722   5.130  19.137  0.00  0.00    +0.000 C 
ENDROOT
BRANCH   1   9
ATOM      6  C   UNL     1       0.901   9.460  19.567  0.00  0.00    +0.000 A 
ATOM      7  C   UNL     1       1.269   8.469  20.482  0.00  0.00    +0.000 A 
ATOM      8  C   UNL     1       2.105   7.428  20.057  0.00  0.00    +0.000 A 
ATOM      9  C   UNL     1       2.601   7.361  18.745  0.00  0.00    +0.000 A 
ATOM     10  C   UNL     1       2.217   8.383  17.855  0.00  0.00    +0.000 A 
ATOM     11  C   UNL     1       1.363   9.411  18.254  0.00  0.00    +0.000 A 
BRANCH   6  12
ATOM     12  S   UNL     1      -0.217  10.747  20.029  0.00  0.00    +0.000 S 
ATOM     13  O   UNL     1       0.337  12.026  19.657  0.00  0.00    +0.000 OA
ATOM     14  O   UNL     1      -0.718  10.480  21.361  0.00  0.00    +0.000 OA
BRANCH  12  15
ATOM     15  N   UNL     1      -1.512  10.468  18.998  0.00  0.00    +0.000 NA
ATOM     16  H   UNL     1      -1.470   9.504  18.662  0.00  0.00    +0.000 HD
ATOM     17  H   UNL     1      -1.528  11.159  18.249  0.00  0.00    +0.000 HD
ENDBRANCH  12  15
ENDBRANCH   6  12
ENDBRANCH   1   9
BRANCH   3  18
ATOM     18  C   UNL     1       5.608   4.920  15.952  0.00  0.00    +0.000 A 
ATOM     19  C   UNL     1       6.913   5.240  15.634  0.00  0.00    +0.000 A 
ATOM     20  C   UNL     1       7.183   4.640  14.379  0.00  0.00    +0.000 A 
ATOM     21  C   UNL     1       6.036   3.979  14.016  0.00  0.00    +0.000 A 
ATOM     22  O   UNL     1       5.077   4.134  14.966  0.00  0.00    +0.000 OA
ENDBRANCH   3  18
BRANCH   5  23
ATOM     23  C   UNL     1       2.526   4.279  19.432  0.00  0.00    +0.000 A 
ATOM     24  C   UNL     1       1.535   3.732  18.639  0.00  0.00    +0.000 A 
ATOM     25  C   UNL     1       0.654   3.054  19.511  0.00  0.00    +0.000 A 
ATOM     26  C   UNL     1       1.163   3.223  20.777  0.00  0.00    +0.000 A 
ATOM     27  O   UNL     1       2.303   3.961  20.740  0.00  0.00    +0.000 OA
ENDBRANCH   5  23
TORSDOF 5
ENDMDL
MODEL 8
REMARK VINA RESULT:      -7.7      1.044      1.195
REMARK  Name = 
REMARK  5 active torsions:
REMARK  status: ('A' for Active; 'I' for Inactive)
REMARK    1  A    between atoms: N_1  and  S_2
REMARK    2  A    between atoms: S_2  and  C_5
REMARK    3  A    between atoms: C_8  and  N_9
REMARK    4  A    between atoms: C_11  and  C_12
REMARK    5  A    between atoms: C_18  and  C_19
REMARK                            x       y       z     vdW  Elec       q    Type
REMARK                         _______ _______ _______ _____ _____    ______ ____
ROOT
ATOM      1  N   UNL     1       4.088   5.931  17.696  0.00  0.00    +0.000 N 
ATOM      2  N   UNL     1       4.541   6.045  16.417  0.00  0.00    +0.000 NA
ATOM      3  C   UNL     1       5.337   5.036  16.219  0.00  0.00    +0.000 C 
ATOM      4  C   UNL     1       5.487   4.082  17.365  0.00  0.00    +0.000 C 
ATOM      5  C   UNL     1       4.539   4.712  18.379  0.00  0.00    +0.000 C 
ENDROOT
BRANCH   1   9
ATOM      6  C   UNL     1       1.490   8.772  19.414  0.00  0.00    +0.000 A 
ATOM      7  C   UNL     1       1.955   8.960  18.108  0.00  0.00    +0.000 A 
ATOM      8  C   UNL     1       2.827   8.013  17.554  0.00  0.00    +0.000 A 
ATOM      9  C   UNL     1       3.233   6.872  18.262  0.00  0.00    +0.000 A 
ATOM     10  C   UNL     1       2.735   6.711  19.571  0.00  0.00    +0.000 A 
ATOM     11  C   UNL     1       1.888   7.658  20.147  0.00  0.00    +0.000 A 
BRANCH   6  12
ATOM     12  S   UNL     1       0.457   9.976  20.188  0.00  0.00    +0.000 S 
ATOM     13  O   UNL     1       1.178  11.218  20.322  0.00  0.00    +0.000 OA
ATOM     14  O   UNL     1      -0.233   9.360  21.302  0.00  0.00    +0.000 OA
BRANCH  12  15
ATOM     15  N   UNL     1      -0.717  10.230  19.016  0.00  0.00    +0.000 NA
ATOM     16  H   UNL     1      -0.330   9.999  18.099  0.00  0.00    +0.000 HD
ATOM     17  H   UNL     1      -1.083  11.180  19.076  0.00  0.00    +0.000 HD
ENDBRANCH  12  15
ENDBRANCH   6  12
ENDBRANCH   1   9
BRANCH   3  18
ATOM     18  C   UNL     1       6.049   4.824  14.994  0.00  0.00    +0.000 A 
ATOM     19  C   UNL     1       5.784   4.036  13.892  0.00  0.00    +0.000 A 
ATOM     20  C   UNL     1       6.868   4.215  12.996  0.00  0.00    +0.000 A 
ATOM     21  C   UNL     1       7.717   5.110  13.597  0.00  0.00    +0.000 A 
ATOM     22  O   UNL     1       7.227   5.493  14.804  0.00  0.00    +0.000 OA
ENDBRANCH   3  18
BRANCH   5  23
ATOM     23  C   UNL     1       3.446   3.758  18.751  0.00  0.00    +0.000 A 
ATOM     24  C   UNL     1       3.156   3.053  19.903  0.00  0.00    +0.000 A 
ATOM     25  C   UNL     1       2.005   2.285  19.623  0.00  0.00    +0.000 A 
ATOM     26  C   UNL     1       1.660   2.571  18.323  0.00  0.00    +0.000 A 
ATOM     27  O   UNL     1       2.526   3.469  17.785  0.00  0.00    +0.000 OA
ENDBRANCH   5  23
TORSDOF 5
ENDMDL
