MODEL 1
REMARK VINA RESULT:      -8.1      0.000      0.000
REMARK  Name = 
REMARK  7 active torsions:
REMARK  status: ('A' for Active; 'I' for Inactive)
REMARK    1  A    between atoms: C_6  and  C_7
REMARK    2  A    between atoms: C_6  and  C_8
REMARK    3  A    between atoms: C_8  and  O_10
REMARK    4  A    between atoms: C_14  and  C_15
REMARK    5  A    between atoms: C_16  and  C_17
REMARK    6  A    between atoms: C_17  and  C_18
REMARK    7  A    between atoms: C_18  and  C_19
REMARK                            x       y       z     vdW  Elec       q    Type
REMARK                         _______ _______ _______ _____ _____    ______ ____
ROOT
ATOM      1  C   UNL     1       2.001   9.526  17.968  0.00  0.00    +0.000 C 
ATOM      2  C   UNL     1       2.482   8.274  18.062  0.00  0.00    +0.000 C 
ATOM      3  C   UNL     1       3.525   7.907  17.043  0.00  0.00    +0.000 C 
ATOM      4  C   UNL     1       4.391   6.708  17.396  0.00  0.00    +0.000 C 
ATOM      5  C   UNL     1       3.517   5.481  17.663  0.00  0.00    +0.000 C 
ATOM      6  C   UNL     1       4.220   4.061  17.625  0.00  0.00    +0.000 C 
ATOM      7  C   UNL     1       5.117   3.875  16.377  0.00  0.00    +0.000 C 
ATOM      8  C   UNL     1       3.063   3.014  17.539  0.00  0.00    +0.000 C 
ATOM      9  C   UNL     1       1.929   3.203  18.564  0.00  0.00    +0.000 C 
ATOM     10  C   UNL     1       1.430   4.651  18.706  0.00  0.00    +0.000 C 
ATOM     11  C   UNL     1       2.568   5.701  18.901  0.00  0.00    +0.000 C 
ATOM     12  C   UNL     1       3.312   5.370  20.224  0.00  0.00    +0.000 C 
ATOM     13  C   UNL     1       1.895   7.196  18.984  0.00  0.00    +0.000 C 
ENDROOT
BRANCH   6  14
ATOM     14  C   UNL     1       5.165   3.658  18.786  0.00  0.00    +0.000 C 
ATOM     15  O   UNL     1       6.068   4.370  19.215  0.00  0.00    +0.000 OA
BRANCH  14  16
ATOM     16  O   UNL     1       4.898   2.469  19.352  0.00  0.00    +0.000 OA
ATOM     17  H   UNL     1       5.598   2.104  19.913  0.00  0.00    +0.000 HD
ENDBRANCH  14  16
ENDBRANCH   6  14
BRANCH  13  18
ATOM     18  C   UNL     1       1.775   7.651  20.487  0.00  0.00    +0.000 C 
BRANCH  18  19
ATOM     19  C   UNL     1       0.453   7.954  21.200  0.00  0.00    +0.000 C 
BRANCH  19  20
ATOM     20  C   UNL     1       0.040   9.376  21.328  0.00  0.00    +0.000 C 
ATOM     21  C   UNL     1      -0.435  10.267  20.457  0.00  0.00    +0.000 C 
ATOM     22  C   UNL     1      -0.668  11.567  21.110  0.00  0.00    +0.000 C 
ATOM     23  O   UNL     1      -0.292  11.355  22.468  0.00  0.00    +0.000 OA
ATOM     24  C   UNL     1       0.134  10.071  22.621  0.00  0.00    +0.000 C 
ATOM     25  O   UNL     1       0.535   9.581  23.660  0.00  0.00    +0.000 OA
ENDBRANCH  19  20
ENDBRANCH  18  19
ENDBRANCH  13  18
TORSDOF 5
ENDMDL
MODEL 2
REMARK VINA RESULT:      -8.0      4.133      7.673
REMARK  Name = 
REMARK  7 active torsions:
REMARK  status: ('A' for Active; 'I' for Inactive)
REMARK    1  A    between atoms: C_6  and  C_7
REMARK    2  A    between atoms: C_6  and  C_8
REMARK    3  A    between atoms: C_8  and  O_10
REMARK    4  A    between atoms: C_14  and  C_15
REMARK    5  A    between atoms: C_16  and  C_17
REMARK    6  A    between atoms: C_17  and  C_18
REMARK    7  A    between atoms: C_18  and  C_19
REMARK                            x       y       z     vdW  Elec       q    Type
REMARK                         _______ _______ _______ _____ _____    ______ ____
ROOT
ATOM      1  C   UNL     1       5.213   7.265  16.597  0.00  0.00    +0.000 C 
ATOM      2  C   UNL     1       4.523   6.298  17.226  0.00  0.00    +0.000 C 
ATOM      3  C   UNL     1       3.252   6.744  17.893  0.00  0.00    +0.000 C 
ATOM      4  C   UNL     1       2.251   5.641  18.200  0.00  0.00    +0.000 C 
ATOM      5  C   UNL     1       2.902   4.558  19.063  0.00  0.00    +0.000 C 
ATOM      6  C   UNL     1       1.940   3.562  19.834  0.00  0.00    +0.000 C 
ATOM      7  C   UNL     1       0.802   4.295  20.583  0.00  0.00    +0.000 C 
ATOM      8  C   UNL     1       2.830   2.849  20.903  0.00  0.00    +0.000 C 
ATOM      9  C   UNL     1       4.155   2.268  20.371  0.00  0.00    +0.000 C 
ATOM     10  C   UNL     1       4.947   3.215  19.454  0.00  0.00    +0.000 C 
ATOM     11  C   UNL     1       4.096   3.855  18.312  0.00  0.00    +0.000 C 
ATOM     12  C   UNL     1       3.569   2.713  17.401  0.00  0.00    +0.000 C 
ATOM     13  C   UNL     1       5.053   4.875  17.452  0.00  0.00    +0.000 C 
ENDROOT
BRANCH   6  14
ATOM     14  C   UNL     1       1.175   2.480  19.029  0.00  0.00    +0.000 C 
ATOM     15  O   UNL     1       0.304   2.729  18.201  0.00  0.00    +0.000 OA
BRANCH  14  16
ATOM     16  O   UNL     1       1.569   1.216  19.253  0.00  0.00    +0.000 OA
ATOM     17  H   UNL     1       0.873   0.601  19.527  0.00  0.00    +0.000 HD
ENDBRANCH  14  16
ENDBRANCH   6  14
BRANCH  13  18
ATOM     18  C   UNL     1       5.546   4.169  16.134  0.00  0.00    +0.000 C 
BRANCH  18  19
ATOM     19  C   UNL     1       6.788   4.584  15.338  0.00  0.00    +0.000 C 
BRANCH  19  20
ATOM     20  C   UNL     1       6.801   4.316  13.877  0.00  0.00    +0.000 C 
ATOM     21  C   UNL     1       6.115   3.478  13.100  0.00  0.00    +0.000 C 
ATOM     22  C   UNL     1       6.537   3.603  11.693  0.00  0.00    +0.000 C 
ATOM     23  O   UNL     1       7.542   4.612  11.711  0.00  0.00    +0.000 OA
ATOM     24  C   UNL     1       7.719   5.046  12.989  0.00  0.00    +0.000 C 
ATOM     25  O   UNL     1       8.516   5.896  13.340  0.00  0.00    +0.000 OA
ENDBRANCH  19  20
ENDBRANCH  18  19
ENDBRANCH  13  18
TORSDOF 5
ENDMDL
MODEL 3
REMARK VINA RESULT:      -8.0      3.362      6.016
REMARK  Name = 
REMARK  7 active torsions:
REMARK  status: ('A' for Active; 'I' for Inactive)
REMARK    1  A    between atoms: C_6  and  C_7
REMARK    2  A    between atoms: C_6  and  C_8
REMARK    3  A    between atoms: C_8  and  O_10
REMARK    4  A    between atoms: C_14  and  C_15
REMARK    5  A    between atoms: C_16  and  C_17
REMARK    6  A    between atoms: C_17  and  C_18
REMARK    7  A    between atoms: C_18  and  C_19
REMARK                            x       y       z     vdW  Elec       q    Type
REMARK                         _______ _______ _______ _____ _____    ______ ____
ROOT
ATOM      1  C   UNL     1       2.098   8.751  19.692  0.00  0.00    +0.000 C 
ATOM      2  C   UNL     1       2.159   7.408  19.683  0.00  0.00    +0.000 C 
ATOM      3  C   UNL     1       1.302   6.718  20.707  0.00  0.00    +0.000 C 
ATOM      4  C   UNL     1       1.000   5.253  20.429  0.00  0.00    +0.000 C 
ATOM      5  C   UNL     1       2.301   4.464  20.270  0.00  0.00    +0.000 C 
ATOM      6  C   UNL     1       2.219   2.887  20.400  0.00  0.00    +0.000 C 
ATOM      7  C   UNL     1       1.414   2.434  21.643  0.00  0.00    +0.000 C 
ATOM      8  C   UNL     1       3.692   2.396  20.585  0.00  0.00    +0.000 C 
ATOM      9  C   UNL     1       4.703   2.960  19.568  0.00  0.00    +0.000 C 
ATOM     10  C   UNL     1       4.592   4.475  19.328  0.00  0.00    +0.000 C 
ATOM     11  C   UNL     1       3.141   4.969  19.035  0.00  0.00    +0.000 C 
ATOM     12  C   UNL     1       2.650   4.288  17.728  0.00  0.00    +0.000 C 
ATOM     13  C   UNL     1       3.167   6.601  18.854  0.00  0.00    +0.000 C 
ENDROOT
BRANCH   6  14
ATOM     14  C   UNL     1       1.566   2.069  19.256  0.00  0.00    +0.000 C 
ATOM     15  O   UNL     1       0.406   2.215  18.885  0.00  0.00    +0.000 OA
BRANCH  14  16
ATOM     16  O   UNL     1       2.384   1.203  18.636  0.00  0.00    +0.000 OA
ATOM     17  H   UNL     1       1.983   0.684  17.923  0.00  0.00    +0.000 HD
ENDBRANCH  14  16
ENDBRANCH   6  14
BRANCH  13  18
ATOM     18  C   UNL     1       3.166   6.973  17.324  0.00  0.00    +0.000 C 
BRANCH  18  19
ATOM     19  C   UNL     1       4.416   7.337  16.516  0.00  0.00    +0.000 C 
BRANCH  19  20
ATOM     20  C   UNL     1       5.413   6.267  16.256  0.00  0.00    +0.000 C 
ATOM     21  C   UNL     1       5.329   5.062  15.693  0.00  0.00    +0.000 C 
ATOM     22  C   UNL     1       6.638   4.384  15.703  0.00  0.00    +0.000 C 
ATOM     23  O   UNL     1       7.516   5.318  16.324  0.00  0.00    +0.000 OA
ATOM     24  C   UNL     1       6.817   6.436  16.663  0.00  0.00    +0.000 C 
ATOM     25  O   UNL     1       7.279   7.413  17.222  0.00  0.00    +0.000 OA
ENDBRANCH  19  20
ENDBRANCH  18  19
ENDBRANCH  13  18
TORSDOF 5
ENDMDL
MODEL 4
REMARK VINA RESULT:      -7.8      1.719      2.995
REMARK  Name = 
REMARK  7 active torsions:
REMARK  status: ('A' for Active; 'I' for Inactive)
REMARK    1  A    between atoms: C_6  and  C_7
REMARK    2  A    between atoms: C_6  and  C_8
REMARK    3  A    between atoms: C_8  and  O_10
REMARK    4  A    between atoms: C_14  and  C_15
REMARK    5  A    between atoms: C_16  and  C_17
REMARK    6  A    between atoms: C_17  and  C_18
REMARK    7  A    between atoms: C_18  and  C_19
REMARK                            x       y       z     vdW  Elec       q    Type
REMARK                         _______ _______ _______ _____ _____    ______ ____
ROOT
ATOM      1  C   UNL     1       5.112   6.791  15.734  0.00  0.00    +0.000 C 
ATOM      2  C   UNL     1       4.652   5.875  16.605  0.00  0.00    +0.000 C 
ATOM      3  C   UNL     1       5.347   4.543  16.565  0.00  0.00    +0.000 C 
ATOM      4  C   UNL     1       5.174   3.676  17.802  0.00  0.00    +0.000 C 
ATOM      5  C   UNL     1       3.688   3.444  18.084  0.00  0.00    +0.000 C 
ATOM      6  C   UNL     1       3.306   2.245  19.048  0.00  0.00    +0.000 C 
ATOM      7  C   UNL     1       4.040   0.932  18.684  0.00  0.00    +0.000 C 
ATOM      8  C   UNL     1       1.775   2.005  18.845  0.00  0.00    +0.000 C 
ATOM      9  C   UNL     1       0.897   3.269  18.922  0.00  0.00    +0.000 C 
ATOM     10  C   UNL     1       1.434   4.470  18.127  0.00  0.00    +0.000 C 
ATOM     11  C   UNL     1       2.937   4.793  18.398  0.00  0.00    +0.000 C 
ATOM     12  C   UNL     1       3.091   5.165  19.899  0.00  0.00    +0.000 C 
ATOM     13  C   UNL     1       3.383   6.056  17.449  0.00  0.00    +0.000 C 
ENDROOT
BRANCH   6  14
ATOM     14  C   UNL     1       3.587   2.382  20.567  0.00  0.00    +0.000 C 
ATOM     15  O   UNL     1       2.718   2.576  21.410  0.00  0.00    +0.000 OA
BRANCH  14  16
ATOM     16  O   UNL     1       4.870   2.214  20.926  0.00  0.00    +0.000 OA
ATOM     17  H   UNL     1       5.152   2.697  21.718  0.00  0.00    +0.000 HD
ENDBRANCH  14  16
ENDBRANCH   6  14
BRANCH  13  18
ATOM     18  C   UNL     1       3.368   7.391  18.285  0.00  0.00    +0.000 C 
BRANCH  18  19
ATOM     19  C   UNL     1       2.289   8.472  18.177  0.00  0.00    +0.000 C 
BRANCH  19  20
ATOM     20  C   UNL     1       1.475   8.769  19.384  0.00  0.00    +0.000 C 
ATOM     21  C   UNL     1       1.446   8.250  20.611  0.00  0.00    +0.000 C 
ATOM     22  C   UNL     1       0.417   8.908  21.436  0.00  0.00    +0.000 C 
ATOM     23  O   UNL     1      -0.160   9.884  20.573  0.00  0.00    +0.000 OA
ATOM     24  C   UNL     1       0.445   9.819  19.354  0.00  0.00    +0.000 C 
ATOM     25  O   UNL     1       0.170  10.514  18.394  0.00  0.00    +0.000 OA
ENDBRANCH  19  20
ENDBRANCH  18  19
ENDBRANCH  13  18
TORSDOF 5
ENDMDL
MODEL 5
REMARK VINA RESULT:      -7.8      0.774      1.202
REMARK  Name = 
REMARK  7 active torsions:
REMARK  status: ('A' for Active; 'I' for Inactive)
REMARK    1  A    between atoms: C_6  and  C_7
REMARK    2  A    between atoms: C_6  and  C_8
REMARK    3  A    between atoms: C_8  and  O_10
REMARK    4  A    between atoms: C_14  and  C_15
REMARK    5  A    between atoms: C_16  and  C_17
REMARK    6  A    between atoms: C_17  and  C_18
REMARK    7  A    between atoms: C_18  and  C_19
REMARK                            x       y       z     vdW  Elec       q    Type
REMARK                         _______ _______ _______ _____ _____    ______ ____
ROOT
ATOM      1  C   UNL     1       2.134   9.556  17.871  0.00  0.00    +0.000 C 
ATOM      2  C   UNL     1       2.597   8.298  17.976  0.00  0.00    +0.000 C 
ATOM      3  C   UNL     1       3.679   7.927  17.001  0.00  0.00    +0.000 C 
ATOM      4  C   UNL     1       4.516   6.715  17.381  0.00  0.00    +0.000 C 
ATOM      5  C   UNL     1       3.617   5.496  17.602  0.00  0.00    +0.000 C 
ATOM      6  C   UNL     1       4.305   4.069  17.584  0.00  0.00    +0.000 C 
ATOM      7  C   UNL     1       5.252   3.881  16.374  0.00  0.00    +0.000 C 
ATOM      8  C   UNL     1       3.142   3.036  17.441  0.00  0.00    +0.000 C 
ATOM      9  C   UNL     1       1.967   3.231  18.418  0.00  0.00    +0.000 C 
ATOM     10  C   UNL     1       1.478   4.683  18.549  0.00  0.00    +0.000 C 
ATOM     11  C   UNL     1       2.618   5.719  18.800  0.00  0.00    +0.000 C 
ATOM     12  C   UNL     1       3.302   5.371  20.151  0.00  0.00    +0.000 C 
ATOM     13  C   UNL     1       1.959   7.222  18.865  0.00  0.00    +0.000 C 
ENDROOT
BRANCH   6  14
ATOM     14  C   UNL     1       5.196   3.647  18.781  0.00  0.00    +0.000 C 
ATOM     15  O   UNL     1       6.077   4.351  19.262  0.00  0.00    +0.000 OA
BRANCH  14  16
ATOM     16  O   UNL     1       4.902   2.451  19.317  0.00  0.00    +0.000 OA
ATOM     17  H   UNL     1       5.266   1.682  18.853  0.00  0.00    +0.000 HD
ENDBRANCH  14  16
ENDBRANCH   6  14
BRANCH  13  18
ATOM     18  C   UNL     1       1.780   7.668  20.364  0.00  0.00    +0.000 C 
BRANCH  18  19
ATOM     19  C   UNL     1       0.446   7.666  21.118  0.00  0.00    +0.000 C 
BRANCH  19  20
ATOM     20  C   UNL     1      -0.035   8.951  21.687  0.00  0.00    +0.000 C 
ATOM     21  C   UNL     1      -0.127   9.417  22.933  0.00  0.00    +0.000 C 
ATOM     22  C   UNL     1      -0.703  10.774  22.945  0.00  0.00    +0.000 C 
ATOM     23  O   UNL     1      -0.936  11.073  21.572  0.00  0.00    +0.000 OA
ATOM     24  C   UNL     1      -0.554  10.012  20.810  0.00  0.00    +0.000 C 
ATOM     25  O   UNL     1      -0.637   9.950  19.597  0.00  0.00    +0.000 OA
ENDBRANCH  19  20
ENDBRANCH  18  19
ENDBRANCH  13  18
TORSDOF 5
ENDMDL
MODEL 6
REMARK VINA RESULT:      -7.7      4.171      7.619
REMARK  Name = 
REMARK  7 active torsions:
REMARK  status: ('A' for Active; 'I' for Inactive)
REMARK    1  A    between atoms: C_6  and  C_7
REMARK    2  A    between atoms: C_6  and  C_8
REMARK    3  A    between atoms: C_8  and  O_10
REMARK    4  A    between atoms: C_14  and  C_15
REMARK    5  A    between atoms: C_16  and  C_17
REMARK    6  A    between atoms: C_17  and  C_18
REMARK    7  A    between atoms: C_18  and  C_19
REMARK                            x       y       z     vdW  Elec       q    Type
REMARK                         _______ _______ _______ _____ _____    ______ ____
ROOT
ATOM      1  C   UNL     1       5.749   7.023  16.779  0.00  0.00    +0.000 C 
ATOM      2  C   UNL     1       4.937   6.126  17.365  0.00  0.00    +0.000 C 
ATOM      3  C   UNL     1       3.647   6.680  17.903  0.00  0.00    +0.000 C 
ATOM      4  C   UNL     1       2.546   5.660  18.143  0.00  0.00    +0.000 C 
ATOM      5  C   UNL     1       3.037   4.559  19.087  0.00  0.00    +0.000 C 
ATOM      6  C   UNL     1       1.940   3.657  19.790  0.00  0.00    +0.000 C 
ATOM      7  C   UNL     1       0.796   4.491  20.415  0.00  0.00    +0.000 C 
ATOM      8  C   UNL     1       2.677   2.916  20.952  0.00  0.00    +0.000 C 
ATOM      9  C   UNL     1       3.998   2.228  20.557  0.00  0.00    +0.000 C 
ATOM     10  C   UNL     1       4.935   3.089  19.694  0.00  0.00    +0.000 C 
ATOM     11  C   UNL     1       4.239   3.753  18.465  0.00  0.00    +0.000 C 
ATOM     12  C   UNL     1       3.713   2.623  17.536  0.00  0.00    +0.000 C 
ATOM     13  C   UNL     1       5.340   4.677  17.672  0.00  0.00    +0.000 C 
ENDROOT
BRANCH   6  14
ATOM     14  C   UNL     1       1.173   2.609  18.944  0.00  0.00    +0.000 C 
ATOM     15  O   UNL     1       0.456   2.889  17.989  0.00  0.00    +0.000 OA
BRANCH  14  16
ATOM     16  O   UNL     1       1.388   1.329  19.290  0.00  0.00    +0.000 OA
ATOM     17  H   UNL     1       1.949   0.819  18.688  0.00  0.00    +0.000 HD
ENDBRANCH  14  16
ENDBRANCH   6  14
BRANCH  13  18
ATOM     18  C   UNL     1       5.896   3.899  16.421  0.00  0.00    +0.000 C 
BRANCH  18  19
ATOM     19  C   UNL     1       5.386   4.080  14.988  0.00  0.00    +0.000 C 
BRANCH  19  20
ATOM     20  C   UNL     1       6.373   4.430  13.935  0.00  0.00    +0.000 C 
ATOM     21  C   UNL     1       7.394   5.287  13.895  0.00  0.00    +0.000 C 
ATOM     22  C   UNL     1       8.052   5.258  12.576  0.00  0.00    +0.000 C 
ATOM     23  O   UNL     1       7.322   4.285  11.835  0.00  0.00    +0.000 OA
ATOM     24  C   UNL     1       6.323   3.784  12.614  0.00  0.00    +0.000 C 
ATOM     25  O   UNL     1       5.514   2.944  12.268  0.00  0.00    +0.000 OA
ENDBRANCH  19  20
ENDBRANCH  18  19
ENDBRANCH  13  18
TORSDOF 5
ENDMDL
MODEL 7
REMARK VINA RESULT:      -7.6      1.239      1.699
REMARK  Name = 
REMARK  7 active torsions:
REMARK  status: ('A' for Active; 'I' for Inactive)
REMARK    1  A    between atoms: C_6  and  C_7
REMARK    2  A    between atoms: C_6  and  C_8
REMARK    3  A    between atoms: C_8  and  O_10
REMARK    4  A    between atoms: C_14  and  C_15
REMARK    5  A    between atoms: C_16  and  C_17
REMARK    6  A    between atoms: C_17  and  C_18
REMARK    7  A    between atoms: C_18  and  C_19
REMARK                            x       y       z     vdW  Elec       q    Type
REMARK                         _______ _______ _______ _____ _____    ______ ____
ROOT
ATOM      1  C   UNL     1       2.637   8.391  17.808  0.00  0.00    +0.000 C 
ATOM      2  C   UNL     1       2.718   7.129  18.266  0.00  0.00    +0.000 C 
ATOM      3  C   UNL     1       3.580   6.204  17.453  0.00  0.00    +0.000 C 
ATOM      4  C   UNL     1       4.049   4.948  18.170  0.00  0.00    +0.000 C 
ATOM      5  C   UNL     1       2.850   4.159  18.699  0.00  0.00    +0.000 C 
ATOM      6  C   UNL     1       3.089   2.641  19.089  0.00  0.00    +0.000 C 
ATOM      7  C   UNL     1       3.861   1.861  17.998  0.00  0.00    +0.000 C 
ATOM      8  C   UNL     1       1.667   2.003  19.212  0.00  0.00    +0.000 C 
ATOM      9  C   UNL     1       0.665   2.795  20.074  0.00  0.00    +0.000 C 
ATOM     10  C   UNL     1       0.631   4.306  19.789  0.00  0.00    +0.000 C 
ATOM     11  C   UNL     1       2.037   4.983  19.768  0.00  0.00    +0.000 C 
ATOM     12  C   UNL     1       2.673   4.823  21.177  0.00  0.00    +0.000 C 
ATOM     13  C   UNL     1       1.851   6.573  19.403  0.00  0.00    +0.000 C 
ENDROOT
BRANCH   6  14
ATOM     14  C   UNL     1       3.890   2.312  20.374  0.00  0.00    +0.000 C 
ATOM     15  O   UNL     1       3.385   2.184  21.485  0.00  0.00    +0.000 OA
BRANCH  14  16
ATOM     16  O   UNL     1       5.206   2.111  20.190  0.00  0.00    +0.000 OA
ATOM     17  H   UNL     1       5.793   2.582  20.800  0.00  0.00    +0.000 HD
ENDBRANCH  14  16
ENDBRANCH   6  14
BRANCH  13  18
ATOM     18  C   UNL     1       1.905   7.438  20.718  0.00  0.00    +0.000 C 
BRANCH  18  19
ATOM     19  C   UNL     1       0.679   8.035  21.416  0.00  0.00    +0.000 C 
BRANCH  19  20
ATOM     20  C   UNL     1       0.456   9.499  21.301  0.00  0.00    +0.000 C 
ATOM     21  C   UNL     1       0.467  10.343  20.268  0.00  0.00    +0.000 C 
ATOM     22  C   UNL     1       0.198  11.722  20.713  0.00  0.00    +0.000 C 
ATOM     23  O   UNL     1       0.015  11.612  22.121  0.00  0.00    +0.000 OA
ATOM     24  C   UNL     1       0.167  10.311  22.494  0.00  0.00    +0.000 C 
ATOM     25  O   UNL     1       0.084   9.889  23.632  0.00  0.00    +0.000 OA
ENDBRANCH  19  20
ENDBRANCH  18  19
ENDBRANCH  13  18
TORSDOF 5
ENDMDL
MODEL 8
REMARK VINA RESULT:      -7.5      3.336      6.009
REMARK  Name = 
REMARK  7 active torsions:
REMARK  status: ('A' for Active; 'I' for Inactive)
REMARK    1  A    between atoms: C_6  and  C_7
REMARK    2  A    between atoms: C_6  and  C_8
REMARK    3  A    between atoms: C_8  and  O_10
REMARK    4  A    between atoms: C_14  and  C_15
REMARK    5  A    between atoms: C_16  and  C_17
REMARK    6  A    between atoms: C_17  and  C_18
REMARK    7  A    between atoms: C_18  and  C_19
REMARK                            x       y       z     vdW  Elec       q    Type
REMARK                         _______ _______ _______ _____ _____    ______ ____
ROOT
ATOM      1  C   UNL     1       2.069   8.766  19.696  0.00  0.00    +0.000 C 
ATOM      2  C   UNL     1       2.123   7.422  19.690  0.00  0.00    +0.000 C 
ATOM      3  C   UNL     1       1.257   6.738  20.711  0.00  0.00    +0.000 C 
ATOM      4  C   UNL     1       0.950   5.274  20.434  0.00  0.00    +0.000 C 
ATOM      5  C   UNL     1       2.248   4.478  20.282  0.00  0.00    +0.000 C 
ATOM      6  C   UNL     1       2.158   2.902  20.416  0.00  0.00    +0.000 C 
ATOM      7  C   UNL     1       1.344   2.456  21.654  0.00  0.00    +0.000 C 
ATOM      8  C   UNL     1       3.627   2.405  20.609  0.00  0.00    +0.000 C 
ATOM      9  C   UNL     1       4.647   2.962  19.596  0.00  0.00    +0.000 C 
ATOM     10  C   UNL     1       4.544   4.477  19.353  0.00  0.00    +0.000 C 
ATOM     11  C   UNL     1       3.097   4.978  19.052  0.00  0.00    +0.000 C 
ATOM     12  C   UNL     1       2.610   4.297  17.743  0.00  0.00    +0.000 C 
ATOM     13  C   UNL     1       3.132   6.609  18.868  0.00  0.00    +0.000 C 
ENDROOT
BRANCH   6  14
ATOM     14  C   UNL     1       1.507   2.086  19.270  0.00  0.00    +0.000 C 
ATOM     15  O   UNL     1       0.351   2.239  18.889  0.00  0.00    +0.000 OA
BRANCH  14  16
ATOM     16  O   UNL     1       2.323   1.210  18.658  0.00  0.00    +0.000 OA
ATOM     17  H   UNL     1       3.196   1.096  19.063  0.00  0.00    +0.000 HD
ENDBRANCH  14  16
ENDBRANCH   6  14
BRANCH  13  18
ATOM     18  C   UNL     1       3.140   6.978  17.337  0.00  0.00    +0.000 C 
BRANCH  18  19
ATOM     19  C   UNL     1       4.404   7.262  16.518  0.00  0.00    +0.000 C 
BRANCH  19  20
ATOM     20  C   UNL     1       5.620   6.462  16.812  0.00  0.00    +0.000 C 
ATOM     21  C   UNL     1       6.646   6.638  17.646  0.00  0.00    +0.000 C 
ATOM     22  C   UNL     1       7.613   5.532  17.529  0.00  0.00    +0.000 C 
ATOM     23  O   UNL     1       7.051   4.671  16.543  0.00  0.00    +0.000 OA
ATOM     24  C   UNL     1       5.877   5.199  16.102  0.00  0.00    +0.000 C 
ATOM     25  O   UNL     1       5.160   4.709  15.249  0.00  0.00    +0.000 OA
ENDBRANCH  19  20
ENDBRANCH  18  19
ENDBRANCH  13  18
TORSDOF 5
ENDMDL
MODEL 9
REMARK VINA RESULT:      -7.4      0.856      1.157
REMARK  Name = 
REMARK  7 active torsions:
REMARK  status: ('A' for Active; 'I' for Inactive)
REMARK    1  A    between atoms: C_6  and  C_7
REMARK    2  A    between atoms: C_6  and  C_8
REMARK    3  A    between atoms: C_8  and  O_10
REMARK    4  A    between atoms: C_14  and  C_15
REMARK    5  A    between atoms: C_16  and  C_17
REMARK    6  A    between atoms: C_17  and  C_18
REMARK    7  A    between atoms: C_18  and  C_19
REMARK                            x       y       z     vdW  Elec       q    Type
REMARK                         _______ _______ _______ _____ _____    ______ ____
ROOT
ATOM      1  C   UNL     1       2.250   9.526  17.838  0.00  0.00    +0.000 C 
ATOM      2  C   UNL     1       2.645   8.247  17.967  0.00  0.00    +0.000 C 
ATOM      3  C   UNL     1       3.708   7.801  17.002  0.00  0.00    +0.000 C 
ATOM      4  C   UNL     1       4.479   6.554  17.407  0.00  0.00    +0.000 C 
ATOM      5  C   UNL     1       3.516   5.388  17.646  0.00  0.00    +0.000 C 
ATOM      6  C   UNL     1       4.128   3.926  17.655  0.00  0.00    +0.000 C 
ATOM      7  C   UNL     1       5.067   3.667  16.452  0.00  0.00    +0.000 C 
ATOM      8  C   UNL     1       2.911   2.954  17.526  0.00  0.00    +0.000 C 
ATOM      9  C   UNL     1       1.745   3.229  18.495  0.00  0.00    +0.000 C 
ATOM     10  C   UNL     1       1.334   4.707  18.599  0.00  0.00    +0.000 C 
ATOM     11  C   UNL     1       2.527   5.685  18.836  0.00  0.00    +0.000 C 
ATOM     12  C   UNL     1       3.187   5.325  20.195  0.00  0.00    +0.000 C 
ATOM     13  C   UNL     1       1.948   7.221  18.872  0.00  0.00    +0.000 C 
ENDROOT
BRANCH   6  14
ATOM     14  C   UNL     1       4.991   3.479  18.862  0.00  0.00    +0.000 C 
ATOM     15  O   UNL     1       4.671   2.587  19.641  0.00  0.00    +0.000 OA
BRANCH  14  16
ATOM     16  O   UNL     1       6.174   4.104  18.981  0.00  0.00    +0.000 OA
ATOM     17  H   UNL     1       6.142   5.072  18.955  0.00  0.00    +0.000 HD
ENDBRANCH  14  16
ENDBRANCH   6  14
BRANCH  13  18
ATOM     18  C   UNL     1       1.789   7.703  20.362  0.00  0.00    +0.000 C 
BRANCH  18  19
ATOM     19  C   UNL     1       0.502   8.286  20.955  0.00  0.00    +0.000 C 
BRANCH  19  20
ATOM     20  C   UNL     1      -0.016   9.555  20.381  0.00  0.00    +0.000 C 
ATOM     21  C   UNL     1      -0.899   9.824  19.418  0.00  0.00    +0.000 C 
ATOM     22  C   UNL     1      -1.038  11.279  19.225  0.00  0.00    +0.000 C 
ATOM     23  O   UNL     1      -0.152  11.851  20.182  0.00  0.00    +0.000 OA
ATOM     24  C   UNL     1       0.466  10.854  20.874  0.00  0.00    +0.000 C 
ATOM     25  O   UNL     1       1.292  11.014  21.754  0.00  0.00    +0.000 OA
ENDBRANCH  19  20
ENDBRANCH  18  19
ENDBRANCH  13  18
TORSDOF 5
ENDMDL
