MODEL 1
REMARK VINA RESULT:      -7.9      0.000      0.000
REMARK  Name = 
REMARK  7 active torsions:
REMARK  status: ('A' for Active; 'I' for Inactive)
REMARK    1  A    between atoms: C_1  and  C_2
REMARK    2  A    between atoms: C_2  and  C_3
REMARK    3  A    between atoms: C_3  and  C_4
REMARK    4  A    between atoms: C_13  and  C_14
REMARK    5  A    between atoms: C_14  and  N_15
REMARK    6  A    between atoms: N_15  and  C_16
REMARK    7  A    between atoms: C_16  and  C_17
REMARK                            x       y       z     vdW  Elec       q    Type
REMARK                         _______ _______ _______ _____ _____    ______ ____
ROOT
ATOM      1  C   UNL     1       2.784   5.499  19.114  0.00  0.00    +0.000 C 
ATOM      2  C   UNL     1       2.116   4.716  17.949  0.00  0.00    +0.000 C 
ATOM      3  O   UNL     1       2.737   3.449  17.690  0.00  0.00    +0.000 OA
ATOM      4  C   UNL     1       4.122   3.637  17.374  0.00  0.00    +0.000 C 
ATOM      5  C   UNL     1       4.836   4.317  18.541  0.00  0.00    +0.000 C 
ATOM      6  O   UNL     1       4.208   5.561  18.887  0.00  0.00    +0.000 OA
ENDROOT
BRANCH   1   7
ATOM      7  C   UNL     1       2.231   6.953  19.086  0.00  0.00    +0.000 A 
ATOM      8  C   UNL     1       2.257   7.735  17.917  0.00  0.00    +0.000 A 
ATOM      9  C   UNL     1       1.814   9.063  17.925  0.00  0.00    +0.000 A 
ATOM     10  C   UNL     1       1.342   9.640  19.101  0.00  0.00    +0.000 A 
ATOM     11  C   UNL     1       1.289   8.882  20.266  0.00  0.00    +0.000 A 
ATOM     12  C   UNL     1       1.717   7.552  20.255  0.00  0.00    +0.000 A 
ENDBRANCH   1   7
BRANCH   1  14
ATOM     13  C   UNL     1       1.387   3.889  20.735  0.00  0.00    +0.000 C 
ATOM     14  C   UNL     1       2.471   4.938  20.539  0.00  0.00    +0.000 C 
ENDBRANCH   1  14
BRANCH   5  15
ATOM     15  C   UNL     1       6.334   4.550  18.241  0.00  0.00    +0.000 C 
BRANCH  15  16
ATOM     16  N   UNL     1       6.646   4.128  16.874  0.00  0.00    +0.000 NA
ATOM     17  H   UNL     1       5.879   3.599  16.465  0.00  0.00    +0.000 HD
BRANCH  16  18
ATOM     18  C   UNL     1       7.024   5.223  15.993  0.00  0.00    +0.000 C 
BRANCH  18  19
ATOM     19  C   UNL     1       6.899   4.785  14.550  0.00  0.00    +0.000 A 
ATOM     20  C   UNL     1       5.955   3.824  14.166  0.00  0.00    +0.000 A 
ATOM     21  C   UNL     1       5.872   3.410  12.835  0.00  0.00    +0.000 A 
ATOM     22  C   UNL     1       6.730   3.950  11.880  0.00  0.00    +0.000 A 
ATOM     23  C   UNL     1       7.668   4.910  12.245  0.00  0.00    +0.000 A 
ATOM     24  C   UNL     1       7.749   5.327  13.573  0.00  0.00    +0.000 A 
ENDBRANCH  18  19
ENDBRANCH  16  18
ENDBRANCH  15  16
ENDBRANCH   5  15
TORSDOF 6
ENDMDL
MODEL 2
REMARK VINA RESULT:      -7.9      0.133      1.012
REMARK  Name = 
REMARK  7 active torsions:
REMARK  status: ('A' for Active; 'I' for Inactive)
REMARK    1  A    between atoms: C_1  and  C_2
REMARK    2  A    between atoms: C_2  and  C_3
REMARK    3  A    between atoms: C_3  and  C_4
REMARK    4  A    between atoms: C_13  and  C_14
REMARK    5  A    between atoms: C_14  and  N_15
REMARK    6  A    between atoms: N_15  and  C_16
REMARK    7  A    between atoms: C_16  and  C_17
REMARK                            x       y       z     vdW  Elec       q    Type
REMARK                         _______ _______ _______ _____ _____    ______ ____
ROOT
ATOM      1  C   UNL     1       2.818   5.523  19.195  0.00  0.00    +0.000 C 
ATOM      2  C   UNL     1       2.151   4.790  17.998  0.00  0.00    +0.000 C 
ATOM      3  O   UNL     1       2.746   3.516  17.712  0.00  0.00    +0.000 OA
ATOM      4  C   UNL     1       4.140   3.681  17.422  0.00  0.00    +0.000 C 
ATOM      5  C   UNL     1       4.851   4.309  18.618  0.00  0.00    +0.000 C 
ATOM      6  O   UNL     1       4.247   5.558  18.991  0.00  0.00    +0.000 OA
ENDROOT
BRANCH   1   7
ATOM      7  C   UNL     1       2.300   6.990  19.202  0.00  0.00    +0.000 A 
ATOM      8  C   UNL     1       1.738   7.574  20.353  0.00  0.00    +0.000 A 
ATOM      9  C   UNL     1       1.219   8.873  20.324  0.00  0.00    +0.000 A 
ATOM     10  C   UNL     1       1.244   9.616  19.146  0.00  0.00    +0.000 A 
ATOM     11  C   UNL     1       1.811   9.068  18.000  0.00  0.00    +0.000 A 
ATOM     12  C   UNL     1       2.343   7.776  18.032  0.00  0.00    +0.000 A 
ENDBRANCH   1   7
BRANCH   1  14
ATOM     13  C   UNL     1       1.291   3.983  20.766  0.00  0.00    +0.000 C 
ATOM     14  C   UNL     1       2.471   4.929  20.599  0.00  0.00    +0.000 C 
ENDBRANCH   1  14
BRANCH   5  15
ATOM     15  C   UNL     1       6.359   4.516  18.348  0.00  0.00    +0.000 C 
BRANCH  15  16
ATOM     16  N   UNL     1       6.674   4.171  16.960  0.00  0.00    +0.000 NA
ATOM     17  H   UNL     1       6.022   3.481  16.593  0.00  0.00    +0.000 HD
BRANCH  16  18
ATOM     18  C   UNL     1       6.739   5.320  16.070  0.00  0.00    +0.000 C 
BRANCH  18  19
ATOM     19  C   UNL     1       6.737   4.853  14.630  0.00  0.00    +0.000 A 
ATOM     20  C   UNL     1       5.808   3.906  14.180  0.00  0.00    +0.000 A 
ATOM     21  C   UNL     1       5.838   3.464  12.856  0.00  0.00    +0.000 A 
ATOM     22  C   UNL     1       6.793   3.963  11.973  0.00  0.00    +0.000 A 
ATOM     23  C   UNL     1       7.717   4.909  12.404  0.00  0.00    +0.000 A 
ATOM     24  C   UNL     1       7.687   5.353  13.725  0.00  0.00    +0.000 A 
ENDBRANCH  18  19
ENDBRANCH  16  18
ENDBRANCH  15  16
ENDBRANCH   5  15
TORSDOF 6
ENDMDL
MODEL 3
REMARK VINA RESULT:      -7.9      1.435      2.186
REMARK  Name = 
REMARK  7 active torsions:
REMARK  status: ('A' for Active; 'I' for Inactive)
REMARK    1  A    between atoms: C_1  and  C_2
REMARK    2  A    between atoms: C_2  and  C_3
REMARK    3  A    between atoms: C_3  and  C_4
REMARK    4  A    between atoms: C_13  and  C_14
REMARK    5  A    between atoms: C_14  and  N_15
REMARK    6  A    between atoms: N_15  and  C_16
REMARK    7  A    between atoms: C_16  and  C_17
REMARK                            x       y       z     vdW  Elec       q    Type
REMARK                         _______ _______ _______ _____ _____    ______ ____
ROOT
ATOM      1  C   UNL     1       2.640   5.460  19.327  0.00  0.00    +0.000 C 
ATOM      2  C   UNL     1       2.226   4.750  18.007  0.00  0.00    +0.000 C 
ATOM      3  O   UNL     1       2.754   3.420  17.891  0.00  0.00    +0.000 OA
ATOM      4  C   UNL     1       4.185   3.454  17.958  0.00  0.00    +0.000 C 
ATOM      5  C   UNL     1       4.632   4.056  19.289  0.00  0.00    +0.000 C 
ATOM      6  O   UNL     1       4.071   5.364  19.487  0.00  0.00    +0.000 OA
ENDROOT
BRANCH   1   7
ATOM      7  C   UNL     1       2.273   6.966  19.190  0.00  0.00    +0.000 A 
ATOM      8  C   UNL     1       1.670   7.681  20.241  0.00  0.00    +0.000 A 
ATOM      9  C   UNL     1       1.289   9.018  20.080  0.00  0.00    +0.000 A 
ATOM     10  C   UNL     1       1.497   9.668  18.865  0.00  0.00    +0.000 A 
ATOM     11  C   UNL     1       2.108   8.988  17.817  0.00  0.00    +0.000 A 
ATOM     12  C   UNL     1       2.502   7.657  17.983  0.00  0.00    +0.000 A 
ENDBRANCH   1   7
BRANCH   1  14
ATOM     13  C   UNL     1       0.848   3.850  20.498  0.00  0.00    +0.000 C 
ATOM     14  C   UNL     1       1.901   4.943  20.604  0.00  0.00    +0.000 C 
ENDBRANCH   1  14
BRANCH   5  15
ATOM     15  C   UNL     1       6.172   4.123  19.402  0.00  0.00    +0.000 C 
BRANCH  15  16
ATOM     16  N   UNL     1       6.605   5.510  19.578  0.00  0.00    +0.000 NA
ATOM     17  H   UNL     1       7.026   5.653  20.493  0.00  0.00    +0.000 HD
BRANCH  16  18
ATOM     18  C   UNL     1       7.503   5.982  18.535  0.00  0.00    +0.000 C 
BRANCH  18  19
ATOM     19  C   UNL     1       6.872   5.762  17.178  0.00  0.00    +0.000 A 
ATOM     20  C   UNL     1       5.821   6.573  16.730  0.00  0.00    +0.000 A 
ATOM     21  C   UNL     1       5.230   6.338  15.487  0.00  0.00    +0.000 A 
ATOM     22  C   UNL     1       5.683   5.296  14.682  0.00  0.00    +0.000 A 
ATOM     23  C   UNL     1       6.730   4.486  15.111  0.00  0.00    +0.000 A 
ATOM     24  C   UNL     1       7.323   4.721  16.350  0.00  0.00    +0.000 A 
ENDBRANCH  18  19
ENDBRANCH  16  18
ENDBRANCH  15  16
ENDBRANCH   5  15
TORSDOF 6
ENDMDL
MODEL 4
REMARK VINA RESULT:      -7.9      1.436      2.195
REMARK  Name = 
REMARK  7 active torsions:
REMARK  status: ('A' for Active; 'I' for Inactive)
REMARK    1  A    between atoms: C_1  and  C_2
REMARK    2  A    between atoms: C_2  and  C_3
REMARK    3  A    between atoms: C_3  and  C_4
REMARK    4  A    between atoms: C_13  and  C_14
REMARK    5  A    between atoms: C_14  and  N_15
REMARK    6  A    between atoms: N_15  and  C_16
REMARK    7  A    between atoms: C_16  and  C_17
REMARK                            x       y       z     vdW  Elec       q    Type
REMARK                         _______ _______ _______ _____ _____    ______ ____
ROOT
ATOM      1  C   UNL     1       2.588   5.433  19.356  0.00  0.00    +0.000 C 
ATOM      2  C   UNL     1       2.164   4.721  18.041  0.00  0.00    +0.000 C 
ATOM      3  O   UNL     1       2.682   3.388  17.928  0.00  0.00    +0.000 OA
ATOM      4  C   UNL     1       4.114   3.411  17.989  0.00  0.00    +0.000 C 
ATOM      5  C   UNL     1       4.570   4.016  19.316  0.00  0.00    +0.000 C 
ATOM      6  O   UNL     1       4.019   5.329  19.510  0.00  0.00    +0.000 OA
ENDROOT
BRANCH   1   7
ATOM      7  C   UNL     1       2.232   6.942  19.214  0.00  0.00    +0.000 A 
ATOM      8  C   UNL     1       1.672   7.675  20.277  0.00  0.00    +0.000 A 
ATOM      9  C   UNL     1       1.299   9.014  20.114  0.00  0.00    +0.000 A 
ATOM     10  C   UNL     1       1.471   9.648  18.885  0.00  0.00    +0.000 A 
ATOM     11  C   UNL     1       2.039   8.950  17.825  0.00  0.00    +0.000 A 
ATOM     12  C   UNL     1       2.426   7.617  17.992  0.00  0.00    +0.000 A 
ENDBRANCH   1   7
BRANCH   1  14
ATOM     13  C   UNL     1       0.998   3.669  20.593  0.00  0.00    +0.000 C 
ATOM     14  C   UNL     1       1.851   4.928  20.638  0.00  0.00    +0.000 C 
ENDBRANCH   1  14
BRANCH   5  15
ATOM     15  C   UNL     1       6.111   4.072  19.422  0.00  0.00    +0.000 C 
BRANCH  15  16
ATOM     16  N   UNL     1       6.554   5.455  19.604  0.00  0.00    +0.000 NA
ATOM     17  H   UNL     1       6.980   5.591  20.517  0.00  0.00    +0.000 HD
BRANCH  16  18
ATOM     18  C   UNL     1       7.450   5.927  18.559  0.00  0.00    +0.000 C 
BRANCH  18  19
ATOM     19  C   UNL     1       6.823   5.693  17.202  0.00  0.00    +0.000 A 
ATOM     20  C   UNL     1       7.282   4.671  16.361  0.00  0.00    +0.000 A 
ATOM     21  C   UNL     1       6.712   4.487  15.100  0.00  0.00    +0.000 A 
ATOM     22  C   UNL     1       5.681   5.319  14.669  0.00  0.00    +0.000 A 
ATOM     23  C   UNL     1       5.209   6.333  15.497  0.00  0.00    +0.000 A 
ATOM     24  C   UNL     1       5.776   6.516  16.757  0.00  0.00    +0.000 A 
ENDBRANCH  18  19
ENDBRANCH  16  18
ENDBRANCH  15  16
ENDBRANCH   5  15
TORSDOF 6
ENDMDL
MODEL 5
REMARK VINA RESULT:      -7.7      1.439      1.949
REMARK  Name = 
REMARK  7 active torsions:
REMARK  status: ('A' for Active; 'I' for Inactive)
REMARK    1  A    between atoms: C_1  and  C_2
REMARK    2  A    between atoms: C_2  and  C_3
REMARK    3  A    between atoms: C_3  and  C_4
REMARK    4  A    between atoms: C_13  and  C_14
REMARK    5  A    between atoms: C_14  and  N_15
REMARK    6  A    between atoms: N_15  and  C_16
REMARK    7  A    between atoms: C_16  and  C_17
REMARK                            x       y       z     vdW  Elec       q    Type
REMARK                         _______ _______ _______ _____ _____    ______ ____
ROOT
ATOM      1  C   UNL     1       2.625   5.362  19.358  0.00  0.00    +0.000 C 
ATOM      2  C   UNL     1       2.180   4.592  18.084  0.00  0.00    +0.000 C 
ATOM      3  O   UNL     1       2.732   3.270  18.000  0.00  0.00    +0.000 OA
ATOM      4  C   UNL     1       4.165   3.336  18.013  0.00  0.00    +0.000 C 
ATOM      5  C   UNL     1       4.645   4.000  19.302  0.00  0.00    +0.000 C 
ATOM      6  O   UNL     1       4.063   5.303  19.469  0.00  0.00    +0.000 OA
ENDROOT
BRANCH   1   7
ATOM      7  C   UNL     1       2.220   6.854  19.177  0.00  0.00    +0.000 A 
ATOM      8  C   UNL     1       2.440   7.541  17.968  0.00  0.00    +0.000 A 
ATOM      9  C   UNL     1       2.129   8.899  17.842  0.00  0.00    +0.000 A 
ATOM     10  C   UNL     1       1.596   9.602  18.920  0.00  0.00    +0.000 A 
ATOM     11  C   UNL     1       1.352   8.941  20.119  0.00  0.00    +0.000 A 
ATOM     12  C   UNL     1       1.649   7.581  20.241  0.00  0.00    +0.000 A 
ENDBRANCH   1   7
BRANCH   1  14
ATOM     13  C   UNL     1       1.031   3.665  20.682  0.00  0.00    +0.000 C 
ATOM     14  C   UNL     1       1.944   4.882  20.681  0.00  0.00    +0.000 C 
ENDBRANCH   1  14
BRANCH   5  15
ATOM     15  C   UNL     1       6.186   4.103  19.356  0.00  0.00    +0.000 C 
BRANCH  15  16
ATOM     16  N   UNL     1       6.590   5.490  19.593  0.00  0.00    +0.000 NA
ATOM     17  H   UNL     1       7.029   5.597  20.504  0.00  0.00    +0.000 HD
BRANCH  16  18
ATOM     18  C   UNL     1       7.453   6.036  18.556  0.00  0.00    +0.000 C 
BRANCH  18  19
ATOM     19  C   UNL     1       6.840   5.785  17.196  0.00  0.00    +0.000 A 
ATOM     20  C   UNL     1       5.770   6.560  16.731  0.00  0.00    +0.000 A 
ATOM     21  C   UNL     1       5.197   6.297  15.486  0.00  0.00    +0.000 A 
ATOM     22  C   UNL     1       5.687   5.260  14.695  0.00  0.00    +0.000 A 
ATOM     23  C   UNL     1       6.754   4.486  15.140  0.00  0.00    +0.000 A 
ATOM     24  C   UNL     1       7.329   4.750  16.382  0.00  0.00    +0.000 A 
ENDBRANCH  18  19
ENDBRANCH  16  18
ENDBRANCH  15  16
ENDBRANCH   5  15
TORSDOF 6
ENDMDL
MODEL 6
REMARK VINA RESULT:      -7.7      0.333      1.456
REMARK  Name = 
REMARK  7 active torsions:
REMARK  status: ('A' for Active; 'I' for Inactive)
REMARK    1  A    between atoms: C_1  and  C_2
REMARK    2  A    between atoms: C_2  and  C_3
REMARK    3  A    between atoms: C_3  and  C_4
REMARK    4  A    between atoms: C_13  and  C_14
REMARK    5  A    between atoms: C_14  and  N_15
REMARK    6  A    between atoms: N_15  and  C_16
REMARK    7  A    between atoms: C_16  and  C_17
REMARK                            x       y       z     vdW  Elec       q    Type
REMARK                         _______ _______ _______ _____ _____    ______ ____
ROOT
ATOM      1  C   UNL     1       2.664   5.445  19.427  0.00  0.00    +0.000 C 
ATOM      2  C   UNL     1       1.869   4.687  18.328  0.00  0.00    +0.000 C 
ATOM      3  O   UNL     1       2.405   3.387  18.038  0.00  0.00    +0.000 OA
ATOM      4  C   UNL     1       3.769   3.503  17.613  0.00  0.00    +0.000 C 
ATOM      5  C   UNL     1       4.605   4.157  18.711  0.00  0.00    +0.000 C 
ATOM      6  O   UNL     1       4.068   5.435  19.089  0.00  0.00    +0.000 OA
ENDROOT
BRANCH   1   7
ATOM      7  C   UNL     1       2.183   6.925  19.424  0.00  0.00    +0.000 A 
ATOM      8  C   UNL     1       1.617   7.524  20.565  0.00  0.00    +0.000 A 
ATOM      9  C   UNL     1       1.131   8.836  20.527  0.00  0.00    +0.000 A 
ATOM     10  C   UNL     1       1.194   9.576  19.349  0.00  0.00    +0.000 A 
ATOM     11  C   UNL     1       1.766   9.013  18.213  0.00  0.00    +0.000 A 
ATOM     12  C   UNL     1       2.264   7.708  18.255  0.00  0.00    +0.000 A 
ENDBRANCH   1   7
BRANCH   1  14
ATOM     13  C   UNL     1       1.586   3.677  21.125  0.00  0.00    +0.000 C 
ATOM     14  C   UNL     1       2.437   4.914  20.880  0.00  0.00    +0.000 C 
ENDBRANCH   1  14
BRANCH   5  15
ATOM     15  C   UNL     1       6.084   4.313  18.292  0.00  0.00    +0.000 C 
BRANCH  15  16
ATOM     16  N   UNL     1       6.237   4.025  16.865  0.00  0.00    +0.000 NA
ATOM     17  H   UNL     1       5.341   3.818  16.431  0.00  0.00    +0.000 HD
BRANCH  16  18
ATOM     18  C   UNL     1       6.922   5.073  16.124  0.00  0.00    +0.000 C 
BRANCH  18  19
ATOM     19  C   UNL     1       6.932   4.734  14.650  0.00  0.00    +0.000 A 
ATOM     20  C   UNL     1       7.725   5.456  13.748  0.00  0.00    +0.000 A 
ATOM     21  C   UNL     1       7.702   5.150  12.386  0.00  0.00    +0.000 A 
ATOM     22  C   UNL     1       6.889   4.122  11.914  0.00  0.00    +0.000 A 
ATOM     23  C   UNL     1       6.101   3.391  12.799  0.00  0.00    +0.000 A 
ATOM     24  C   UNL     1       6.126   3.694  14.159  0.00  0.00    +0.000 A 
ENDBRANCH  18  19
ENDBRANCH  16  18
ENDBRANCH  15  16
ENDBRANCH   5  15
TORSDOF 6
ENDMDL
MODEL 7
REMARK VINA RESULT:      -7.7      1.428      1.950
REMARK  Name = 
REMARK  7 active torsions:
REMARK  status: ('A' for Active; 'I' for Inactive)
REMARK    1  A    between atoms: C_1  and  C_2
REMARK    2  A    between atoms: C_2  and  C_3
REMARK    3  A    between atoms: C_3  and  C_4
REMARK    4  A    between atoms: C_13  and  C_14
REMARK    5  A    between atoms: C_14  and  N_15
REMARK    6  A    between atoms: N_15  and  C_16
REMARK    7  A    between atoms: C_16  and  C_17
REMARK                            x       y       z     vdW  Elec       q    Type
REMARK                         _______ _______ _______ _____ _____    ______ ____
ROOT
ATOM      1  C   UNL     1       2.619   5.388  19.327  0.00  0.00    +0.000 C 
ATOM      2  C   UNL     1       2.209   4.636  18.030  0.00  0.00    +0.000 C 
ATOM      3  O   UNL     1       2.762   3.315  17.942  0.00  0.00    +0.000 OA
ATOM      4  C   UNL     1       4.194   3.379  17.995  0.00  0.00    +0.000 C 
ATOM      5  C   UNL     1       4.639   4.024  19.306  0.00  0.00    +0.000 C 
ATOM      6  O   UNL     1       4.054   5.325  19.476  0.00  0.00    +0.000 OA
ENDROOT
BRANCH   1   7
ATOM      7  C   UNL     1       2.221   6.882  19.155  0.00  0.00    +0.000 A 
ATOM      8  C   UNL     1       2.423   7.570  17.944  0.00  0.00    +0.000 A 
ATOM      9  C   UNL     1       2.118   8.931  17.826  0.00  0.00    +0.000 A 
ATOM     10  C   UNL     1       1.611   9.636  18.915  0.00  0.00    +0.000 A 
ATOM     11  C   UNL     1       1.386   8.974  20.118  0.00  0.00    +0.000 A 
ATOM     12  C   UNL     1       1.676   7.612  20.232  0.00  0.00    +0.000 A 
ENDBRANCH   1   7
BRANCH   1  14
ATOM     13  C   UNL     1       0.943   3.709  20.570  0.00  0.00    +0.000 C 
ATOM     14  C   UNL     1       1.902   4.889  20.623  0.00  0.00    +0.000 C 
ENDBRANCH   1  14
BRANCH   5  15
ATOM     15  C   UNL     1       6.178   4.124  19.404  0.00  0.00    +0.000 C 
BRANCH  15  16
ATOM     16  N   UNL     1       6.582   5.520  19.582  0.00  0.00    +0.000 NA
ATOM     17  H   UNL     1       7.011   5.668  20.492  0.00  0.00    +0.000 HD
BRANCH  16  18
ATOM     18  C   UNL     1       7.457   6.017  18.531  0.00  0.00    +0.000 C 
BRANCH  18  19
ATOM     19  C   UNL     1       6.838   5.745  17.178  0.00  0.00    +0.000 A 
ATOM     20  C   UNL     1       7.327   4.725  16.352  0.00  0.00    +0.000 A 
ATOM     21  C   UNL     1       6.764   4.505  15.094  0.00  0.00    +0.000 A 
ATOM     22  C   UNL     1       5.709   5.300  14.651  0.00  0.00    +0.000 A 
ATOM     23  C   UNL     1       5.207   6.312  15.463  0.00  0.00    +0.000 A 
ATOM     24  C   UNL     1       5.767   6.531  16.721  0.00  0.00    +0.000 A 
ENDBRANCH  18  19
ENDBRANCH  16  18
ENDBRANCH  15  16
ENDBRANCH   5  15
TORSDOF 6
ENDMDL
MODEL 8
REMARK VINA RESULT:      -7.4      1.574      3.630
REMARK  Name = 
REMARK  7 active torsions:
REMARK  status: ('A' for Active; 'I' for Inactive)
REMARK    1  A    between atoms: C_1  and  C_2
REMARK    2  A    between atoms: C_2  and  C_3
REMARK    3  A    between atoms: C_3  and  C_4
REMARK    4  A    between atoms: C_13  and  C_14
REMARK    5  A    between atoms: C_14  and  N_15
REMARK    6  A    between atoms: N_15  and  C_16
REMARK    7  A    between atoms: C_16  and  C_17
REMARK                            x       y       z     vdW  Elec       q    Type
REMARK                         _______ _______ _______ _____ _____    ______ ____
ROOT
ATOM      1  C   UNL     1       4.263   5.274  18.189  0.00  0.00    +0.000 C 
ATOM      2  C   UNL     1       5.410   5.277  19.238  0.00  0.00    +0.000 C 
ATOM      3  O   UNL     1       6.668   5.707  18.698  0.00  0.00    +0.000 OA
ATOM      4  C   UNL     1       7.052   4.855  17.610  0.00  0.00    +0.000 C 
ATOM      5  C   UNL     1       5.992   4.903  16.512  0.00  0.00    +0.000 C 
ATOM      6  O   UNL     1       4.695   4.548  17.018  0.00  0.00    +0.000 OA
ENDROOT
BRANCH   1   7
ATOM      7  C   UNL     1       3.057   4.509  18.807  0.00  0.00    +0.000 A 
ATOM      8  C   UNL     1       2.151   3.785  18.011  0.00  0.00    +0.000 A 
ATOM      9  C   UNL     1       1.035   3.155  18.576  0.00  0.00    +0.000 A 
ATOM     10  C   UNL     1       0.798   3.240  19.946  0.00  0.00    +0.000 A 
ATOM     11  C   UNL     1       1.690   3.935  20.757  0.00  0.00    +0.000 A 
ATOM     12  C   UNL     1       2.811   4.551  20.195  0.00  0.00    +0.000 A 
ENDBRANCH   1   7
BRANCH   1  14
ATOM     13  C   UNL     1       2.529   7.288  18.519  0.00  0.00    +0.000 C 
ATOM     14  C   UNL     1       3.730   6.691  17.801  0.00  0.00    +0.000 C 
ENDBRANCH   1  14
BRANCH   5  15
ATOM     15  C   UNL     1       6.358   3.989  15.320  0.00  0.00    +0.000 C 
BRANCH  15  16
ATOM     16  N   UNL     1       7.422   4.602  14.524  0.00  0.00    +0.000 NA
ATOM     17  H   UNL     1       8.245   4.006  14.484  0.00  0.00    +0.000 HD
BRANCH  16  18
ATOM     18  C   UNL     1       7.011   4.974  13.179  0.00  0.00    +0.000 C 
BRANCH  18  19
ATOM     19  C   UNL     1       6.614   3.737  12.404  0.00  0.00    +0.000 A 
ATOM     20  C   UNL     1       7.584   2.865  11.891  0.00  0.00    +0.000 A 
ATOM     21  C   UNL     1       7.202   1.743  11.153  0.00  0.00    +0.000 A 
ATOM     22  C   UNL     1       5.854   1.483  10.921  0.00  0.00    +0.000 A 
ATOM     23  C   UNL     1       4.880   2.336  11.430  0.00  0.00    +0.000 A 
ATOM     24  C   UNL     1       5.259   3.455  12.170  0.00  0.00    +0.000 A 
ENDBRANCH  18  19
ENDBRANCH  16  18
ENDBRANCH  15  16
ENDBRANCH   5  15
TORSDOF 6
ENDMDL
MODEL 9
REMARK VINA RESULT:      -7.3      1.646      3.723
REMARK  Name = 
REMARK  7 active torsions:
REMARK  status: ('A' for Active; 'I' for Inactive)
REMARK    1  A    between atoms: C_1  and  C_2
REMARK    2  A    between atoms: C_2  and  C_3
REMARK    3  A    between atoms: C_3  and  C_4
REMARK    4  A    between atoms: C_13  and  C_14
REMARK    5  A    between atoms: C_14  and  N_15
REMARK    6  A    between atoms: N_15  and  C_16
REMARK    7  A    between atoms: C_16  and  C_17
REMARK                            x       y       z     vdW  Elec       q    Type
REMARK                         _______ _______ _______ _____ _____    ______ ____
ROOT
ATOM      1  C   UNL     1       4.357   5.219  18.194  0.00  0.00    +0.000 C 
ATOM      2  C   UNL     1       5.455   5.232  19.293  0.00  0.00    +0.000 C 
ATOM      3  O   UNL     1       6.686   5.826  18.856  0.00  0.00    +0.000 OA
ATOM      4  C   UNL     1       7.194   5.119  17.716  0.00  0.00    +0.000 C 
ATOM      5  C   UNL     1       6.179   5.170  16.576  0.00  0.00    +0.000 C 
ATOM      6  O   UNL     1       4.904   4.650  16.985  0.00  0.00    +0.000 OA
ENDROOT
BRANCH   1   7
ATOM      7  C   UNL     1       3.208   4.290  18.682  0.00  0.00    +0.000 A 
ATOM      8  C   UNL     1       2.188   3.853  17.816  0.00  0.00    +0.000 A 
ATOM      9  C   UNL     1       1.128   3.070  18.286  0.00  0.00    +0.000 A 
ATOM     10  C   UNL     1       1.059   2.712  19.630  0.00  0.00    +0.000 A 
ATOM     11  C   UNL     1       2.064   3.116  20.502  0.00  0.00    +0.000 A 
ATOM     12  C   UNL     1       3.131   3.885  20.030  0.00  0.00    +0.000 A 
ENDBRANCH   1   7
BRANCH   1  14
ATOM     13  C   UNL     1       2.664   7.185  18.858  0.00  0.00    +0.000 C 
ATOM     14  C   UNL     1       3.704   6.610  17.908  0.00  0.00    +0.000 C 
ENDBRANCH   1  14
BRANCH   5  15
ATOM     15  C   UNL     1       6.679   4.410  15.326  0.00  0.00    +0.000 C 
BRANCH  15  16
ATOM     16  N   UNL     1       6.606   5.276  14.148  0.00  0.00    +0.000 NA
ATOM     17  H   UNL     1       6.817   6.242  14.384  0.00  0.00    +0.000 HD
BRANCH  16  18
ATOM     18  C   UNL     1       7.445   4.836  13.043  0.00  0.00    +0.000 C 
BRANCH  18  19
ATOM     19  C   UNL     1       6.771   3.697  12.310  0.00  0.00    +0.000 A 
ATOM     20  C   UNL     1       5.375   3.629  12.209  0.00  0.00    +0.000 A 
ATOM     21  C   UNL     1       4.768   2.556  11.554  0.00  0.00    +0.000 A 
ATOM     22  C   UNL     1       5.547   1.545  10.995  0.00  0.00    +0.000 A 
ATOM     23  C   UNL     1       6.934   1.603  11.081  0.00  0.00    +0.000 A 
ATOM     24  C   UNL     1       7.542   2.675  11.733  0.00  0.00    +0.000 A 
ENDBRANCH  18  19
ENDBRANCH  16  18
ENDBRANCH  15  16
ENDBRANCH   5  15
TORSDOF 6
ENDMDL
