MODEL 1
REMARK VINA RESULT:      -7.9      0.000      0.000
REMARK  Name = 
REMARK  5 active torsions:
REMARK  status: ('A' for Active; 'I' for Inactive)
REMARK    1  A    between atoms: N_8  and  C_9
REMARK    2  A    between atoms: C_9  and  C_10
REMARK    3  A    between atoms: C_10  and  O_11
REMARK    4  A    between atoms: C_10  and  C_12
REMARK    5  A    between atoms: C_12  and  N_13
REMARK                            x       y       z     vdW  Elec       q    Type
REMARK                         _______ _______ _______ _____ _____    ______ ____
ROOT
ATOM      1  N   UNL     1       3.060   6.117  18.531  0.00  0.00    +0.000 N 
ATOM      2  C   UNL     1       2.409   4.949  18.914  0.00  0.00    +0.000 A 
ATOM      3  C   UNL     1       1.440   4.702  19.902  0.00  0.00    +0.000 A 
ATOM      4  C   UNL     1       0.963   3.396  20.050  0.00  0.00    +0.000 A 
ATOM      5  C   UNL     1       1.437   2.372  19.237  0.00  0.00    +0.000 A 
ATOM      6  F   UNL     1       0.972   1.128  19.409  0.00  0.00    +0.000 F 
ATOM      7  C   UNL     1       2.383   2.616  18.249  0.00  0.00    +0.000 A 
ATOM      8  C   UNL     1       2.883   3.924  18.087  0.00  0.00    +0.000 A 
ATOM      9  C   UNL     1       3.845   4.491  17.203  0.00  0.00    +0.000 A 
ATOM     10  C   UNL     1       4.633   3.940  16.170  0.00  0.00    +0.000 A 
ATOM     11  C   UNL     1       5.506   4.765  15.473  0.00  0.00    +0.000 A 
ATOM     12  F   UNL     1       6.253   4.247  14.490  0.00  0.00    +0.000 F 
ATOM     13  C   UNL     1       5.625   6.113  15.783  0.00  0.00    +0.000 A 
ATOM     14  C   UNL     1       4.855   6.680  16.804  0.00  0.00    +0.000 A 
ATOM     15  C   UNL     1       3.959   5.854  17.506  0.00  0.00    +0.000 A 
ENDROOT
BRANCH   1  16
ATOM     16  C   UNL     1       2.852   7.424  19.167  0.00  0.00    +0.000 C 
BRANCH  16  17
ATOM     17  C   UNL     1       1.828   8.304  18.426  0.00  0.00    +0.000 C 
BRANCH  17  18
ATOM     18  O   UNL     1       2.477   9.093  17.415  0.00  0.00    +0.000 OA
ATOM     19  H   UNL     1       2.198   8.773  16.542  0.00  0.00    +0.000 HD
ENDBRANCH  17  18
BRANCH  17  20
ATOM     20  C   UNL     1       1.050   9.261  19.377  0.00  0.00    +0.000 C 
BRANCH  20  28
ATOM     21  O   UNL     1       1.742  11.961  18.829  0.00  0.00    +0.000 OA
ATOM     22  C   UNL     1       0.584  11.579  18.668  0.00  0.00    +0.000 C 
ATOM     23  C   UNL     1      -0.621  12.519  18.791  0.00  0.00    +0.000 C 
ATOM     24  F   UNL     1      -0.314  13.813  18.483  0.00  0.00    +0.000 F 
ATOM     25  C   UNL     1      -1.818  12.106  17.954  0.00  0.00    +0.000 C 
ATOM     26  C   UNL     1      -2.147  10.636  18.163  0.00  0.00    +0.000 C 
ATOM     27  C   UNL     1      -0.922   9.784  17.866  0.00  0.00    +0.000 C 
ATOM     28  N   UNL     1       0.259  10.227  18.598  0.00  0.00    +0.000 N 
ENDBRANCH  20  28
ENDBRANCH  17  20
ENDBRANCH  16  17
ENDBRANCH   1  16
TORSDOF 5
ENDMDL
MODEL 2
REMARK VINA RESULT:      -7.9      0.089      3.744
REMARK  Name = 
REMARK  5 active torsions:
REMARK  status: ('A' for Active; 'I' for Inactive)
REMARK    1  A    between atoms: N_8  and  C_9
REMARK    2  A    between atoms: C_9  and  C_10
REMARK    3  A    between atoms: C_10  and  O_11
REMARK    4  A    between atoms: C_10  and  C_12
REMARK    5  A    between atoms: C_12  and  N_13
REMARK                            x       y       z     vdW  Elec       q    Type
REMARK                         _______ _______ _______ _____ _____    ______ ____
ROOT
ATOM      1  N   UNL     1       3.116   6.104  18.572  0.00  0.00    +0.000 N 
ATOM      2  C   UNL     1       3.999   5.847  17.529  0.00  0.00    +0.000 A 
ATOM      3  C   UNL     1       4.884   6.685  16.828  0.00  0.00    +0.000 A 
ATOM      4  C   UNL     1       5.660   6.124  15.809  0.00  0.00    +0.000 A 
ATOM      5  C   UNL     1       5.557   4.771  15.503  0.00  0.00    +0.000 A 
ATOM      6  F   UNL     1       6.304   4.262  14.514  0.00  0.00    +0.000 F 
ATOM      7  C   UNL     1       4.694   3.937  16.204  0.00  0.00    +0.000 A 
ATOM      8  C   UNL     1       3.897   4.483  17.230  0.00  0.00    +0.000 A 
ATOM      9  C   UNL     1       2.925   3.920  18.106  0.00  0.00    +0.000 A 
ATOM     10  C   UNL     1       2.423   2.610  18.257  0.00  0.00    +0.000 A 
ATOM     11  C   UNL     1       1.450   2.367  19.218  0.00  0.00    +0.000 A 
ATOM     12  F   UNL     1       0.973   1.124  19.368  0.00  0.00    +0.000 F 
ATOM     13  C   UNL     1       0.955   3.388  20.018  0.00  0.00    +0.000 A 
ATOM     14  C   UNL     1       1.437   4.694  19.884  0.00  0.00    +0.000 A 
ATOM     15  C   UNL     1       2.433   4.947  18.922  0.00  0.00    +0.000 A 
ENDROOT
BRANCH   1  16
ATOM     16  C   UNL     1       2.911   7.428  19.172  0.00  0.00    +0.000 C 
BRANCH  16  17
ATOM     17  C   UNL     1       1.841   8.266  18.446  0.00  0.00    +0.000 C 
BRANCH  17  18
ATOM     18  O   UNL     1       2.420   8.976  17.340  0.00  0.00    +0.000 OA
ATOM     19  H   UNL     1       3.358   8.736  17.270  0.00  0.00    +0.000 HD
ENDBRANCH  17  18
BRANCH  17  20
ATOM     20  C   UNL     1       1.138   9.294  19.382  0.00  0.00    +0.000 C 
BRANCH  20  28
ATOM     21  O   UNL     1       1.674  12.045  18.915  0.00  0.00    +0.000 OA
ATOM     22  C   UNL     1       0.549  11.593  18.703  0.00  0.00    +0.000 C 
ATOM     23  C   UNL     1      -0.717  12.451  18.801  0.00  0.00    +0.000 C 
ATOM     24  F   UNL     1      -0.484  13.769  18.531  0.00  0.00    +0.000 F 
ATOM     25  C   UNL     1      -1.854  11.982  17.911  0.00  0.00    +0.000 C 
ATOM     26  C   UNL     1      -2.095  10.490  18.078  0.00  0.00    +0.000 C 
ATOM     27  C   UNL     1      -0.808   9.725  17.810  0.00  0.00    +0.000 C 
ATOM     28  N   UNL     1       0.315  10.225  18.594  0.00  0.00    +0.000 N 
ENDBRANCH  20  28
ENDBRANCH  17  20
ENDBRANCH  16  17
ENDBRANCH   1  16
TORSDOF 5
ENDMDL
MODEL 3
REMARK VINA RESULT:      -7.8      3.545      7.897
REMARK  Name = 
REMARK  5 active torsions:
REMARK  status: ('A' for Active; 'I' for Inactive)
REMARK    1  A    between atoms: N_8  and  C_9
REMARK    2  A    between atoms: C_9  and  C_10
REMARK    3  A    between atoms: C_10  and  O_11
REMARK    4  A    between atoms: C_10  and  C_12
REMARK    5  A    between atoms: C_12  and  N_13
REMARK                            x       y       z     vdW  Elec       q    Type
REMARK                         _______ _______ _______ _____ _____    ______ ____
ROOT
ATOM      1  N   UNL     1       4.114   5.111  18.533  0.00  0.00    +0.000 N 
ATOM      2  C   UNL     1       3.460   6.337  18.463  0.00  0.00    +0.000 A 
ATOM      3  C   UNL     1       3.695   7.475  17.673  0.00  0.00    +0.000 A 
ATOM      4  C   UNL     1       2.849   8.577  17.830  0.00  0.00    +0.000 A 
ATOM      5  C   UNL     1       1.802   8.542  18.745  0.00  0.00    +0.000 A 
ATOM      6  F   UNL     1       1.014   9.616  18.884  0.00  0.00    +0.000 F 
ATOM      7  C   UNL     1       1.558   7.413  19.518  0.00  0.00    +0.000 A 
ATOM      8  C   UNL     1       2.403   6.293  19.380  0.00  0.00    +0.000 A 
ATOM      9  C   UNL     1       2.436   5.019  20.017  0.00  0.00    +0.000 A 
ATOM     10  C   UNL     1       1.625   4.427  21.008  0.00  0.00    +0.000 A 
ATOM     11  C   UNL     1       1.918   3.141  21.441  0.00  0.00    +0.000 A 
ATOM     12  F   UNL     1       1.148   2.574  22.379  0.00  0.00    +0.000 F 
ATOM     13  C   UNL     1       2.998   2.437  20.929  0.00  0.00    +0.000 A 
ATOM     14  C   UNL     1       3.818   3.004  19.947  0.00  0.00    +0.000 A 
ATOM     15  C   UNL     1       3.520   4.303  19.493  0.00  0.00    +0.000 A 
ENDROOT
BRANCH   1  16
ATOM     16  C   UNL     1       5.294   4.758  17.734  0.00  0.00    +0.000 C 
BRANCH  16  17
ATOM     17  C   UNL     1       4.947   3.991  16.444  0.00  0.00    +0.000 C 
BRANCH  17  18
ATOM     18  O   UNL     1       5.873   2.913  16.232  0.00  0.00    +0.000 OA
ATOM     19  H   UNL     1       5.527   2.115  16.662  0.00  0.00    +0.000 HD
ENDBRANCH  17  18
BRANCH  17  20
ATOM     20  C   UNL     1       4.947   4.900  15.179  0.00  0.00    +0.000 C 
BRANCH  20  28
ATOM     21  O   UNL     1       7.708   5.566  15.236  0.00  0.00    +0.000 OA
ATOM     22  C   UNL     1       7.211   5.095  14.214  0.00  0.00    +0.000 C 
ATOM     23  C   UNL     1       7.760   5.395  12.814  0.00  0.00    +0.000 C 
ATOM     24  F   UNL     1       9.097   5.669  12.820  0.00  0.00    +0.000 F 
ATOM     25  C   UNL     1       7.509   4.293  11.801  0.00  0.00    +0.000 C 
ATOM     26  C   UNL     1       6.052   3.857  11.821  0.00  0.00    +0.000 C 
ATOM     27  C   UNL     1       5.657   3.438  13.229  0.00  0.00    +0.000 C 
ATOM     28  N   UNL     1       5.975   4.453  14.226  0.00  0.00    +0.000 N 
ENDBRANCH  20  28
ENDBRANCH  17  20
ENDBRANCH  16  17
ENDBRANCH   1  16
TORSDOF 5
ENDMDL
MODEL 4
REMARK VINA RESULT:      -7.8      3.460      7.352
REMARK  Name = 
REMARK  5 active torsions:
REMARK  status: ('A' for Active; 'I' for Inactive)
REMARK    1  A    between atoms: N_8  and  C_9
REMARK    2  A    between atoms: C_9  and  C_10
REMARK    3  A    between atoms: C_10  and  O_11
REMARK    4  A    between atoms: C_10  and  C_12
REMARK    5  A    between atoms: C_12  and  N_13
REMARK                            x       y       z     vdW  Elec       q    Type
REMARK                         _______ _______ _______ _____ _____    ______ ____
ROOT
ATOM      1  N   UNL     1       4.093   5.426  18.529  0.00  0.00    +0.000 N 
ATOM      2  C   UNL     1       3.527   4.541  19.441  0.00  0.00    +0.000 A 
ATOM      3  C   UNL     1       3.884   3.234  19.817  0.00  0.00    +0.000 A 
ATOM      4  C   UNL     1       3.106   2.587  20.782  0.00  0.00    +0.000 A 
ATOM      5  C   UNL     1       2.010   3.225  21.354  0.00  0.00    +0.000 A 
ATOM      6  F   UNL     1       1.276   2.577  22.267  0.00  0.00    +0.000 F 
ATOM      7  C   UNL     1       1.664   4.522  20.995  0.00  0.00    +0.000 A 
ATOM      8  C   UNL     1       2.430   5.191  20.019  0.00  0.00    +0.000 A 
ATOM      9  C   UNL     1       2.335   6.484  19.431  0.00  0.00    +0.000 A 
ATOM     10  C   UNL     1       1.439   7.557  19.626  0.00  0.00    +0.000 A 
ATOM     11  C   UNL     1       1.603   8.718  18.880  0.00  0.00    +0.000 A 
ATOM     12  F   UNL     1       0.758   9.740  19.065  0.00  0.00    +0.000 F 
ATOM     13  C   UNL     1       2.618   8.834  17.941  0.00  0.00    +0.000 A 
ATOM     14  C   UNL     1       3.516   7.782  17.729  0.00  0.00    +0.000 A 
ATOM     15  C   UNL     1       3.365   6.608  18.490  0.00  0.00    +0.000 A 
ENDROOT
BRANCH   1  16
ATOM     16  C   UNL     1       5.264   5.118  17.698  0.00  0.00    +0.000 C 
BRANCH  16  17
ATOM     17  C   UNL     1       4.929   4.239  16.479  0.00  0.00    +0.000 C 
BRANCH  17  18
ATOM     18  O   UNL     1       5.867   3.157  16.363  0.00  0.00    +0.000 OA
ATOM     19  H   UNL     1       6.106   2.853  17.253  0.00  0.00    +0.000 HD
ENDBRANCH  17  18
BRANCH  17  20
ATOM     20  C   UNL     1       4.925   5.036  15.140  0.00  0.00    +0.000 C 
BRANCH  20  28
ATOM     21  O   UNL     1       7.699   5.643  15.211  0.00  0.00    +0.000 OA
ATOM     22  C   UNL     1       7.208   5.130  14.206  0.00  0.00    +0.000 C 
ATOM     23  C   UNL     1       7.786   5.343  12.803  0.00  0.00    +0.000 C 
ATOM     24  F   UNL     1       9.130   5.587  12.817  0.00  0.00    +0.000 F 
ATOM     25  C   UNL     1       7.527   4.194  11.844  0.00  0.00    +0.000 C 
ATOM     26  C   UNL     1       6.061   3.792  11.862  0.00  0.00    +0.000 C 
ATOM     27  C   UNL     1       5.633   3.457  13.282  0.00  0.00    +0.000 C 
ATOM     28  N   UNL     1       5.958   4.516  14.230  0.00  0.00    +0.000 N 
ENDBRANCH  20  28
ENDBRANCH  17  20
ENDBRANCH  16  17
ENDBRANCH   1  16
TORSDOF 5
ENDMDL
MODEL 5
REMARK VINA RESULT:      -7.7      1.791      2.207
REMARK  Name = 
REMARK  5 active torsions:
REMARK  status: ('A' for Active; 'I' for Inactive)
REMARK    1  A    between atoms: N_8  and  C_9
REMARK    2  A    between atoms: C_9  and  C_10
REMARK    3  A    between atoms: C_10  and  O_11
REMARK    4  A    between atoms: C_10  and  C_12
REMARK    5  A    between atoms: C_12  and  N_13
REMARK                            x       y       z     vdW  Elec       q    Type
REMARK                         _______ _______ _______ _____ _____    ______ ____
ROOT
ATOM      1  N   UNL     1       3.013   6.300  18.617  0.00  0.00    +0.000 N 
ATOM      2  C   UNL     1       2.355   5.139  19.011  0.00  0.00    +0.000 A 
ATOM      3  C   UNL     1       1.394   4.905  20.009  0.00  0.00    +0.000 A 
ATOM      4  C   UNL     1       0.908   3.603  20.168  0.00  0.00    +0.000 A 
ATOM      5  C   UNL     1       1.366   2.572  19.355  0.00  0.00    +0.000 A 
ATOM      6  F   UNL     1       0.893   1.332  19.537  0.00  0.00    +0.000 F 
ATOM      7  C   UNL     1       2.306   2.803  18.358  0.00  0.00    +0.000 A 
ATOM      8  C   UNL     1       2.814   4.106  18.185  0.00  0.00    +0.000 A 
ATOM      9  C   UNL     1       3.773   4.662  17.289  0.00  0.00    +0.000 A 
ATOM     10  C   UNL     1       4.548   4.100  16.253  0.00  0.00    +0.000 A 
ATOM     11  C   UNL     1       5.421   4.915  15.544  0.00  0.00    +0.000 A 
ATOM     12  F   UNL     1       6.156   4.387  14.557  0.00  0.00    +0.000 F 
ATOM     13  C   UNL     1       5.554   6.263  15.846  0.00  0.00    +0.000 A 
ATOM     14  C   UNL     1       4.797   6.842  16.871  0.00  0.00    +0.000 A 
ATOM     15  C   UNL     1       3.901   6.025  17.585  0.00  0.00    +0.000 A 
ENDROOT
BRANCH   1  16
ATOM     16  C   UNL     1       2.821   7.612  19.248  0.00  0.00    +0.000 C 
BRANCH  16  17
ATOM     17  C   UNL     1       1.647   8.409  18.648  0.00  0.00    +0.000 C 
BRANCH  17  18
ATOM     18  O   UNL     1       1.843   8.614  17.240  0.00  0.00    +0.000 OA
ATOM     19  H   UNL     1       0.976   8.708  16.814  0.00  0.00    +0.000 HD
ENDBRANCH  17  18
BRANCH  17  20
ATOM     20  C   UNL     1       1.446   9.796  19.327  0.00  0.00    +0.000 C 
BRANCH  20  28
ATOM     21  O   UNL     1      -1.062  11.118  19.516  0.00  0.00    +0.000 OA
ATOM     22  C   UNL     1      -0.554  10.617  20.519  0.00  0.00    +0.000 C 
ATOM     23  C   UNL     1      -0.820  11.148  21.932  0.00  0.00    +0.000 C 
ATOM     24  F   UNL     1      -2.043  11.743  22.051  0.00  0.00    +0.000 F 
ATOM     25  C   UNL     1      -0.699  10.098  23.022  0.00  0.00    +0.000 C 
ATOM     26  C   UNL     1       0.597   9.316  22.882  0.00  0.00    +0.000 C 
ATOM     27  C   UNL     1       0.686   8.707  21.491  0.00  0.00    +0.000 C 
ATOM     28  N   UNL     1       0.482   9.691  20.434  0.00  0.00    +0.000 N 
ENDBRANCH  20  28
ENDBRANCH  17  20
ENDBRANCH  16  17
ENDBRANCH   1  16
TORSDOF 5
ENDMDL
MODEL 6
REMARK VINA RESULT:      -7.7      1.855      4.337
REMARK  Name = 
REMARK  5 active torsions:
REMARK  status: ('A' for Active; 'I' for Inactive)
REMARK    1  A    between atoms: N_8  and  C_9
REMARK    2  A    between atoms: C_9  and  C_10
REMARK    3  A    between atoms: C_10  and  O_11
REMARK    4  A    between atoms: C_10  and  C_12
REMARK    5  A    between atoms: C_12  and  N_13
REMARK                            x       y       z     vdW  Elec       q    Type
REMARK                         _______ _______ _______ _____ _____    ______ ____
ROOT
ATOM      1  N   UNL     1       3.231   6.545  18.563  0.00  0.00    +0.000 N 
ATOM      2  C   UNL     1       3.983   6.079  17.490  0.00  0.00    +0.000 A 
ATOM      3  C   UNL     1       4.757   6.753  16.530  0.00  0.00    +0.000 A 
ATOM      4  C   UNL     1       5.413   5.995  15.556  0.00  0.00    +0.000 A 
ATOM      5  C   UNL     1       5.300   4.608  15.542  0.00  0.00    +0.000 A 
ATOM      6  F   UNL     1       5.929   3.907  14.590  0.00  0.00    +0.000 F 
ATOM      7  C   UNL     1       4.548   3.937  16.499  0.00  0.00    +0.000 A 
ATOM      8  C   UNL     1       3.873   4.683  17.486  0.00  0.00    +0.000 A 
ATOM      9  C   UNL     1       3.028   4.313  18.572  0.00  0.00    +0.000 A 
ATOM     10  C   UNL     1       2.575   3.063  19.044  0.00  0.00    +0.000 A 
ATOM     11  C   UNL     1       1.733   3.023  20.149  0.00  0.00    +0.000 A 
ATOM     12  F   UNL     1       1.304   1.839  20.603  0.00  0.00    +0.000 F 
ATOM     13  C   UNL     1       1.321   4.187  20.783  0.00  0.00    +0.000 A 
ATOM     14  C   UNL     1       1.756   5.437  20.331  0.00  0.00    +0.000 A 
ATOM     15  C   UNL     1       2.620   5.486  19.220  0.00  0.00    +0.000 A 
ENDROOT
BRANCH   1  16
ATOM     16  C   UNL     1       3.075   7.964  18.906  0.00  0.00    +0.000 C 
BRANCH  16  17
ATOM     17  C   UNL     1       1.668   8.512  18.602  0.00  0.00    +0.000 C 
BRANCH  17  18
ATOM     18  O   UNL     1       1.468   8.634  17.185  0.00  0.00    +0.000 OA
ATOM     19  H   UNL     1       1.176   9.538  16.987  0.00  0.00    +0.000 HD
ENDBRANCH  17  18
BRANCH  17  20
ATOM     20  C   UNL     1       1.401   9.898  19.261  0.00  0.00    +0.000 C 
BRANCH  20  28
ATOM     21  O   UNL     1      -1.106  11.211  19.511  0.00  0.00    +0.000 OA
ATOM     22  C   UNL     1      -0.587  10.685  20.496  0.00  0.00    +0.000 C 
ATOM     23  C   UNL     1      -0.838  11.178  21.925  0.00  0.00    +0.000 C 
ATOM     24  F   UNL     1      -2.060  11.768  22.072  0.00  0.00    +0.000 F 
ATOM     25  C   UNL     1      -0.704  10.100  22.985  0.00  0.00    +0.000 C 
ATOM     26  C   UNL     1       0.591   9.323  22.810  0.00  0.00    +0.000 C 
ATOM     27  C   UNL     1       0.665   8.751  21.403  0.00  0.00    +0.000 C 
ATOM     28  N   UNL     1       0.449   9.762  20.375  0.00  0.00    +0.000 N 
ENDBRANCH  20  28
ENDBRANCH  17  20
ENDBRANCH  16  17
ENDBRANCH   1  16
TORSDOF 5
ENDMDL
MODEL 7
REMARK VINA RESULT:      -7.6      3.102      7.367
REMARK  Name = 
REMARK  5 active torsions:
REMARK  status: ('A' for Active; 'I' for Inactive)
REMARK    1  A    between atoms: N_8  and  C_9
REMARK    2  A    between atoms: C_9  and  C_10
REMARK    3  A    between atoms: C_10  and  O_11
REMARK    4  A    between atoms: C_10  and  C_12
REMARK    5  A    between atoms: C_12  and  N_13
REMARK                            x       y       z     vdW  Elec       q    Type
REMARK                         _______ _______ _______ _____ _____    ______ ____
ROOT
ATOM      1  N   UNL     1       3.673   5.900  18.052  0.00  0.00    +0.000 N 
ATOM      2  C   UNL     1       3.476   4.861  18.956  0.00  0.00    +0.000 A 
ATOM      3  C   UNL     1       3.985   3.551  18.997  0.00  0.00    +0.000 A 
ATOM      4  C   UNL     1       3.597   2.724  20.055  0.00  0.00    +0.000 A 
ATOM      5  C   UNL     1       2.733   3.190  21.040  0.00  0.00    +0.000 A 
ATOM      6  F   UNL     1       2.370   2.372  22.036  0.00  0.00    +0.000 F 
ATOM      7  C   UNL     1       2.241   4.489  21.010  0.00  0.00    +0.000 A 
ATOM      8  C   UNL     1       2.613   5.339  19.949  0.00  0.00    +0.000 A 
ATOM      9  C   UNL     1       2.280   6.685  19.622  0.00  0.00    +0.000 A 
ATOM     10  C   UNL     1       1.463   7.646  20.255  0.00  0.00    +0.000 A 
ATOM     11  C   UNL     1       1.327   8.902  19.678  0.00  0.00    +0.000 A 
ATOM     12  F   UNL     1       0.556   9.818  20.277  0.00  0.00    +0.000 F 
ATOM     13  C   UNL     1       1.965   9.221  18.488  0.00  0.00    +0.000 A 
ATOM     14  C   UNL     1       2.778   8.283  17.842  0.00  0.00    +0.000 A 
ATOM     15  C   UNL     1       2.933   7.013  18.427  0.00  0.00    +0.000 A 
ENDROOT
BRANCH   1  16
ATOM     16  C   UNL     1       4.510   5.799  16.849  0.00  0.00    +0.000 C 
BRANCH  16  17
ATOM     17  C   UNL     1       5.985   5.485  17.160  0.00  0.00    +0.000 C 
BRANCH  17  18
ATOM     18  O   UNL     1       6.399   6.144  18.367  0.00  0.00    +0.000 OA
ATOM     19  H   UNL     1       6.819   6.989  18.135  0.00  0.00    +0.000 HD
ENDBRANCH  17  18
BRANCH  17  20
ATOM     20  C   UNL     1       6.950   5.906  16.011  0.00  0.00    +0.000 C 
BRANCH  20  28
ATOM     21  O   UNL     1       8.618   5.868  13.711  0.00  0.00    +0.000 OA
ATOM     22  C   UNL     1       7.605   5.171  13.747  0.00  0.00    +0.000 C 
ATOM     23  C   UNL     1       6.837   4.766  12.484  0.00  0.00    +0.000 C 
ATOM     24  F   UNL     1       7.636   4.696  11.379  0.00  0.00    +0.000 F 
ATOM     25  C   UNL     1       6.088   3.451  12.608  0.00  0.00    +0.000 C 
ATOM     26  C   UNL     1       5.261   3.414  13.883  0.00  0.00    +0.000 C 
ATOM     27  C   UNL     1       6.152   3.679  15.087  0.00  0.00    +0.000 C 
ATOM     28  N   UNL     1       6.944   4.895  14.941  0.00  0.00    +0.000 N 
ENDBRANCH  20  28
ENDBRANCH  17  20
ENDBRANCH  16  17
ENDBRANCH   1  16
TORSDOF 5
ENDMDL
MODEL 8
REMARK VINA RESULT:      -7.6      3.114      7.705
REMARK  Name = 
REMARK  5 active torsions:
REMARK  status: ('A' for Active; 'I' for Inactive)
REMARK    1  A    between atoms: N_8  and  C_9
REMARK    2  A    between atoms: C_9  and  C_10
REMARK    3  A    between atoms: C_10  and  O_11
REMARK    4  A    between atoms: C_10  and  C_12
REMARK    5  A    between atoms: C_12  and  N_13
REMARK                            x       y       z     vdW  Elec       q    Type
REMARK                         _______ _______ _______ _____ _____    ______ ____
ROOT
ATOM      1  N   UNL     1       3.646   5.788  18.022  0.00  0.00    +0.000 N 
ATOM      2  C   UNL     1       2.955   6.934  18.402  0.00  0.00    +0.000 A 
ATOM      3  C   UNL     1       2.856   8.204  17.808  0.00  0.00    +0.000 A 
ATOM      4  C   UNL     1       2.066   9.170  18.438  0.00  0.00    +0.000 A 
ATOM      5  C   UNL     1       1.394   8.876  19.620  0.00  0.00    +0.000 A 
ATOM      6  F   UNL     1       0.654   9.823  20.209  0.00  0.00    +0.000 F 
ATOM      7  C   UNL     1       1.478   7.616  20.202  0.00  0.00    +0.000 A 
ATOM      8  C   UNL     1       2.275   6.629  19.587  0.00  0.00    +0.000 A 
ATOM      9  C   UNL     1       2.578   5.279  19.925  0.00  0.00    +0.000 A 
ATOM     10  C   UNL     1       2.178   4.451  20.996  0.00  0.00    +0.000 A 
ATOM     11  C   UNL     1       2.658   3.149  21.058  0.00  0.00    +0.000 A 
ATOM     12  F   UNL     1       2.279   2.359  22.070  0.00  0.00    +0.000 F 
ATOM     13  C   UNL     1       3.531   2.656  20.098  0.00  0.00    +0.000 A 
ATOM     14  C   UNL     1       3.942   3.459  19.029  0.00  0.00    +0.000 A 
ATOM     15  C   UNL     1       3.450   4.776  18.951  0.00  0.00    +0.000 A 
ENDROOT
BRANCH   1  16
ATOM     16  C   UNL     1       4.500   5.697  16.830  0.00  0.00    +0.000 C 
BRANCH  16  17
ATOM     17  C   UNL     1       5.978   5.422  17.161  0.00  0.00    +0.000 C 
BRANCH  17  18
ATOM     18  O   UNL     1       6.361   6.101  18.368  0.00  0.00    +0.000 OA
ATOM     19  H   UNL     1       6.971   5.533  18.867  0.00  0.00    +0.000 HD
ENDBRANCH  17  18
BRANCH  17  20
ATOM     20  C   UNL     1       6.946   5.856  16.021  0.00  0.00    +0.000 C 
BRANCH  20  28
ATOM     21  O   UNL     1       8.607   5.856  13.715  0.00  0.00    +0.000 OA
ATOM     22  C   UNL     1       7.593   5.158  13.742  0.00  0.00    +0.000 C 
ATOM     23  C   UNL     1       6.820   4.775  12.476  0.00  0.00    +0.000 C 
ATOM     24  F   UNL     1       7.615   4.723  11.367  0.00  0.00    +0.000 F 
ATOM     25  C   UNL     1       6.071   3.459  12.581  0.00  0.00    +0.000 C 
ATOM     26  C   UNL     1       5.248   3.401  13.858  0.00  0.00    +0.000 C 
ATOM     27  C   UNL     1       6.144   3.646  15.063  0.00  0.00    +0.000 C 
ATOM     28  N   UNL     1       6.936   4.863  14.934  0.00  0.00    +0.000 N 
ENDBRANCH  20  28
ENDBRANCH  17  20
ENDBRANCH  16  17
ENDBRANCH   1  16
TORSDOF 5
ENDMDL
MODEL 9
REMARK VINA RESULT:      -7.5      1.829      2.147
REMARK  Name = 
REMARK  5 active torsions:
REMARK  status: ('A' for Active; 'I' for Inactive)
REMARK    1  A    between atoms: N_8  and  C_9
REMARK    2  A    between atoms: C_9  and  C_10
REMARK    3  A    between atoms: C_10  and  O_11
REMARK    4  A    between atoms: C_10  and  C_12
REMARK    5  A    between atoms: C_12  and  N_13
REMARK                            x       y       z     vdW  Elec       q    Type
REMARK                         _______ _______ _______ _____ _____    ______ ____
ROOT
ATOM      1  N   UNL     1       2.844   6.672  18.595  0.00  0.00    +0.000 N 
ATOM      2  C   UNL     1       2.369   5.544  19.257  0.00  0.00    +0.000 A 
ATOM      3  C   UNL     1       1.475   5.401  20.332  0.00  0.00    +0.000 A 
ATOM      4  C   UNL     1       1.185   4.110  20.785  0.00  0.00    +0.000 A 
ATOM      5  C   UNL     1       1.766   3.000  20.181  0.00  0.00    +0.000 A 
ATOM      6  F   UNL     1       1.479   1.776  20.642  0.00  0.00    +0.000 F 
ATOM      7  C   UNL     1       2.638   3.137  19.108  0.00  0.00    +0.000 A 
ATOM      8  C   UNL     1       2.951   4.430  18.640  0.00  0.00    +0.000 A 
ATOM      9  C   UNL     1       3.798   4.905  17.599  0.00  0.00    +0.000 A 
ATOM     10  C   UNL     1       4.620   4.244  16.662  0.00  0.00    +0.000 A 
ATOM     11  C   UNL     1       5.350   4.999  15.753  0.00  0.00    +0.000 A 
ATOM     12  F   UNL     1       6.129   4.376  14.859  0.00  0.00    +0.000 F 
ATOM     13  C   UNL     1       5.296   6.386  15.760  0.00  0.00    +0.000 A 
ATOM     14  C   UNL     1       4.490   7.063  16.681  0.00  0.00    +0.000 A 
ATOM     15  C   UNL     1       3.737   6.305  17.597  0.00  0.00    +0.000 A 
ENDROOT
BRANCH   1  16
ATOM     16  C   UNL     1       2.482   8.050  18.949  0.00  0.00    +0.000 C 
BRANCH  16  17
ATOM     17  C   UNL     1       1.588   8.732  17.897  0.00  0.00    +0.000 C 
BRANCH  17  18
ATOM     18  O   UNL     1       2.282   9.825  17.275  0.00  0.00    +0.000 OA
ATOM     19  H   UNL     1       2.324   9.666  16.319  0.00  0.00    +0.000 HD
ENDBRANCH  17  18
BRANCH  17  20
ATOM     20  C   UNL     1       0.252   9.269  18.493  0.00  0.00    +0.000 C 
BRANCH  20  28
ATOM     21  O   UNL     1       0.053   8.603  21.247  0.00  0.00    +0.000 OA
ATOM     22  C   UNL     1       0.096   9.784  20.902  0.00  0.00    +0.000 C 
ATOM     23  C   UNL     1      -0.547  10.908  21.721  0.00  0.00    +0.000 C 
ATOM     24  F   UNL     1      -0.605  10.623  23.055  0.00  0.00    +0.000 F 
ATOM     25  C   UNL     1       0.127  12.258  21.557  0.00  0.00    +0.000 C 
ATOM     26  C   UNL     1       0.328  12.591  20.087  0.00  0.00    +0.000 C 
ATOM     27  C   UNL     1       1.108  11.478  19.406  0.00  0.00    +0.000 C 
ATOM     28  N   UNL     1       0.520  10.162  19.631  0.00  0.00    +0.000 N 
ENDBRANCH  20  28
ENDBRANCH  17  20
ENDBRANCH  16  17
ENDBRANCH   1  16
TORSDOF 5
ENDMDL
