MODEL 1
REMARK VINA RESULT:      -7.7      0.000      0.000
REMARK  Name = 
REMARK  10 active torsions:
REMARK  status: ('A' for Active; 'I' for Inactive)
REMARK    1  A    between atoms: C_1  and  C_2
REMARK    2  A    between atoms: C_2  and  C_3
REMARK    3  A    between atoms: N_5  and  C_6
REMARK    4  A    between atoms: C_6  and  C_7
REMARK    5  A    between atoms: C_7  and  O_8
REMARK    6  A    between atoms: C_7  and  C_9
REMARK    7  A    between atoms: N_18  and  C_19
REMARK    8  A    between atoms: C_19  and  C_20
REMARK    9  A    between atoms: C_20  and  O_21
REMARK   10  A    between atoms: C_20  and  C_22
REMARK                            x       y       z     vdW  Elec       q    Type
REMARK                         _______ _______ _______ _____ _____    ______ ____
ROOT
ATOM      1  C   UNL     1       0.787   1.788  19.330  0.00  0.00    +0.000 C 
ATOM      2  C   UNL     1       1.631   2.908  20.005  0.00  0.00    +0.000 C 
ATOM      3  C   UNL     1       1.534   2.637  21.525  0.00  0.00    +0.000 C 
ATOM      4  C   UNL     1       3.122   2.718  19.575  0.00  0.00    +0.000 C 
ATOM      5  N   UNL     1       3.428   3.007  18.158  0.00  0.00    +0.000 NA
ATOM      6  C   UNL     1       2.813   4.283  17.731  0.00  0.00    +0.000 C 
ATOM      7  C   UNL     1       1.335   4.439  18.164  0.00  0.00    +0.000 C 
ATOM      8  N   UNL     1       1.117   4.271  19.625  0.00  0.00    +0.000 NA
ENDROOT
BRANCH   5   9
ATOM      9  C   UNL     1       4.893   3.023  17.907  0.00  0.00    +0.000 C 
BRANCH   9  10
ATOM     10  C   UNL     1       5.370   3.975  16.762  0.00  0.00    +0.000 C 
BRANCH  10  11
ATOM     11  C   UNL     1       6.267   5.108  17.221  0.00  0.00    +0.000 A 
ATOM     12  C   UNL     1       7.215   4.825  18.225  0.00  0.00    +0.000 A 
ATOM     13  C   UNL     1       8.005   5.836  18.778  0.00  0.00    +0.000 A 
ATOM     14  C   UNL     1       7.870   7.146  18.330  0.00  0.00    +0.000 A 
ATOM     15  C   UNL     1       6.948   7.447  17.325  0.00  0.00    +0.000 A 
ATOM     16  C   UNL     1       6.151   6.437  16.776  0.00  0.00    +0.000 A 
ATOM     17 CL   UNL     1       4.999   6.921  15.575  0.00  0.00    +0.000 Cl
ENDBRANCH  10  11
BRANCH  10  18
ATOM     18  O   UNL     1       6.072   3.311  15.711  0.00  0.00    +0.000 OA
ATOM     19  H   UNL     1       6.157   3.950  14.981  0.00  0.00    +0.000 HD
ENDBRANCH  10  18
ENDBRANCH   9  10
ENDBRANCH   5   9
BRANCH   8  20
ATOM     20  C   UNL     1       1.763   5.374  20.405  0.00  0.00    +0.000 C 
BRANCH  20  21
ATOM     21  C   UNL     1       2.297   6.629  19.630  0.00  0.00    +0.000 C 
BRANCH  21  22
ATOM     22  C   UNL     1       1.651   7.921  20.117  0.00  0.00    +0.000 A 
ATOM     23  C   UNL     1       1.300   8.057  21.481  0.00  0.00    +0.000 A 
ATOM     24  C   UNL     1       0.798   9.257  21.990  0.00  0.00    +0.000 A 
ATOM     25  C   UNL     1       0.626  10.347  21.147  0.00  0.00    +0.000 A 
ATOM     26  C   UNL     1       0.938  10.230  19.794  0.00  0.00    +0.000 A 
ATOM     27  C   UNL     1       1.444   9.030  19.279  0.00  0.00    +0.000 A 
ATOM     28 CL   UNL     1       1.793   8.994  17.587  0.00  0.00    +0.000 Cl
ENDBRANCH  21  22
BRANCH  21  29
ATOM     29  O   UNL     1       3.709   6.820  19.769  0.00  0.00    +0.000 OA
ATOM     30  H   UNL     1       3.864   7.469  20.470  0.00  0.00    +0.000 HD
ENDBRANCH  21  29
ENDBRANCH  20  21
ENDBRANCH   8  20
TORSDOF 8
ENDMDL
MODEL 2
REMARK VINA RESULT:      -7.4      1.315      1.692
REMARK  Name = 
REMARK  10 active torsions:
REMARK  status: ('A' for Active; 'I' for Inactive)
REMARK    1  A    between atoms: C_1  and  C_2
REMARK    2  A    between atoms: C_2  and  C_3
REMARK    3  A    between atoms: N_5  and  C_6
REMARK    4  A    between atoms: C_6  and  C_7
REMARK    5  A    between atoms: C_7  and  O_8
REMARK    6  A    between atoms: C_7  and  C_9
REMARK    7  A    between atoms: N_18  and  C_19
REMARK    8  A    between atoms: C_19  and  C_20
REMARK    9  A    between atoms: C_20  and  O_21
REMARK   10  A    between atoms: C_20  and  C_22
REMARK                            x       y       z     vdW  Elec       q    Type
REMARK                         _______ _______ _______ _____ _____    ______ ____
ROOT
ATOM      1  C   UNL     1       0.729   2.326  19.261  0.00  0.00    +0.000 C 
ATOM      2  C   UNL     1       1.792   3.321  19.812  0.00  0.00    +0.000 C 
ATOM      3  C   UNL     1       1.784   3.123  21.347  0.00  0.00    +0.000 C 
ATOM      4  C   UNL     1       3.192   2.880  19.276  0.00  0.00    +0.000 C 
ATOM      5  N   UNL     1       3.418   3.065  17.827  0.00  0.00    +0.000 NA
ATOM      6  C   UNL     1       2.976   4.407  17.387  0.00  0.00    +0.000 C 
ATOM      7  C   UNL     1       1.582   4.813  17.927  0.00  0.00    +0.000 C 
ATOM      8  N   UNL     1       1.466   4.733  19.407  0.00  0.00    +0.000 NA
ENDROOT
BRANCH   5   9
ATOM      9  C   UNL     1       4.840   2.838  17.461  0.00  0.00    +0.000 C 
BRANCH   9  10
ATOM     10  C   UNL     1       5.429   3.824  16.400  0.00  0.00    +0.000 C 
BRANCH  10  11
ATOM     11  C   UNL     1       6.278   4.937  16.981  0.00  0.00    +0.000 A 
ATOM     12  C   UNL     1       7.208   4.594  17.983  0.00  0.00    +0.000 A 
ATOM     13  C   UNL     1       7.952   5.576  18.644  0.00  0.00    +0.000 A 
ATOM     14  C   UNL     1       7.788   6.915  18.307  0.00  0.00    +0.000 A 
ATOM     15  C   UNL     1       6.884   7.276  17.307  0.00  0.00    +0.000 A 
ATOM     16  C   UNL     1       6.134   6.296  16.649  0.00  0.00    +0.000 A 
ATOM     17 CL   UNL     1       4.999   6.850  15.462  0.00  0.00    +0.000 Cl
ENDBRANCH  10  11
BRANCH  10  18
ATOM     18  O   UNL     1       6.230   3.191  15.401  0.00  0.00    +0.000 OA
ATOM     19  H   UNL     1       7.117   3.589  15.457  0.00  0.00    +0.000 HD
ENDBRANCH  10  18
ENDBRANCH   9  10
ENDBRANCH   5   9
BRANCH   8  20
ATOM     20  C   UNL     1       2.341   5.747  20.080  0.00  0.00    +0.000 C 
BRANCH  20  21
ATOM     21  C   UNL     1       1.664   6.965  20.798  0.00  0.00    +0.000 C 
BRANCH  21  22
ATOM     22  C   UNL     1       1.661   8.216  19.927  0.00  0.00    +0.000 A 
ATOM     23  C   UNL     1       2.186   8.154  18.614  0.00  0.00    +0.000 A 
ATOM     24  C   UNL     1       2.113   9.248  17.747  0.00  0.00    +0.000 A 
ATOM     25  C   UNL     1       1.525  10.431  18.174  0.00  0.00    +0.000 A 
ATOM     26  C   UNL     1       1.026  10.526  19.472  0.00  0.00    +0.000 A 
ATOM     27  C   UNL     1       1.093   9.431  20.344  0.00  0.00    +0.000 A 
ATOM     28 CL   UNL     1       0.448   9.660  21.931  0.00  0.00    +0.000 Cl
ENDBRANCH  21  22
BRANCH  21  29
ATOM     29  O   UNL     1       0.296   6.726  21.146  0.00  0.00    +0.000 OA
ATOM     30  H   UNL     1      -0.227   7.499  20.888  0.00  0.00    +0.000 HD
ENDBRANCH  21  29
ENDBRANCH  20  21
ENDBRANCH   8  20
TORSDOF 8
ENDMDL
MODEL 3
REMARK VINA RESULT:      -7.2      1.273      6.191
REMARK  Name = 
REMARK  10 active torsions:
REMARK  status: ('A' for Active; 'I' for Inactive)
REMARK    1  A    between atoms: C_1  and  C_2
REMARK    2  A    between atoms: C_2  and  C_3
REMARK    3  A    between atoms: N_5  and  C_6
REMARK    4  A    between atoms: C_6  and  C_7
REMARK    5  A    between atoms: C_7  and  O_8
REMARK    6  A    between atoms: C_7  and  C_9
REMARK    7  A    between atoms: N_18  and  C_19
REMARK    8  A    between atoms: C_19  and  C_20
REMARK    9  A    between atoms: C_20  and  O_21
REMARK   10  A    between atoms: C_20  and  C_22
REMARK                            x       y       z     vdW  Elec       q    Type
REMARK                         _______ _______ _______ _____ _____    ______ ____
ROOT
ATOM      1  C   UNL     1       2.521   2.519  20.969  0.00  0.00    +0.000 C 
ATOM      2  C   UNL     1       2.299   3.213  19.594  0.00  0.00    +0.000 C 
ATOM      3  C   UNL     1       1.565   2.168  18.719  0.00  0.00    +0.000 C 
ATOM      4  C   UNL     1       1.334   4.423  19.811  0.00  0.00    +0.000 C 
ATOM      5  N   UNL     1       1.889   5.564  20.570  0.00  0.00    +0.000 NA
ATOM      6  C   UNL     1       3.239   5.922  20.081  0.00  0.00    +0.000 C 
ATOM      7  C   UNL     1       4.174   4.704  19.882  0.00  0.00    +0.000 C 
ATOM      8  N   UNL     1       3.609   3.652  18.997  0.00  0.00    +0.000 NA
ENDROOT
BRANCH   5   9
ATOM      9  C   UNL     1       0.987   6.744  20.522  0.00  0.00    +0.000 C 
BRANCH   9  10
ATOM     10  C   UNL     1       1.675   8.129  20.748  0.00  0.00    +0.000 C 
BRANCH  10  11
ATOM     11  C   UNL     1       0.935   9.304  20.140  0.00  0.00    +0.000 A 
ATOM     12  C   UNL     1       0.084  10.047  20.984  0.00  0.00    +0.000 A 
ATOM     13  C   UNL     1      -0.715  11.077  20.478  0.00  0.00    +0.000 A 
ATOM     14  C   UNL     1      -0.669  11.390  19.124  0.00  0.00    +0.000 A 
ATOM     15  C   UNL     1       0.179  10.678  18.273  0.00  0.00    +0.000 A 
ATOM     16  C   UNL     1       0.973   9.642  18.776  0.00  0.00    +0.000 A 
ATOM     17 CL   UNL     1       1.948   8.783  17.629  0.00  0.00    +0.000 Cl
ENDBRANCH  10  11
BRANCH  10  18
ATOM     18  O   UNL     1       1.883   8.456  22.122  0.00  0.00    +0.000 OA
ATOM     19  H   UNL     1       1.005   8.628  22.507  0.00  0.00    +0.000 HD
ENDBRANCH  10  18
ENDBRANCH   9  10
ENDBRANCH   5   9
BRANCH   8  20
ATOM     20  C   UNL     1       3.471   4.140  17.587  0.00  0.00    +0.000 C 
BRANCH  20  21
ATOM     21  C   UNL     1       4.753   4.209  16.687  0.00  0.00    +0.000 C 
BRANCH  21  22
ATOM     22  C   UNL     1       5.785   5.190  17.234  0.00  0.00    +0.000 A 
ATOM     23  C   UNL     1       6.779   4.731  18.131  0.00  0.00    +0.000 A 
ATOM     24  C   UNL     1       7.803   5.570  18.578  0.00  0.00    +0.000 A 
ATOM     25  C   UNL     1       7.852   6.890  18.149  0.00  0.00    +0.000 A 
ATOM     26  C   UNL     1       6.869   7.374  17.288  0.00  0.00    +0.000 A 
ATOM     27  C   UNL     1       5.842   6.535  16.833  0.00  0.00    +0.000 A 
ATOM     28 CL   UNL     1       4.674   7.239  15.772  0.00  0.00    +0.000 Cl
ENDBRANCH  21  22
BRANCH  21  29
ATOM     29  O   UNL     1       5.429   2.953  16.570  0.00  0.00    +0.000 OA
ATOM     30  H   UNL     1       5.346   2.479  17.410  0.00  0.00    +0.000 HD
ENDBRANCH  21  29
ENDBRANCH  20  21
ENDBRANCH   8  20
TORSDOF 8
ENDMDL
MODEL 4
REMARK VINA RESULT:      -7.1      1.049      1.518
REMARK  Name = 
REMARK  10 active torsions:
REMARK  status: ('A' for Active; 'I' for Inactive)
REMARK    1  A    between atoms: C_1  and  C_2
REMARK    2  A    between atoms: C_2  and  C_3
REMARK    3  A    between atoms: N_5  and  C_6
REMARK    4  A    between atoms: C_6  and  C_7
REMARK    5  A    between atoms: C_7  and  O_8
REMARK    6  A    between atoms: C_7  and  C_9
REMARK    7  A    between atoms: N_18  and  C_19
REMARK    8  A    between atoms: C_19  and  C_20
REMARK    9  A    between atoms: C_20  and  O_21
REMARK   10  A    between atoms: C_20  and  C_22
REMARK                            x       y       z     vdW  Elec       q    Type
REMARK                         _______ _______ _______ _____ _____    ______ ____
ROOT
ATOM      1  C   UNL     1       1.100   1.663  19.630  0.00  0.00    +0.000 C 
ATOM      2  C   UNL     1       1.890   2.924  20.085  0.00  0.00    +0.000 C 
ATOM      3  C   UNL     1       1.887   2.875  21.632  0.00  0.00    +0.000 C 
ATOM      4  C   UNL     1       3.368   2.771  19.601  0.00  0.00    +0.000 C 
ATOM      5  N   UNL     1       3.584   2.866  18.141  0.00  0.00    +0.000 NA
ATOM      6  C   UNL     1       2.856   4.021  17.571  0.00  0.00    +0.000 C 
ATOM      7  C   UNL     1       1.392   4.143  18.063  0.00  0.00    +0.000 C 
ATOM      8  N   UNL     1       1.259   4.178  19.543  0.00  0.00    +0.000 NA
ENDROOT
BRANCH   5   9
ATOM      9  C   UNL     1       5.029   2.942  17.805  0.00  0.00    +0.000 C 
BRANCH   9  10
ATOM     10  C   UNL     1       5.411   3.978  16.698  0.00  0.00    +0.000 C 
BRANCH  10  11
ATOM     11  C   UNL     1       6.288   5.116  17.180  0.00  0.00    +0.000 A 
ATOM     12  C   UNL     1       7.225   4.835  18.194  0.00  0.00    +0.000 A 
ATOM     13  C   UNL     1       7.996   5.850  18.767  0.00  0.00    +0.000 A 
ATOM     14  C   UNL     1       7.852   7.162  18.330  0.00  0.00    +0.000 A 
ATOM     15  C   UNL     1       6.941   7.462  17.316  0.00  0.00    +0.000 A 
ATOM     16  C   UNL     1       6.163   6.448  16.746  0.00  0.00    +0.000 A 
ATOM     17 CL   UNL     1       5.022   6.931  15.534  0.00  0.00    +0.000 Cl
ENDBRANCH  10  11
BRANCH  10  18
ATOM     18  O   UNL     1       6.081   3.406  15.574  0.00  0.00    +0.000 OA
ATOM     19  H   UNL     1       7.012   3.288  15.831  0.00  0.00    +0.000 HD
ENDBRANCH  10  18
ENDBRANCH   9  10
ENDBRANCH   5   9
BRANCH   8  20
ATOM     20  C   UNL     1       1.858   5.426  20.117  0.00  0.00    +0.000 C 
BRANCH  20  21
ATOM     21  C   UNL     1       2.767   6.313  19.197  0.00  0.00    +0.000 C 
BRANCH  21  22
ATOM     22  C   UNL     1       2.228   7.733  19.057  0.00  0.00    +0.000 A 
ATOM     23  C   UNL     1       2.404   8.431  17.838  0.00  0.00    +0.000 A 
ATOM     24  C   UNL     1       1.841   9.692  17.631  0.00  0.00    +0.000 A 
ATOM     25  C   UNL     1       1.098  10.292  18.640  0.00  0.00    +0.000 A 
ATOM     26  C   UNL     1       0.934   9.637  19.860  0.00  0.00    +0.000 A 
ATOM     27  C   UNL     1       1.494   8.370  20.071  0.00  0.00    +0.000 A 
ATOM     28 CL   UNL     1       1.232   7.651  21.621  0.00  0.00    +0.000 Cl
ENDBRANCH  21  22
BRANCH  21  29
ATOM     29  O   UNL     1       4.105   6.448  19.686  0.00  0.00    +0.000 OA
ATOM     30  H   UNL     1       4.411   5.581  19.991  0.00  0.00    +0.000 HD
ENDBRANCH  21  29
ENDBRANCH  20  21
ENDBRANCH   8  20
TORSDOF 8
ENDMDL
MODEL 5
REMARK VINA RESULT:      -6.9      1.526      6.093
REMARK  Name = 
REMARK  10 active torsions:
REMARK  status: ('A' for Active; 'I' for Inactive)
REMARK    1  A    between atoms: C_1  and  C_2
REMARK    2  A    between atoms: C_2  and  C_3
REMARK    3  A    between atoms: N_5  and  C_6
REMARK    4  A    between atoms: C_6  and  C_7
REMARK    5  A    between atoms: C_7  and  O_8
REMARK    6  A    between atoms: C_7  and  C_9
REMARK    7  A    between atoms: N_18  and  C_19
REMARK    8  A    between atoms: C_19  and  C_20
REMARK    9  A    between atoms: C_20  and  O_21
REMARK   10  A    between atoms: C_20  and  C_22
REMARK                            x       y       z     vdW  Elec       q    Type
REMARK                         _______ _______ _______ _____ _____    ______ ____
ROOT
ATOM      1  C   UNL     1       0.908   3.509  18.397  0.00  0.00    +0.000 C 
ATOM      2  C   UNL     1       2.402   3.776  18.050  0.00  0.00    +0.000 C 
ATOM      3  C   UNL     1       2.674   2.972  16.755  0.00  0.00    +0.000 C 
ATOM      4  C   UNL     1       2.559   5.294  17.717  0.00  0.00    +0.000 C 
ATOM      5  N   UNL     1       2.406   6.225  18.856  0.00  0.00    +0.000 NA
ATOM      6  C   UNL     1       3.177   5.760  20.030  0.00  0.00    +0.000 C 
ATOM      7  C   UNL     1       2.996   4.254  20.340  0.00  0.00    +0.000 C 
ATOM      8  N   UNL     1       3.298   3.364  19.187  0.00  0.00    +0.000 NA
ENDROOT
BRANCH   5   9
ATOM      9  C   UNL     1       2.799   7.610  18.488  0.00  0.00    +0.000 C 
BRANCH   9  10
ATOM     10  C   UNL     1       1.618   8.591  18.194  0.00  0.00    +0.000 C 
BRANCH  10  11
ATOM     11  C   UNL     1       0.996   9.212  19.429  0.00  0.00    +0.000 A 
ATOM     12  C   UNL     1       1.550   8.873  20.680  0.00  0.00    +0.000 A 
ATOM     13  C   UNL     1       0.969   9.316  21.872  0.00  0.00    +0.000 A 
ATOM     14  C   UNL     1      -0.169  10.116  21.834  0.00  0.00    +0.000 A 
ATOM     15  C   UNL     1      -0.725  10.477  20.606  0.00  0.00    +0.000 A 
ATOM     16  C   UNL     1      -0.150  10.028  19.413  0.00  0.00    +0.000 A 
ATOM     17 CL   UNL     1      -0.947  10.485  17.943  0.00  0.00    +0.000 Cl
ENDBRANCH  10  11
BRANCH  10  18
ATOM     18  O   UNL     1       1.965   9.677  17.334  0.00  0.00    +0.000 OA
ATOM     19  H   UNL     1       2.415   9.292  16.561  0.00  0.00    +0.000 HD
ENDBRANCH  10  18
ENDBRANCH   9  10
ENDBRANCH   5   9
BRANCH   8  20
ATOM     20  C   UNL     1       4.752   3.411  18.827  0.00  0.00    +0.000 C 
BRANCH  20  21
ATOM     21  C   UNL     1       5.177   4.161  17.517  0.00  0.00    +0.000 C 
BRANCH  21  22
ATOM     22  C   UNL     1       6.114   5.330  17.804  0.00  0.00    +0.000 A 
ATOM     23  C   UNL     1       7.032   5.242  18.879  0.00  0.00    +0.000 A 
ATOM     24  C   UNL     1       7.975   6.245  19.116  0.00  0.00    +0.000 A 
ATOM     25  C   UNL     1       8.018   7.363  18.293  0.00  0.00    +0.000 A 
ATOM     26  C   UNL     1       7.107   7.485  17.245  0.00  0.00    +0.000 A 
ATOM     27  C   UNL     1       6.161   6.481  17.000  0.00  0.00    +0.000 A 
ATOM     28 CL   UNL     1       5.077   6.736  15.679  0.00  0.00    +0.000 Cl
ENDBRANCH  21  22
BRANCH  21  29
ATOM     29  O   UNL     1       5.869   3.323  16.586  0.00  0.00    +0.000 OA
ATOM     30  H   UNL     1       5.363   3.296  15.761  0.00  0.00    +0.000 HD
ENDBRANCH  21  29
ENDBRANCH  20  21
ENDBRANCH   8  20
TORSDOF 8
ENDMDL
MODEL 6
REMARK VINA RESULT:      -6.9      0.971      5.922
REMARK  Name = 
REMARK  10 active torsions:
REMARK  status: ('A' for Active; 'I' for Inactive)
REMARK    1  A    between atoms: C_1  and  C_2
REMARK    2  A    between atoms: C_2  and  C_3
REMARK    3  A    between atoms: N_5  and  C_6
REMARK    4  A    between atoms: C_6  and  C_7
REMARK    5  A    between atoms: C_7  and  O_8
REMARK    6  A    between atoms: C_7  and  C_9
REMARK    7  A    between atoms: N_18  and  C_19
REMARK    8  A    between atoms: C_19  and  C_20
REMARK    9  A    between atoms: C_20  and  O_21
REMARK   10  A    between atoms: C_20  and  C_22
REMARK                            x       y       z     vdW  Elec       q    Type
REMARK                         _______ _______ _______ _____ _____    ______ ____
ROOT
ATOM      1  C   UNL     1       0.874   2.344  18.570  0.00  0.00    +0.000 C 
ATOM      2  C   UNL     1       2.136   3.256  18.559  0.00  0.00    +0.000 C 
ATOM      3  C   UNL     1       2.495   3.442  17.065  0.00  0.00    +0.000 C 
ATOM      4  C   UNL     1       1.731   4.651  19.135  0.00  0.00    +0.000 C 
ATOM      5  N   UNL     1       1.420   4.688  20.580  0.00  0.00    +0.000 NA
ATOM      6  C   UNL     1       2.444   3.962  21.363  0.00  0.00    +0.000 C 
ATOM      7  C   UNL     1       2.819   2.580  20.772  0.00  0.00    +0.000 C 
ATOM      8  N   UNL     1       3.254   2.634  19.352  0.00  0.00    +0.000 NA
ENDROOT
BRANCH   5   9
ATOM      9  C   UNL     1       1.277   6.082  21.074  0.00  0.00    +0.000 C 
BRANCH   9  10
ATOM     10  C   UNL     1       1.689   7.201  20.064  0.00  0.00    +0.000 C 
BRANCH  10  11
ATOM     11  C   UNL     1       1.211   8.590  20.436  0.00  0.00    +0.000 A 
ATOM     12  C   UNL     1       0.845   8.817  21.778  0.00  0.00    +0.000 A 
ATOM     13  C   UNL     1       0.293  10.037  22.180  0.00  0.00    +0.000 A 
ATOM     14  C   UNL     1       0.108  11.055  21.251  0.00  0.00    +0.000 A 
ATOM     15  C   UNL     1       0.477  10.858  19.919  0.00  0.00    +0.000 A 
ATOM     16  C   UNL     1       1.023   9.635  19.513  0.00  0.00    +0.000 A 
ATOM     17 CL   UNL     1       1.397   9.470  17.829  0.00  0.00    +0.000 Cl
ENDBRANCH  10  11
BRANCH  10  18
ATOM     18  O   UNL     1       3.098   7.307  19.858  0.00  0.00    +0.000 OA
ATOM     19  H   UNL     1       3.519   7.209  20.730  0.00  0.00    +0.000 HD
ENDBRANCH  10  18
ENDBRANCH   9  10
ENDBRANCH   5   9
BRANCH   8  20
ATOM     20  C   UNL     1       4.550   3.371  19.204  0.00  0.00    +0.000 C 
BRANCH  20  21
ATOM     21  C   UNL     1       4.863   4.074  17.837  0.00  0.00    +0.000 C 
BRANCH  21  22
ATOM     22  C   UNL     1       5.896   5.186  17.988  0.00  0.00    +0.000 A 
ATOM     23  C   UNL     1       6.785   5.170  19.089  0.00  0.00    +0.000 A 
ATOM     24  C   UNL     1       7.810   6.111  19.213  0.00  0.00    +0.000 A 
ATOM     25  C   UNL     1       7.965   7.096  18.246  0.00  0.00    +0.000 A 
ATOM     26  C   UNL     1       7.084   7.150  17.167  0.00  0.00    +0.000 A 
ATOM     27  C   UNL     1       6.056   6.207  17.036  0.00  0.00    +0.000 A 
ATOM     28 CL   UNL     1       5.021   6.369  15.663  0.00  0.00    +0.000 Cl
ENDBRANCH  21  22
BRANCH  21  29
ATOM     29  O   UNL     1       5.388   3.181  16.850  0.00  0.00    +0.000 OA
ATOM     30  H   UNL     1       5.942   3.689  16.239  0.00  0.00    +0.000 HD
ENDBRANCH  21  29
ENDBRANCH  20  21
ENDBRANCH   8  20
TORSDOF 8
ENDMDL
MODEL 7
REMARK VINA RESULT:      -6.8      1.050      1.289
REMARK  Name = 
REMARK  10 active torsions:
REMARK  status: ('A' for Active; 'I' for Inactive)
REMARK    1  A    between atoms: C_1  and  C_2
REMARK    2  A    between atoms: C_2  and  C_3
REMARK    3  A    between atoms: N_5  and  C_6
REMARK    4  A    between atoms: C_6  and  C_7
REMARK    5  A    between atoms: C_7  and  O_8
REMARK    6  A    between atoms: C_7  and  C_9
REMARK    7  A    between atoms: N_18  and  C_19
REMARK    8  A    between atoms: C_19  and  C_20
REMARK    9  A    between atoms: C_20  and  O_21
REMARK   10  A    between atoms: C_20  and  C_22
REMARK                            x       y       z     vdW  Elec       q    Type
REMARK                         _______ _______ _______ _____ _____    ______ ____
ROOT
ATOM      1  C   UNL     1       1.217   2.419  20.131  0.00  0.00    +0.000 C 
ATOM      2  C   UNL     1       2.201   3.626  20.145  0.00  0.00    +0.000 C 
ATOM      3  C   UNL     1       2.479   3.913  21.640  0.00  0.00    +0.000 C 
ATOM      4  C   UNL     1       3.541   3.167  19.485  0.00  0.00    +0.000 C 
ATOM      5  N   UNL     1       3.491   2.913  18.029  0.00  0.00    +0.000 NA
ATOM      6  C   UNL     1       2.790   4.008  17.322  0.00  0.00    +0.000 C 
ATOM      7  C   UNL     1       1.462   4.436  17.995  0.00  0.00    +0.000 C 
ATOM      8  N   UNL     1       1.609   4.809  19.427  0.00  0.00    +0.000 NA
ENDROOT
BRANCH   5   9
ATOM      9  C   UNL     1       4.849   2.711  17.461  0.00  0.00    +0.000 C 
BRANCH   9  10
ATOM     10  C   UNL     1       5.312   3.783  16.421  0.00  0.00    +0.000 C 
BRANCH  10  11
ATOM     11  C   UNL     1       6.194   4.874  16.993  0.00  0.00    +0.000 A 
ATOM     12  C   UNL     1       6.988   4.552  18.112  0.00  0.00    +0.000 A 
ATOM     13  C   UNL     1       7.747   5.528  18.764  0.00  0.00    +0.000 A 
ATOM     14  C   UNL     1       7.736   6.839  18.302  0.00  0.00    +0.000 A 
ATOM     15  C   UNL     1       6.969   7.178  17.186  0.00  0.00    +0.000 A 
ATOM     16  C   UNL     1       6.203   6.204  16.537  0.00  0.00    +0.000 A 
ATOM     17 CL   UNL     1       5.243   6.735  15.195  0.00  0.00    +0.000 Cl
ENDBRANCH  10  11
BRANCH  10  18
ATOM     18  O   UNL     1       6.019   3.240  15.305  0.00  0.00    +0.000 OA
ATOM     19  H   UNL     1       6.819   3.784  15.187  0.00  0.00    +0.000 HD
ENDBRANCH  10  18
ENDBRANCH   9  10
ENDBRANCH   5   9
BRANCH   8  20
ATOM     20  C   UNL     1       2.426   6.054  19.587  0.00  0.00    +0.000 C 
BRANCH  20  21
ATOM     21  C   UNL     1       1.913   7.169  20.563  0.00  0.00    +0.000 C 
BRANCH  21  22
ATOM     22  C   UNL     1       1.470   8.424  19.818  0.00  0.00    +0.000 A 
ATOM     23  C   UNL     1       0.505   9.279  20.403  0.00  0.00    +0.000 A 
ATOM     24  C   UNL     1       0.144  10.488  19.803  0.00  0.00    +0.000 A 
ATOM     25  C   UNL     1       0.729  10.867  18.602  0.00  0.00    +0.000 A 
ATOM     26  C   UNL     1       1.662  10.029  17.993  0.00  0.00    +0.000 A 
ATOM     27  C   UNL     1       2.030   8.816  18.592  0.00  0.00    +0.000 A 
ATOM     28 CL   UNL     1       3.191   7.853  17.749  0.00  0.00    +0.000 Cl
ENDBRANCH  21  22
BRANCH  21  29
ATOM     29  O   UNL     1       0.788   6.759  21.346  0.00  0.00    +0.000 OA
ATOM     30  H   UNL     1       0.652   7.407  22.053  0.00  0.00    +0.000 HD
ENDBRANCH  21  29
ENDBRANCH  20  21
ENDBRANCH   8  20
TORSDOF 8
ENDMDL
MODEL 8
REMARK VINA RESULT:      -6.7      1.692      6.490
REMARK  Name = 
REMARK  10 active torsions:
REMARK  status: ('A' for Active; 'I' for Inactive)
REMARK    1  A    between atoms: C_1  and  C_2
REMARK    2  A    between atoms: C_2  and  C_3
REMARK    3  A    between atoms: N_5  and  C_6
REMARK    4  A    between atoms: C_6  and  C_7
REMARK    5  A    between atoms: C_7  and  O_8
REMARK    6  A    between atoms: C_7  and  C_9
REMARK    7  A    between atoms: N_18  and  C_19
REMARK    8  A    between atoms: C_19  and  C_20
REMARK    9  A    between atoms: C_20  and  O_21
REMARK   10  A    between atoms: C_20  and  C_22
REMARK                            x       y       z     vdW  Elec       q    Type
REMARK                         _______ _______ _______ _____ _____    ______ ____
ROOT
ATOM      1  C   UNL     1       2.367   2.609  21.075  0.00  0.00    +0.000 C 
ATOM      2  C   UNL     1       2.143   3.292  19.693  0.00  0.00    +0.000 C 
ATOM      3  C   UNL     1       1.412   2.237  18.828  0.00  0.00    +0.000 C 
ATOM      4  C   UNL     1       1.175   4.501  19.901  0.00  0.00    +0.000 C 
ATOM      5  N   UNL     1       1.726   5.650  20.650  0.00  0.00    +0.000 NA
ATOM      6  C   UNL     1       3.075   6.007  20.158  0.00  0.00    +0.000 C 
ATOM      7  C   UNL     1       4.014   4.790  19.970  0.00  0.00    +0.000 C 
ATOM      8  N   UNL     1       3.452   3.729  19.093  0.00  0.00    +0.000 NA
ENDROOT
BRANCH   5   9
ATOM      9  C   UNL     1       0.821   6.826  20.592  0.00  0.00    +0.000 C 
BRANCH   9  10
ATOM     10  C   UNL     1       1.513   8.219  20.757  0.00  0.00    +0.000 C 
BRANCH  10  11
ATOM     11  C   UNL     1       0.655   9.398  20.344  0.00  0.00    +0.000 A 
ATOM     12  C   UNL     1       0.887   9.960  19.073  0.00  0.00    +0.000 A 
ATOM     13  C   UNL     1       0.215  11.114  18.660  0.00  0.00    +0.000 A 
ATOM     14  C   UNL     1      -0.709  11.720  19.505  0.00  0.00    +0.000 A 
ATOM     15  C   UNL     1      -0.966  11.171  20.763  0.00  0.00    +0.000 A 
ATOM     16  C   UNL     1      -0.288  10.021  21.180  0.00  0.00    +0.000 A 
ATOM     17 CL   UNL     1      -0.636   9.450  22.780  0.00  0.00    +0.000 Cl
ENDBRANCH  10  11
BRANCH  10  18
ATOM     18  O   UNL     1       1.955   8.493  22.087  0.00  0.00    +0.000 OA
ATOM     19  H   UNL     1       1.454   9.269  22.396  0.00  0.00    +0.000 HD
ENDBRANCH  10  18
ENDBRANCH   9  10
ENDBRANCH   5   9
BRANCH   8  20
ATOM     20  C   UNL     1       3.313   4.205  17.679  0.00  0.00    +0.000 C 
BRANCH  20  21
ATOM     21  C   UNL     1       4.582   4.205  16.758  0.00  0.00    +0.000 C 
BRANCH  21  22
ATOM     22  C   UNL     1       5.660   5.157  17.268  0.00  0.00    +0.000 A 
ATOM     23  C   UNL     1       6.721   4.652  18.057  0.00  0.00    +0.000 A 
ATOM     24  C   UNL     1       7.781   5.467  18.461  0.00  0.00    +0.000 A 
ATOM     25  C   UNL     1       7.803   6.806  18.095  0.00  0.00    +0.000 A 
ATOM     26  C   UNL     1       6.756   7.333  17.341  0.00  0.00    +0.000 A 
ATOM     27  C   UNL     1       5.691   6.520  16.930  0.00  0.00    +0.000 A 
ATOM     28 CL   UNL     1       4.445   7.277  16.003  0.00  0.00    +0.000 Cl
ENDBRANCH  21  22
BRANCH  21  29
ATOM     29  O   UNL     1       5.207   2.922  16.658  0.00  0.00    +0.000 OA
ATOM     30  H   UNL     1       4.671   2.363  16.076  0.00  0.00    +0.000 HD
ENDBRANCH  21  29
ENDBRANCH  20  21
ENDBRANCH   8  20
TORSDOF 8
ENDMDL
MODEL 9
REMARK VINA RESULT:      -6.6      4.141      8.803
REMARK  Name = 
REMARK  10 active torsions:
REMARK  status: ('A' for Active; 'I' for Inactive)
REMARK    1  A    between atoms: C_1  and  C_2
REMARK    2  A    between atoms: C_2  and  C_3
REMARK    3  A    between atoms: N_5  and  C_6
REMARK    4  A    between atoms: C_6  and  C_7
REMARK    5  A    between atoms: C_7  and  O_8
REMARK    6  A    between atoms: C_7  and  C_9
REMARK    7  A    between atoms: N_18  and  C_19
REMARK    8  A    between atoms: C_19  and  C_20
REMARK    9  A    between atoms: C_20  and  O_21
REMARK   10  A    between atoms: C_20  and  C_22
REMARK                            x       y       z     vdW  Elec       q    Type
REMARK                         _______ _______ _______ _____ _____    ______ ____
ROOT
ATOM      1  C   UNL     1       0.987  10.873  21.038  0.00  0.00    +0.000 C 
ATOM      2  C   UNL     1       0.625   9.430  20.579  0.00  0.00    +0.000 C 
ATOM      3  C   UNL     1       0.273   8.662  21.875  0.00  0.00    +0.000 C 
ATOM      4  C   UNL     1      -0.665   9.510  19.701  0.00  0.00    +0.000 C 
ATOM      5  N   UNL     1      -0.509  10.152  18.378  0.00  0.00    +0.000 NA
ATOM      6  C   UNL     1       0.691   9.641  17.679  0.00  0.00    +0.000 C 
ATOM      7  C   UNL     1       1.956   9.581  18.571  0.00  0.00    +0.000 C 
ATOM      8  N   UNL     1       1.767   8.804  19.825  0.00  0.00    +0.000 NA
ENDROOT
BRANCH   5   9
ATOM      9  C   UNL     1      -1.719   9.972  17.535  0.00  0.00    +0.000 C 
BRANCH   9  10
ATOM     10  C   UNL     1      -2.426  11.290  17.080  0.00  0.00    +0.000 C 
BRANCH  10  11
ATOM     11  C   UNL     1      -3.724  11.589  17.805  0.00  0.00    +0.000 A 
ATOM     12  C   UNL     1      -4.926  11.416  17.090  0.00  0.00    +0.000 A 
ATOM     13  C   UNL     1      -6.156  11.771  17.650  0.00  0.00    +0.000 A 
ATOM     14  C   UNL     1      -6.208  12.294  18.937  0.00  0.00    +0.000 A 
ATOM     15  C   UNL     1      -5.031  12.460  19.670  0.00  0.00    +0.000 A 
ATOM     16  C   UNL     1      -3.798  12.112  19.108  0.00  0.00    +0.000 A 
ATOM     17 CL   UNL     1      -2.391  12.407  20.076  0.00  0.00    +0.000 Cl
ENDBRANCH  10  11
BRANCH  10  18
ATOM     18  O   UNL     1      -1.617  12.459  17.213  0.00  0.00    +0.000 OA
ATOM     19  H   UNL     1      -1.836  12.858  18.074  0.00  0.00    +0.000 HD
ENDBRANCH  10  18
ENDBRANCH   9  10
ENDBRANCH   5   9
BRANCH   8  20
ATOM     20  C   UNL     1       1.547   7.350  19.539  0.00  0.00    +0.000 C 
BRANCH  20  21
ATOM     21  C   UNL     1       2.750   6.359  19.716  0.00  0.00    +0.000 C 
BRANCH  21  22
ATOM     22  C   UNL     1       2.285   4.945  20.047  0.00  0.00    +0.000 A 
ATOM     23  C   UNL     1       2.451   4.445  21.361  0.00  0.00    +0.000 A 
ATOM     24  C   UNL     1       1.950   3.195  21.734  0.00  0.00    +0.000 A 
ATOM     25  C   UNL     1       1.282   2.411  20.803  0.00  0.00    +0.000 A 
ATOM     26  C   UNL     1       1.130   2.870  19.495  0.00  0.00    +0.000 A 
ATOM     27  C   UNL     1       1.627   4.124  19.116  0.00  0.00    +0.000 A 
ATOM     28 CL   UNL     1       1.387   4.592  17.470  0.00  0.00    +0.000 Cl
ENDBRANCH  21  22
BRANCH  21  29
ATOM     29  O   UNL     1       3.561   6.241  18.542  0.00  0.00    +0.000 OA
ATOM     30  H   UNL     1       4.228   6.942  18.556  0.00  0.00    +0.000 HD
ENDBRANCH  21  29
ENDBRANCH  20  21
ENDBRANCH   8  20
TORSDOF 8
ENDMDL
