MODEL 1
REMARK VINA RESULT:      -5.7      0.000      0.000
REMARK  Name = 
REMARK  3 active torsions:
REMARK  status: ('A' for Active; 'I' for Inactive)
REMARK    1  A    between atoms: C_1  and  C_2
REMARK    2  A    between atoms: C_2  and  N_3
REMARK    3  A    between atoms: C_6  and  C_7
REMARK                            x       y       z     vdW  Elec       q    Type
REMARK                         _______ _______ _______ _____ _____    ______ ____
ROOT
ATOM      1  N   UNL     1       2.768   3.576  19.392  0.00  0.00    +0.000 N 
ATOM      2  N   UNL     1       1.841   4.049  18.540  0.00  0.00    +0.000 NA
ATOM      3  C   UNL     1       2.529   5.001  17.910  0.00  0.00    +0.000 A 
ATOM      4  C   UNL     1       3.846   5.071  18.412  0.00  0.00    +0.000 A 
ATOM      5  N   UNL     1       3.993   4.143  19.373  0.00  0.00    +0.000 NA
ENDROOT
BRANCH   4   6
ATOM      6  C   UNL     1       4.982   5.968  18.008  0.00  0.00    +0.000 C 
ATOM      7  C   UNL     1       5.114   6.109  16.482  0.00  0.00    +0.000 C 
ATOM      8  C   UNL     1       5.752   4.881  15.832  0.00  0.00    +0.000 C 
ATOM      9  C   UNL     1       7.032   4.446  16.547  0.00  0.00    +0.000 C 
ATOM     10  N   UNL     1       6.845   4.286  17.987  0.00  0.00    +0.000 NA
ATOM     11  C   UNL     1       6.329   5.516  18.606  0.00  0.00    +0.000 C 
ATOM     12  H   UNL     1       7.731   4.032  18.424  0.00  0.00    +0.000 HD
ENDBRANCH   4   6
BRANCH   1  14
ATOM     13  C   UNL     1       1.437   2.911  21.344  0.00  0.00    +0.000 C 
ATOM     14  C   UNL     1       2.451   2.491  20.299  0.00  0.00    +0.000 C 
ENDBRANCH   1  14
TORSDOF 2
ENDMDL
MODEL 2
REMARK VINA RESULT:      -5.7      1.661      4.669
REMARK  Name = 
REMARK  3 active torsions:
REMARK  status: ('A' for Active; 'I' for Inactive)
REMARK    1  A    between atoms: C_1  and  C_2
REMARK    2  A    between atoms: C_2  and  N_3
REMARK    3  A    between atoms: C_6  and  C_7
REMARK                            x       y       z     vdW  Elec       q    Type
REMARK                         _______ _______ _______ _____ _____    ______ ____
ROOT
ATOM      1  N   UNL     1       5.895   5.016  17.752  0.00  0.00    +0.000 N 
ATOM      2  N   UNL     1       5.283   6.209  17.651  0.00  0.00    +0.000 NA
ATOM      3  C   UNL     1       4.017   5.836  17.457  0.00  0.00    +0.000 A 
ATOM      4  C   UNL     1       3.916   4.429  17.443  0.00  0.00    +0.000 A 
ATOM      5  N   UNL     1       5.139   3.904  17.635  0.00  0.00    +0.000 NA
ENDROOT
BRANCH   4   6
ATOM      6  C   UNL     1       2.706   3.555  17.273  0.00  0.00    +0.000 C 
ATOM      7  C   UNL     1       1.446   4.152  17.921  0.00  0.00    +0.000 C 
ATOM      8  C   UNL     1       1.439   3.996  19.443  0.00  0.00    +0.000 C 
ATOM      9  C   UNL     1       1.768   2.569  19.881  0.00  0.00    +0.000 C 
ATOM     10  N   UNL     1       2.995   2.062  19.270  0.00  0.00    +0.000 NA
ATOM     11  C   UNL     1       2.935   2.125  17.802  0.00  0.00    +0.000 C 
ATOM     12  H   UNL     1       3.153   1.098  19.562  0.00  0.00    +0.000 HD
ENDBRANCH   4   6
BRANCH   1  14
ATOM     13  C   UNL     1       7.817   6.069  18.858  0.00  0.00    +0.000 C 
ATOM     14  C   UNL     1       7.324   4.937  17.980  0.00  0.00    +0.000 C 
ENDBRANCH   1  14
TORSDOF 2
ENDMDL
MODEL 3
REMARK VINA RESULT:      -5.6      1.580      4.741
REMARK  Name = 
REMARK  3 active torsions:
REMARK  status: ('A' for Active; 'I' for Inactive)
REMARK    1  A    between atoms: C_1  and  C_2
REMARK    2  A    between atoms: C_2  and  N_3
REMARK    3  A    between atoms: C_6  and  C_7
REMARK                            x       y       z     vdW  Elec       q    Type
REMARK                         _______ _______ _______ _____ _____    ______ ____
ROOT
ATOM      1  N   UNL     1       6.507   4.980  18.295  0.00  0.00    +0.000 N 
ATOM      2  N   UNL     1       6.383   5.057  16.959  0.00  0.00    +0.000 NA
ATOM      3  C   UNL     1       5.345   4.248  16.746  0.00  0.00    +0.000 A 
ATOM      4  C   UNL     1       4.886   3.707  17.966  0.00  0.00    +0.000 A 
ATOM      5  N   UNL     1       5.646   4.187  18.966  0.00  0.00    +0.000 NA
ENDROOT
BRANCH   4   6
ATOM      6  C   UNL     1       3.745   2.766  18.231  0.00  0.00    +0.000 C 
ATOM      7  C   UNL     1       2.491   3.107  17.409  0.00  0.00    +0.000 C 
ATOM      8  C   UNL     1       1.731   4.309  17.970  0.00  0.00    +0.000 C 
ATOM      9  C   UNL     1       1.496   4.193  19.477  0.00  0.00    +0.000 C 
ATOM     10  N   UNL     1       2.723   3.910  20.217  0.00  0.00    +0.000 NA
ATOM     11  C   UNL     1       3.381   2.690  19.727  0.00  0.00    +0.000 C 
ATOM     12  H   UNL     1       2.511   3.806  21.210  0.00  0.00    +0.000 HD
ENDBRANCH   4   6
BRANCH   1  14
ATOM     13  C   UNL     1       7.882   7.013  18.257  0.00  0.00    +0.000 C 
ATOM     14  C   UNL     1       7.538   5.730  18.985  0.00  0.00    +0.000 C 
ENDBRANCH   1  14
TORSDOF 2
ENDMDL
MODEL 4
REMARK VINA RESULT:      -5.6      1.859      4.920
REMARK  Name = 
REMARK  3 active torsions:
REMARK  status: ('A' for Active; 'I' for Inactive)
REMARK    1  A    between atoms: C_1  and  C_2
REMARK    2  A    between atoms: C_2  and  N_3
REMARK    3  A    between atoms: C_6  and  C_7
REMARK                            x       y       z     vdW  Elec       q    Type
REMARK                         _______ _______ _______ _____ _____    ______ ____
ROOT
ATOM      1  N   UNL     1       6.132   4.565  17.984  0.00  0.00    +0.000 N 
ATOM      2  N   UNL     1       5.934   4.157  19.250  0.00  0.00    +0.000 NA
ATOM      3  C   UNL     1       4.677   3.716  19.189  0.00  0.00    +0.000 A 
ATOM      4  C   UNL     1       4.162   3.881  17.886  0.00  0.00    +0.000 A 
ATOM      5  N   UNL     1       5.112   4.432  17.111  0.00  0.00    +0.000 NA
ENDROOT
BRANCH   4   6
ATOM      6  C   UNL     1       2.811   3.522  17.335  0.00  0.00    +0.000 C 
ATOM      7  C   UNL     1       1.697   4.456  17.837  0.00  0.00    +0.000 C 
ATOM      8  C   UNL     1       1.277   4.146  19.275  0.00  0.00    +0.000 C 
ATOM      9  C   UNL     1       1.010   2.656  19.492  0.00  0.00    +0.000 C 
ATOM     10  N   UNL     1       2.114   1.814  19.036  0.00  0.00    +0.000 NA
ATOM     11  C   UNL     1       2.429   2.057  17.620  0.00  0.00    +0.000 C 
ATOM     12  H   UNL     1       1.875   0.831  19.167  0.00  0.00    +0.000 HD
ENDBRANCH   4   6
BRANCH   1  14
ATOM     13  C   UNL     1       7.464   6.621  17.834  0.00  0.00    +0.000 C 
ATOM     14  C   UNL     1       7.405   5.128  17.580  0.00  0.00    +0.000 C 
ENDBRANCH   1  14
TORSDOF 2
ENDMDL
MODEL 5
REMARK VINA RESULT:      -5.6      1.468      4.926
REMARK  Name = 
REMARK  3 active torsions:
REMARK  status: ('A' for Active; 'I' for Inactive)
REMARK    1  A    between atoms: C_1  and  C_2
REMARK    2  A    between atoms: C_2  and  N_3
REMARK    3  A    between atoms: C_6  and  C_7
REMARK                            x       y       z     vdW  Elec       q    Type
REMARK                         _______ _______ _______ _____ _____    ______ ____
ROOT
ATOM      1  N   UNL     1       5.695   4.442  17.254  0.00  0.00    +0.000 N 
ATOM      2  N   UNL     1       6.212   4.465  18.495  0.00  0.00    +0.000 NA
ATOM      3  C   UNL     1       5.124   4.704  19.227  0.00  0.00    +0.000 A 
ATOM      4  C   UNL     1       3.989   4.824  18.396  0.00  0.00    +0.000 A 
ATOM      5  N   UNL     1       4.369   4.652  17.117  0.00  0.00    +0.000 NA
ENDROOT
BRANCH   4   6
ATOM      6  C   UNL     1       2.554   5.076  18.760  0.00  0.00    +0.000 C 
ATOM      7  C   UNL     1       2.194   4.546  20.158  0.00  0.00    +0.000 C 
ATOM      8  C   UNL     1       2.013   3.027  20.180  0.00  0.00    +0.000 C 
ATOM      9  C   UNL     1       1.101   2.536  19.056  0.00  0.00    +0.000 C 
ATOM     10  N   UNL     1       1.508   3.033  17.744  0.00  0.00    +0.000 NA
ATOM     11  C   UNL     1       1.573   4.502  17.718  0.00  0.00    +0.000 C 
ATOM     12  H   UNL     1       0.852   2.710  17.033  0.00  0.00    +0.000 HD
ENDBRANCH   4   6
BRANCH   1  14
ATOM     13  C   UNL     1       5.759   4.231  14.810  0.00  0.00    +0.000 C 
ATOM     14  C   UNL     1       6.544   4.199  16.105  0.00  0.00    +0.000 C 
ENDBRANCH   1  14
TORSDOF 2
ENDMDL
MODEL 6
REMARK VINA RESULT:      -5.6      1.811      4.827
REMARK  Name = 
REMARK  3 active torsions:
REMARK  status: ('A' for Active; 'I' for Inactive)
REMARK    1  A    between atoms: C_1  and  C_2
REMARK    2  A    between atoms: C_2  and  N_3
REMARK    3  A    between atoms: C_6  and  C_7
REMARK                            x       y       z     vdW  Elec       q    Type
REMARK                         _______ _______ _______ _____ _____    ______ ____
ROOT
ATOM      1  N   UNL     1       5.796   5.231  18.807  0.00  0.00    +0.000 N 
ATOM      2  N   UNL     1       5.178   6.081  17.969  0.00  0.00    +0.000 NA
ATOM      3  C   UNL     1       4.024   5.447  17.758  0.00  0.00    +0.000 A 
ATOM      4  C   UNL     1       3.993   4.232  18.475  0.00  0.00    +0.000 A 
ATOM      5  N   UNL     1       5.147   4.099  19.153  0.00  0.00    +0.000 NA
ENDROOT
BRANCH   4   6
ATOM      6  C   UNL     1       2.909   3.195  18.562  0.00  0.00    +0.000 C 
ATOM      7  C   UNL     1       1.514   3.810  18.762  0.00  0.00    +0.000 C 
ATOM      8  C   UNL     1       1.282   4.283  20.198  0.00  0.00    +0.000 C 
ATOM      9  C   UNL     1       1.666   3.220  21.227  0.00  0.00    +0.000 C 
ATOM     10  N   UNL     1       3.014   2.697  21.020  0.00  0.00    +0.000 NA
ATOM     11  C   UNL     1       3.180   2.152  19.664  0.00  0.00    +0.000 C 
ATOM     12  H   UNL     1       3.211   1.968  21.705  0.00  0.00    +0.000 HD
ENDBRANCH   4   6
BRANCH   1  14
ATOM     13  C   UNL     1       7.821   6.579  18.481  0.00  0.00    +0.000 C 
ATOM     14  C   UNL     1       7.119   5.529  19.318  0.00  0.00    +0.000 C 
ENDBRANCH   1  14
TORSDOF 2
ENDMDL
MODEL 7
REMARK VINA RESULT:      -5.6      1.909      5.027
REMARK  Name = 
REMARK  3 active torsions:
REMARK  status: ('A' for Active; 'I' for Inactive)
REMARK    1  A    between atoms: C_1  and  C_2
REMARK    2  A    between atoms: C_2  and  N_3
REMARK    3  A    between atoms: C_6  and  C_7
REMARK                            x       y       z     vdW  Elec       q    Type
REMARK                         _______ _______ _______ _____ _____    ______ ____
ROOT
ATOM      1  N   UNL     1       6.778   4.695  15.919  0.00  0.00    +0.000 N 
ATOM      2  N   UNL     1       7.889   4.606  16.670  0.00  0.00    +0.000 NA
ATOM      3  C   UNL     1       7.372   4.582  17.899  0.00  0.00    +0.000 A 
ATOM      4  C   UNL     1       5.964   4.664  17.841  0.00  0.00    +0.000 A 
ATOM      5  N   UNL     1       5.587   4.737  16.552  0.00  0.00    +0.000 NA
ENDROOT
BRANCH   4   6
ATOM      6  C   UNL     1       4.955   4.658  18.954  0.00  0.00    +0.000 C 
ATOM      7  C   UNL     1       4.580   3.237  19.408  0.00  0.00    +0.000 C 
ATOM      8  C   UNL     1       3.624   2.545  18.435  0.00  0.00    +0.000 C 
ATOM      9  C   UNL     1       2.436   3.431  18.059  0.00  0.00    +0.000 C 
ATOM     10  N   UNL     1       2.847   4.755  17.596  0.00  0.00    +0.000 NA
ATOM     11  C   UNL     1       3.679   5.443  18.595  0.00  0.00    +0.000 C 
ATOM     12  H   UNL     1       2.022   5.320  17.393  0.00  0.00    +0.000 HD
ENDBRANCH   4   6
BRANCH   1  14
ATOM     13  C   UNL     1       5.770   3.930  13.815  0.00  0.00    +0.000 C 
ATOM     14  C   UNL     1       6.866   4.744  14.473  0.00  0.00    +0.000 C 
ENDBRANCH   1  14
TORSDOF 2
ENDMDL
MODEL 8
REMARK VINA RESULT:      -5.5      1.232      1.558
REMARK  Name = 
REMARK  3 active torsions:
REMARK  status: ('A' for Active; 'I' for Inactive)
REMARK    1  A    between atoms: C_1  and  C_2
REMARK    2  A    between atoms: C_2  and  N_3
REMARK    3  A    between atoms: C_6  and  C_7
REMARK                            x       y       z     vdW  Elec       q    Type
REMARK                         _______ _______ _______ _____ _____    ______ ____
ROOT
ATOM      1  N   UNL     1       2.895   4.221  18.784  0.00  0.00    +0.000 N 
ATOM      2  N   UNL     1       3.795   3.580  19.549  0.00  0.00    +0.000 NA
ATOM      3  C   UNL     1       4.928   4.171  19.169  0.00  0.00    +0.000 A 
ATOM      4  C   UNL     1       4.667   5.145  18.182  0.00  0.00    +0.000 A 
ATOM      5  N   UNL     1       3.346   5.171  17.938  0.00  0.00    +0.000 NA
ENDROOT
BRANCH   4   6
ATOM      6  C   UNL     1       5.614   6.068  17.470  0.00  0.00    +0.000 C 
ATOM      7  C   UNL     1       5.229   6.295  15.998  0.00  0.00    +0.000 C 
ATOM      8  C   UNL     1       5.597   5.107  15.107  0.00  0.00    +0.000 C 
ATOM      9  C   UNL     1       7.036   4.641  15.327  0.00  0.00    +0.000 C 
ATOM     10  N   UNL     1       7.340   4.401  16.736  0.00  0.00    +0.000 NA
ATOM     11  C   UNL     1       7.078   5.592  17.557  0.00  0.00    +0.000 C 
ATOM     12  H   UNL     1       8.318   4.128  16.836  0.00  0.00    +0.000 HD
ENDBRANCH   4   6
BRANCH   1  14
ATOM     13  C   UNL     1       1.041   3.709  20.309  0.00  0.00    +0.000 C 
ATOM     14  C   UNL     1       1.485   3.895  18.872  0.00  0.00    +0.000 C 
ENDBRANCH   1  14
TORSDOF 2
ENDMDL
MODEL 9
REMARK VINA RESULT:      -5.5      1.038      1.038
REMARK  Name = 
REMARK  3 active torsions:
REMARK  status: ('A' for Active; 'I' for Inactive)
REMARK    1  A    between atoms: C_1  and  C_2
REMARK    2  A    between atoms: C_2  and  N_3
REMARK    3  A    between atoms: C_6  and  C_7
REMARK                            x       y       z     vdW  Elec       q    Type
REMARK                         _______ _______ _______ _____ _____    ______ ____
ROOT
ATOM      1  N   UNL     1       2.623   3.678  18.378  0.00  0.00    +0.000 N 
ATOM      2  N   UNL     1       1.731   4.676  18.251  0.00  0.00    +0.000 NA
ATOM      3  C   UNL     1       2.535   5.719  18.044  0.00  0.00    +0.000 A 
ATOM      4  C   UNL     1       3.885   5.310  18.059  0.00  0.00    +0.000 A 
ATOM      5  N   UNL     1       3.934   3.984  18.276  0.00  0.00    +0.000 NA
ENDROOT
BRANCH   4   6
ATOM      6  C   UNL     1       5.136   6.118  17.858  0.00  0.00    +0.000 C 
ATOM      7  C   UNL     1       5.480   6.322  16.373  0.00  0.00    +0.000 C 
ATOM      8  C   UNL     1       6.092   5.073  15.737  0.00  0.00    +0.000 C 
ATOM      9  C   UNL     1       7.225   4.489  16.581  0.00  0.00    +0.000 C 
ATOM     10  N   UNL     1       6.837   4.276  17.973  0.00  0.00    +0.000 NA
ATOM     11  C   UNL     1       6.349   5.516  18.594  0.00  0.00    +0.000 C 
ATOM     12  H   UNL     1       7.633   3.921  18.503  0.00  0.00    +0.000 HD
ENDBRANCH   4   6
BRANCH   1  14
ATOM     13  C   UNL     1       0.689   2.250  18.870  0.00  0.00    +0.000 C 
ATOM     14  C   UNL     1       2.181   2.319  18.615  0.00  0.00    +0.000 C 
ENDBRANCH   1  14
TORSDOF 2
ENDMDL
