MODEL 1
REMARK VINA RESULT:      -7.6      0.000      0.000
REMARK  Name = 
REMARK  10 active torsions:
REMARK  status: ('A' for Active; 'I' for Inactive)
REMARK    1  A    between atoms: C_1  and  O_2
REMARK    2  A    between atoms: O_2  and  C_3
REMARK    3  A    between atoms: C_7  and  C_8
REMARK    4  A    between atoms: N_10  and  C_11
REMARK    5  A    between atoms: C_11  and  N_13
REMARK    6  A    between atoms: N_13  and  C_14
REMARK    7  A    between atoms: C_14  and  C_15
REMARK    8  A    between atoms: C_15  and  C_16
REMARK    9  A    between atoms: N_19  and  C_20
REMARK   10  A    between atoms: C_20  and  C_21
REMARK                            x       y       z     vdW  Elec       q    Type
REMARK                         _______ _______ _______ _____ _____    ______ ____
ROOT
ATOM      1  N   UNL     1       2.031   5.756  21.094  0.00  0.00    +0.000 N 
ATOM      2  H   UNL     1       1.592   5.646  22.008  0.00  0.00    +0.000 HD
ENDROOT
BRANCH   1   3
ATOM      3  C   UNL     1       2.604   4.628  20.587  0.00  0.00    +0.000 C 
ATOM      4  S   UNL     1       2.226   3.053  20.993  0.00  0.00    +0.000 S 
BRANCH   3   7
ATOM      5  C   UNL     1       3.366   4.925  18.247  0.00  0.00    +0.000 C 
ATOM      6  O   UNL     1       2.262   5.034  17.720  0.00  0.00    +0.000 OA
ATOM      7  N   UNL     1       3.560   4.837  19.618  0.00  0.00    +0.000 N 
ATOM      8  H   UNL     1       4.498   4.895  19.987  0.00  0.00    +0.000 HD
BRANCH   5  13
ATOM      9  C   UNL     1       6.670   5.904  16.653  0.00  0.00    +0.000 A 
ATOM     10  C   UNL     1       6.804   4.868  15.725  0.00  0.00    +0.000 A 
ATOM     11  C   UNL     1       5.853   3.851  15.653  0.00  0.00    +0.000 A 
ATOM     12  C   UNL     1       4.746   3.882  16.490  0.00  0.00    +0.000 A 
ATOM     13  C   UNL     1       4.582   4.941  17.396  0.00  0.00    +0.000 A 
ATOM     14  C   UNL     1       5.555   5.947  17.492  0.00  0.00    +0.000 A 
BRANCH   9  16
ATOM     15  C   UNL     1       7.596   7.862  17.605  0.00  0.00    +0.000 C 
ATOM     16  O   UNL     1       7.660   6.846  16.611  0.00  0.00    +0.000 OA
ENDBRANCH   9  16
ENDBRANCH   5  13
ENDBRANCH   3   7
ENDBRANCH   1   3
BRANCH   1  17
ATOM     17  C   UNL     1       1.900   7.058  20.477  0.00  0.00    +0.000 C 
BRANCH  17  18
ATOM     18  C   UNL     1       1.031   8.016  21.296  0.00  0.00    +0.000 C 
BRANCH  18  19
ATOM     19  C   UNL     1       0.651   9.240  20.473  0.00  0.00    +0.000 C 
ATOM     20  C   UNL     1       0.649  10.535  21.279  0.00  0.00    +0.000 C 
ATOM     21  C   UNL     1      -0.170  11.546  20.481  0.00  0.00    +0.000 C 
ATOM     22  N   UNL     1       0.345  11.783  19.116  0.00  0.00    +0.000 NA
ATOM     23  C   UNL     1       0.742  10.563  18.388  0.00  0.00    +0.000 C 
ATOM     24  C   UNL     1       1.496   9.527  19.230  0.00  0.00    +0.000 C 
BRANCH  22  25
ATOM     25  C   UNL     1      -0.674  12.499  18.313  0.00  0.00    +0.000 C 
BRANCH  25  26
ATOM     26  C   UNL     1      -1.971  11.736  18.159  0.00  0.00    +0.000 A 
ATOM     27  C   UNL     1      -2.045  10.632  17.298  0.00  0.00    +0.000 A 
ATOM     28  C   UNL     1      -3.246   9.955  17.117  0.00  0.00    +0.000 A 
ATOM     29  C   UNL     1      -4.386  10.360  17.806  0.00  0.00    +0.000 A 
ATOM     30  C   UNL     1      -4.326  11.458  18.666  0.00  0.00    +0.000 A 
ATOM     31  C   UNL     1      -3.124  12.144  18.842  0.00  0.00    +0.000 A 
ENDBRANCH  25  26
ENDBRANCH  22  25
ENDBRANCH  18  19
ENDBRANCH  17  18
ENDBRANCH   1  17
TORSDOF 9
ENDMDL
MODEL 2
REMARK VINA RESULT:      -7.4      2.366      3.145
REMARK  Name = 
REMARK  10 active torsions:
REMARK  status: ('A' for Active; 'I' for Inactive)
REMARK    1  A    between atoms: C_1  and  O_2
REMARK    2  A    between atoms: O_2  and  C_3
REMARK    3  A    between atoms: C_7  and  C_8
REMARK    4  A    between atoms: N_10  and  C_11
REMARK    5  A    between atoms: C_11  and  N_13
REMARK    6  A    between atoms: N_13  and  C_14
REMARK    7  A    between atoms: C_14  and  C_15
REMARK    8  A    between atoms: C_15  and  C_16
REMARK    9  A    between atoms: N_19  and  C_20
REMARK   10  A    between atoms: C_20  and  C_21
REMARK                            x       y       z     vdW  Elec       q    Type
REMARK                         _______ _______ _______ _____ _____    ______ ____
ROOT
ATOM      1  N   UNL     1       1.470   6.367  20.459  0.00  0.00    +0.000 N 
ATOM      2  H   UNL     1       0.483   6.110  20.488  0.00  0.00    +0.000 HD
ENDROOT
BRANCH   1   3
ATOM      3  C   UNL     1       2.340   5.319  20.408  0.00  0.00    +0.000 C 
ATOM      4  S   UNL     1       2.298   3.947  21.359  0.00  0.00    +0.000 S 
BRANCH   3   7
ATOM      5  C   UNL     1       3.213   5.059  18.103  0.00  0.00    +0.000 C 
ATOM      6  O   UNL     1       2.149   4.805  17.545  0.00  0.00    +0.000 OA
ATOM      7  N   UNL     1       3.316   5.410  19.442  0.00  0.00    +0.000 N 
ATOM      8  H   UNL     1       4.201   5.744  19.796  0.00  0.00    +0.000 HD
BRANCH   5  13
ATOM      9  C   UNL     1       6.632   5.944  16.709  0.00  0.00    +0.000 A 
ATOM     10  C   UNL     1       6.766   4.938  15.748  0.00  0.00    +0.000 A 
ATOM     11  C   UNL     1       5.775   3.970  15.589  0.00  0.00    +0.000 A 
ATOM     12  C   UNL     1       4.630   4.021  16.374  0.00  0.00    +0.000 A 
ATOM     13  C   UNL     1       4.469   5.051  17.312  0.00  0.00    +0.000 A 
ATOM     14  C   UNL     1       5.480   6.006  17.495  0.00  0.00    +0.000 A 
BRANCH   9  16
ATOM     15  C   UNL     1       7.459   7.987  17.569  0.00  0.00    +0.000 C 
ATOM     16  O   UNL     1       7.663   6.840  16.752  0.00  0.00    +0.000 OA
ENDBRANCH   9  16
ENDBRANCH   5  13
ENDBRANCH   3   7
ENDBRANCH   1   3
BRANCH   1  17
ATOM     17  C   UNL     1       1.758   7.784  20.401  0.00  0.00    +0.000 C 
BRANCH  17  18
ATOM     18  C   UNL     1       1.683   8.459  21.773  0.00  0.00    +0.000 C 
BRANCH  18  19
ATOM     19  C   UNL     1       0.690   9.612  21.755  0.00  0.00    +0.000 C 
ATOM     20  C   UNL     1      -0.108   9.705  20.457  0.00  0.00    +0.000 C 
ATOM     21  C   UNL     1      -0.688  11.116  20.399  0.00  0.00    +0.000 C 
ATOM     22  N   UNL     1      -1.538  11.457  21.558  0.00  0.00    +0.000 NA
ATOM     23  C   UNL     1      -0.993  11.042  22.865  0.00  0.00    +0.000 C 
ATOM     24  C   UNL     1      -0.346   9.653  22.881  0.00  0.00    +0.000 C 
BRANCH  22  25
ATOM     25  C   UNL     1      -1.777  12.919  21.592  0.00  0.00    +0.000 C 
BRANCH  25  26
ATOM     26  C   UNL     1      -3.078  13.306  22.258  0.00  0.00    +0.000 A 
ATOM     27  C   UNL     1      -3.077  14.150  23.377  0.00  0.00    +0.000 A 
ATOM     28  C   UNL     1      -4.266  14.472  24.023  0.00  0.00    +0.000 A 
ATOM     29  C   UNL     1      -5.474  13.970  23.549  0.00  0.00    +0.000 A 
ATOM     30  C   UNL     1      -5.491  13.129  22.436  0.00  0.00    +0.000 A 
ATOM     31  C   UNL     1      -4.298  12.796  21.792  0.00  0.00    +0.000 A 
ENDBRANCH  25  26
ENDBRANCH  22  25
ENDBRANCH  18  19
ENDBRANCH  17  18
ENDBRANCH   1  17
TORSDOF 9
ENDMDL
MODEL 3
REMARK VINA RESULT:      -7.4      6.025      9.368
REMARK  Name = 
REMARK  10 active torsions:
REMARK  status: ('A' for Active; 'I' for Inactive)
REMARK    1  A    between atoms: C_1  and  O_2
REMARK    2  A    between atoms: O_2  and  C_3
REMARK    3  A    between atoms: C_7  and  C_8
REMARK    4  A    between atoms: N_10  and  C_11
REMARK    5  A    between atoms: C_11  and  N_13
REMARK    6  A    between atoms: N_13  and  C_14
REMARK    7  A    between atoms: C_14  and  C_15
REMARK    8  A    between atoms: C_15  and  C_16
REMARK    9  A    between atoms: N_19  and  C_20
REMARK   10  A    between atoms: C_20  and  C_21
REMARK                            x       y       z     vdW  Elec       q    Type
REMARK                         _______ _______ _______ _____ _____    ______ ____
ROOT
ATOM      1  N   UNL     1       9.127   9.376  18.961  0.00  0.00    +0.000 N 
ATOM      2  H   UNL     1       9.567   8.773  19.657  0.00  0.00    +0.000 HD
ENDROOT
BRANCH   1   3
ATOM      3  C   UNL     1       9.499  10.687  19.014  0.00  0.00    +0.000 C 
ATOM      4  S   UNL     1      10.404  11.509  17.877  0.00  0.00    +0.000 S 
BRANCH   3   7
ATOM      5  C   UNL     1       9.788  11.991  21.102  0.00  0.00    +0.000 C 
ATOM      6  O   UNL     1      11.003  12.159  21.031  0.00  0.00    +0.000 OA
ATOM      7  N   UNL     1       9.035  11.387  20.106  0.00  0.00    +0.000 N 
ATOM      8  H   UNL     1       8.028  11.411  20.168  0.00  0.00    +0.000 HD
BRANCH   5  13
ATOM      9  C   UNL     1       8.336  14.268  23.771  0.00  0.00    +0.000 A 
ATOM     10  C   UNL     1       7.650  13.326  24.541  0.00  0.00    +0.000 A 
ATOM     11  C   UNL     1       7.632  11.982  24.171  0.00  0.00    +0.000 A 
ATOM     12  C   UNL     1       8.325  11.569  23.041  0.00  0.00    +0.000 A 
ATOM     13  C   UNL     1       9.052  12.501  22.285  0.00  0.00    +0.000 A 
ATOM     14  C   UNL     1       9.043  13.859  22.639  0.00  0.00    +0.000 A 
BRANCH   9  16
ATOM     15  C   UNL     1       7.002  16.149  24.300  0.00  0.00    +0.000 C 
ATOM     16  O   UNL     1       8.291  15.547  24.250  0.00  0.00    +0.000 OA
ENDBRANCH   9  16
ENDBRANCH   5  13
ENDBRANCH   3   7
ENDBRANCH   1   3
BRANCH   1  17
ATOM     17  C   UNL     1       8.256   8.722  18.009  0.00  0.00    +0.000 C 
BRANCH  17  18
ATOM     18  C   UNL     1       8.143   7.214  18.250  0.00  0.00    +0.000 C 
BRANCH  18  19
ATOM     19  C   UNL     1       6.692   6.761  18.174  0.00  0.00    +0.000 C 
ATOM     20  C   UNL     1       6.142   6.725  16.750  0.00  0.00    +0.000 C 
ATOM     21  C   UNL     1       4.620   6.714  16.869  0.00  0.00    +0.000 C 
ATOM     22  N   UNL     1       4.093   5.583  17.660  0.00  0.00    +0.000 NA
ATOM     23  C   UNL     1       4.835   5.304  18.906  0.00  0.00    +0.000 C 
ATOM     24  C   UNL     1       6.360   5.396  18.781  0.00  0.00    +0.000 C 
BRANCH  22  25
ATOM     25  C   UNL     1       2.674   5.829  18.004  0.00  0.00    +0.000 C 
BRANCH  25  26
ATOM     26  C   UNL     1       2.027   4.692  18.763  0.00  0.00    +0.000 A 
ATOM     27  C   UNL     1       1.570   3.555  18.083  0.00  0.00    +0.000 A 
ATOM     28  C   UNL     1       0.933   2.527  18.770  0.00  0.00    +0.000 A 
ATOM     29  C   UNL     1       0.760   2.612  20.148  0.00  0.00    +0.000 A 
ATOM     30  C   UNL     1       1.211   3.738  20.838  0.00  0.00    +0.000 A 
ATOM     31  C   UNL     1       1.842   4.775  20.150  0.00  0.00    +0.000 A 
ENDBRANCH  25  26
ENDBRANCH  22  25
ENDBRANCH  18  19
ENDBRANCH  17  18
ENDBRANCH   1  17
TORSDOF 9
ENDMDL
MODEL 4
REMARK VINA RESULT:      -7.4      3.026      9.306
REMARK  Name = 
REMARK  10 active torsions:
REMARK  status: ('A' for Active; 'I' for Inactive)
REMARK    1  A    between atoms: C_1  and  O_2
REMARK    2  A    between atoms: O_2  and  C_3
REMARK    3  A    between atoms: C_7  and  C_8
REMARK    4  A    between atoms: N_10  and  C_11
REMARK    5  A    between atoms: C_11  and  N_13
REMARK    6  A    between atoms: N_13  and  C_14
REMARK    7  A    between atoms: C_14  and  C_15
REMARK    8  A    between atoms: C_15  and  C_16
REMARK    9  A    between atoms: N_19  and  C_20
REMARK   10  A    between atoms: C_20  and  C_21
REMARK                            x       y       z     vdW  Elec       q    Type
REMARK                         _______ _______ _______ _____ _____    ______ ____
ROOT
ATOM      1  N   UNL     1       0.538   8.398  21.084  0.00  0.00    +0.000 N 
ATOM      2  H   UNL     1       0.052   7.814  21.766  0.00  0.00    +0.000 HD
ENDROOT
BRANCH   1   3
ATOM      3  C   UNL     1       0.016   9.645  20.914  0.00  0.00    +0.000 C 
ATOM      4  S   UNL     1       0.427  11.020  21.768  0.00  0.00    +0.000 S 
BRANCH   3   7
ATOM      5  C   UNL     1      -0.698  10.204  18.607  0.00  0.00    +0.000 C 
ATOM      6  O   UNL     1       0.417  10.362  18.117  0.00  0.00    +0.000 OA
ATOM      7  N   UNL     1      -0.913   9.761  19.904  0.00  0.00    +0.000 N 
ATOM      8  H   UNL     1      -1.850   9.518  20.192  0.00  0.00    +0.000 HD
BRANCH   5  13
ATOM      9  C   UNL     1      -4.068  11.426  17.355  0.00  0.00    +0.000 A 
ATOM     10  C   UNL     1      -4.109  10.786  16.114  0.00  0.00    +0.000 A 
ATOM     11  C   UNL     1      -3.038  10.003  15.682  0.00  0.00    +0.000 A 
ATOM     12  C   UNL     1      -1.932   9.835  16.504  0.00  0.00    +0.000 A 
ATOM     13  C   UNL     1      -1.901  10.441  17.770  0.00  0.00    +0.000 A 
ATOM     14  C   UNL     1      -2.963  11.255  18.191  0.00  0.00    +0.000 A 
BRANCH   9  16
ATOM     15  C   UNL     1      -6.323  11.394  18.071  0.00  0.00    +0.000 C 
ATOM     16  O   UNL     1      -5.186  12.148  17.667  0.00  0.00    +0.000 OA
ENDBRANCH   9  16
ENDBRANCH   5  13
ENDBRANCH   3   7
ENDBRANCH   1   3
BRANCH   1  17
ATOM     17  C   UNL     1       1.725   7.826  20.486  0.00  0.00    +0.000 C 
BRANCH  17  18
ATOM     18  C   UNL     1       1.809   6.309  20.673  0.00  0.00    +0.000 C 
BRANCH  18  19
ATOM     19  C   UNL     1       2.758   5.691  19.655  0.00  0.00    +0.000 C 
ATOM     20  C   UNL     1       3.119   4.241  19.966  0.00  0.00    +0.000 C 
ATOM     21  C   UNL     1       4.382   3.924  19.169  0.00  0.00    +0.000 C 
ATOM     22  N   UNL     1       4.232   4.122  17.713  0.00  0.00    +0.000 NA
ATOM     23  C   UNL     1       3.527   5.361  17.330  0.00  0.00    +0.000 C 
ATOM     24  C   UNL     1       2.307   5.701  18.193  0.00  0.00    +0.000 C 
BRANCH  22  25
ATOM     25  C   UNL     1       5.565   4.121  17.066  0.00  0.00    +0.000 C 
BRANCH  25  26
ATOM     26  C   UNL     1       6.457   5.257  17.513  0.00  0.00    +0.000 A 
ATOM     27  C   UNL     1       7.347   5.080  18.583  0.00  0.00    +0.000 A 
ATOM     28  C   UNL     1       8.136   6.134  19.028  0.00  0.00    +0.000 A 
ATOM     29  C   UNL     1       8.063   7.375  18.402  0.00  0.00    +0.000 A 
ATOM     30  C   UNL     1       7.182   7.565  17.336  0.00  0.00    +0.000 A 
ATOM     31  C   UNL     1       6.382   6.512  16.892  0.00  0.00    +0.000 A 
ENDBRANCH  25  26
ENDBRANCH  22  25
ENDBRANCH  18  19
ENDBRANCH  17  18
ENDBRANCH   1  17
TORSDOF 9
ENDMDL
MODEL 5
REMARK VINA RESULT:      -7.3      2.915      4.039
REMARK  Name = 
REMARK  10 active torsions:
REMARK  status: ('A' for Active; 'I' for Inactive)
REMARK    1  A    between atoms: C_1  and  O_2
REMARK    2  A    between atoms: O_2  and  C_3
REMARK    3  A    between atoms: C_7  and  C_8
REMARK    4  A    between atoms: N_10  and  C_11
REMARK    5  A    between atoms: C_11  and  N_13
REMARK    6  A    between atoms: N_13  and  C_14
REMARK    7  A    between atoms: C_14  and  C_15
REMARK    8  A    between atoms: C_15  and  C_16
REMARK    9  A    between atoms: N_19  and  C_20
REMARK   10  A    between atoms: C_20  and  C_21
REMARK                            x       y       z     vdW  Elec       q    Type
REMARK                         _______ _______ _______ _____ _____    ______ ____
ROOT
ATOM      1  N   UNL     1       2.046   6.274  21.037  0.00  0.00    +0.000 N 
ATOM      2  H   UNL     1       2.272   6.078  22.013  0.00  0.00    +0.000 HD
ENDROOT
BRANCH   1   3
ATOM      3  C   UNL     1       2.242   5.233  20.179  0.00  0.00    +0.000 C 
ATOM      4  S   UNL     1       1.158   4.009  19.839  0.00  0.00    +0.000 S 
BRANCH   3   7
ATOM      5  C   UNL     1       3.768   5.945  18.360  0.00  0.00    +0.000 C 
ATOM      6  O   UNL     1       3.068   6.837  17.889  0.00  0.00    +0.000 OA
ATOM      7  N   UNL     1       3.446   5.240  19.511  0.00  0.00    +0.000 N 
ATOM      8  H   UNL     1       4.133   4.623  19.918  0.00  0.00    +0.000 HD
BRANCH   5  13
ATOM      9  C   UNL     1       6.456   5.213  15.780  0.00  0.00    +0.000 A 
ATOM     10  C   UNL     1       7.543   4.979  16.627  0.00  0.00    +0.000 A 
ATOM     11  C   UNL     1       7.405   5.098  18.009  0.00  0.00    +0.000 A 
ATOM     12  C   UNL     1       6.170   5.424  18.554  0.00  0.00    +0.000 A 
ATOM     13  C   UNL     1       5.064   5.619  17.713  0.00  0.00    +0.000 A 
ATOM     14  C   UNL     1       5.209   5.532  16.321  0.00  0.00    +0.000 A 
BRANCH   9  16
ATOM     15  C   UNL     1       6.116   3.914  13.832  0.00  0.00    +0.000 C 
ATOM     16  O   UNL     1       6.717   5.047  14.449  0.00  0.00    +0.000 OA
ENDBRANCH   9  16
ENDBRANCH   5  13
ENDBRANCH   3   7
ENDBRANCH   1   3
BRANCH   1  17
ATOM     17  C   UNL     1       1.494   7.582  20.761  0.00  0.00    +0.000 C 
BRANCH  17  18
ATOM     18  C   UNL     1       0.147   7.813  21.452  0.00  0.00    +0.000 C 
BRANCH  18  19
ATOM     19  C   UNL     1      -0.130   9.302  21.611  0.00  0.00    +0.000 C 
ATOM     20  C   UNL     1      -0.511   9.698  23.035  0.00  0.00    +0.000 C 
ATOM     21  C   UNL     1      -1.188  11.064  22.943  0.00  0.00    +0.000 C 
ATOM     22  N   UNL     1      -0.345  12.105  22.320  0.00  0.00    +0.000 NA
ATOM     23  C   UNL     1       0.382  11.668  21.112  0.00  0.00    +0.000 C 
ATOM     24  C   UNL     1       0.988  10.262  21.199  0.00  0.00    +0.000 C 
BRANCH  22  25
ATOM     25  C   UNL     1      -1.176  13.280  21.968  0.00  0.00    +0.000 C 
BRANCH  25  26
ATOM     26  C   UNL     1      -1.759  13.992  23.168  0.00  0.00    +0.000 A 
ATOM     27  C   UNL     1      -0.965  14.856  23.934  0.00  0.00    +0.000 A 
ATOM     28  C   UNL     1      -1.482  15.477  25.065  0.00  0.00    +0.000 A 
ATOM     29  C   UNL     1      -2.806  15.259  25.437  0.00  0.00    +0.000 A 
ATOM     30  C   UNL     1      -3.608  14.402  24.683  0.00  0.00    +0.000 A 
ATOM     31  C   UNL     1      -3.089  13.769  23.553  0.00  0.00    +0.000 A 
ENDBRANCH  25  26
ENDBRANCH  22  25
ENDBRANCH  18  19
ENDBRANCH  17  18
ENDBRANCH   1  17
TORSDOF 9
ENDMDL
MODEL 6
REMARK VINA RESULT:      -7.3      2.130      3.296
REMARK  Name = 
REMARK  10 active torsions:
REMARK  status: ('A' for Active; 'I' for Inactive)
REMARK    1  A    between atoms: C_1  and  O_2
REMARK    2  A    between atoms: O_2  and  C_3
REMARK    3  A    between atoms: C_7  and  C_8
REMARK    4  A    between atoms: N_10  and  C_11
REMARK    5  A    between atoms: C_11  and  N_13
REMARK    6  A    between atoms: N_13  and  C_14
REMARK    7  A    between atoms: C_14  and  C_15
REMARK    8  A    between atoms: C_15  and  C_16
REMARK    9  A    between atoms: N_19  and  C_20
REMARK   10  A    between atoms: C_20  and  C_21
REMARK                            x       y       z     vdW  Elec       q    Type
REMARK                         _______ _______ _______ _____ _____    ______ ____
ROOT
ATOM      1  N   UNL     1       1.929   6.746  21.071  0.00  0.00    +0.000 N 
ATOM      2  H   UNL     1       1.890   6.691  22.089  0.00  0.00    +0.000 HD
ENDROOT
BRANCH   1   3
ATOM      3  C   UNL     1       2.154   5.562  20.436  0.00  0.00    +0.000 C 
ATOM      4  S   UNL     1       1.287   4.148  20.633  0.00  0.00    +0.000 S 
BRANCH   3   7
ATOM      5  C   UNL     1       3.086   5.391  18.145  0.00  0.00    +0.000 C 
ATOM      6  O   UNL     1       2.024   5.401  17.528  0.00  0.00    +0.000 OA
ATOM      7  N   UNL     1       3.180   5.571  19.517  0.00  0.00    +0.000 N 
ATOM      8  H   UNL     1       4.091   5.694  19.936  0.00  0.00    +0.000 HD
BRANCH   5  13
ATOM      9  C   UNL     1       6.568   5.960  16.743  0.00  0.00    +0.000 A 
ATOM     10  C   UNL     1       6.687   4.829  15.931  0.00  0.00    +0.000 A 
ATOM     11  C   UNL     1       5.664   3.883  15.876  0.00  0.00    +0.000 A 
ATOM     12  C   UNL     1       4.504   4.079  16.613  0.00  0.00    +0.000 A 
ATOM     13  C   UNL     1       4.359   5.232  17.399  0.00  0.00    +0.000 A 
ATOM     14  C   UNL     1       5.401   6.168  17.480  0.00  0.00    +0.000 A 
BRANCH   9  16
ATOM     15  C   UNL     1       7.561   7.948  17.557  0.00  0.00    +0.000 C 
ATOM     16  O   UNL     1       7.631   6.818  16.695  0.00  0.00    +0.000 OA
ENDBRANCH   9  16
ENDBRANCH   5  13
ENDBRANCH   3   7
ENDBRANCH   1   3
BRANCH   1  17
ATOM     17  C   UNL     1       1.666   8.046  20.492  0.00  0.00    +0.000 C 
BRANCH  17  18
ATOM     18  C   UNL     1       0.258   8.559  20.806  0.00  0.00    +0.000 C 
BRANCH  18  19
ATOM     19  C   UNL     1       0.108  10.016  20.392  0.00  0.00    +0.000 C 
ATOM     20  C   UNL     1       1.160  10.933  21.011  0.00  0.00    +0.000 C 
ATOM     21  C   UNL     1       0.623  12.357  20.892  0.00  0.00    +0.000 C 
ATOM     22  N   UNL     1       0.327  12.768  19.504  0.00  0.00    +0.000 NA
ATOM     23  C   UNL     1      -0.375  11.750  18.698  0.00  0.00    +0.000 C 
ATOM     24  C   UNL     1       0.130  10.315  18.891  0.00  0.00    +0.000 C 
BRANCH  22  25
ATOM     25  C   UNL     1      -0.487  14.005  19.510  0.00  0.00    +0.000 C 
BRANCH  25  26
ATOM     26  C   UNL     1       0.226  15.204  18.925  0.00  0.00    +0.000 A 
ATOM     27  C   UNL     1       1.624  15.219  18.829  0.00  0.00    +0.000 A 
ATOM     28  C   UNL     1       2.288  16.336  18.335  0.00  0.00    +0.000 A 
ATOM     29  C   UNL     1       1.564  17.447  17.913  0.00  0.00    +0.000 A 
ATOM     30  C   UNL     1       0.172  17.446  18.003  0.00  0.00    +0.000 A 
ATOM     31  C   UNL     1      -0.497  16.330  18.506  0.00  0.00    +0.000 A 
ENDBRANCH  25  26
ENDBRANCH  22  25
ENDBRANCH  18  19
ENDBRANCH  17  18
ENDBRANCH   1  17
TORSDOF 9
ENDMDL
MODEL 7
REMARK VINA RESULT:      -7.3      2.968      4.054
REMARK  Name = 
REMARK  10 active torsions:
REMARK  status: ('A' for Active; 'I' for Inactive)
REMARK    1  A    between atoms: C_1  and  O_2
REMARK    2  A    between atoms: O_2  and  C_3
REMARK    3  A    between atoms: C_7  and  C_8
REMARK    4  A    between atoms: N_10  and  C_11
REMARK    5  A    between atoms: C_11  and  N_13
REMARK    6  A    between atoms: N_13  and  C_14
REMARK    7  A    between atoms: C_14  and  C_15
REMARK    8  A    between atoms: C_15  and  C_16
REMARK    9  A    between atoms: N_19  and  C_20
REMARK   10  A    between atoms: C_20  and  C_21
REMARK                            x       y       z     vdW  Elec       q    Type
REMARK                         _______ _______ _______ _____ _____    ______ ____
ROOT
ATOM      1  N   UNL     1       2.002   6.146  21.192  0.00  0.00    +0.000 N 
ATOM      2  H   UNL     1       2.618   6.325  21.986  0.00  0.00    +0.000 HD
ENDROOT
BRANCH   1   3
ATOM      3  C   UNL     1       2.230   4.973  20.536  0.00  0.00    +0.000 C 
ATOM      4  S   UNL     1       1.265   3.611  20.572  0.00  0.00    +0.000 S 
BRANCH   3   7
ATOM      5  C   UNL     1       3.578   5.671  18.577  0.00  0.00    +0.000 C 
ATOM      6  O   UNL     1       2.866   6.598  18.201  0.00  0.00    +0.000 OA
ATOM      7  N   UNL     1       3.355   4.951  19.741  0.00  0.00    +0.000 N 
ATOM      8  H   UNL     1       4.058   4.300  20.060  0.00  0.00    +0.000 HD
BRANCH   5  13
ATOM      9  C   UNL     1       5.941   4.895  15.708  0.00  0.00    +0.000 A 
ATOM     10  C   UNL     1       7.105   4.610  16.426  0.00  0.00    +0.000 A 
ATOM     11  C   UNL     1       7.124   4.709  17.817  0.00  0.00    +0.000 A 
ATOM     12  C   UNL     1       5.968   5.067  18.498  0.00  0.00    +0.000 A 
ATOM     13  C   UNL     1       4.783   5.314  17.787  0.00  0.00    +0.000 A 
ATOM     14  C   UNL     1       4.772   5.246  16.386  0.00  0.00    +0.000 A 
BRANCH   9  16
ATOM     15  C   UNL     1       7.363   4.848  13.817  0.00  0.00    +0.000 C 
ATOM     16  O   UNL     1       6.049   4.743  14.353  0.00  0.00    +0.000 OA
ENDBRANCH   9  16
ENDBRANCH   5  13
ENDBRANCH   3   7
ENDBRANCH   1   3
BRANCH   1  17
ATOM     17  C   UNL     1       0.963   7.125  20.958  0.00  0.00    +0.000 C 
BRANCH  17  18
ATOM     18  C   UNL     1       1.512   8.547  20.818  0.00  0.00    +0.000 C 
BRANCH  18  19
ATOM     19  C   UNL     1       0.520   9.565  21.364  0.00  0.00    +0.000 C 
ATOM     20  C   UNL     1       0.401   9.539  22.885  0.00  0.00    +0.000 C 
ATOM     21  C   UNL     1      -0.908  10.243  23.234  0.00  0.00    +0.000 C 
ATOM     22  N   UNL     1      -0.990  11.629  22.729  0.00  0.00    +0.000 NA
ATOM     23  C   UNL     1      -0.517  11.809  21.343  0.00  0.00    +0.000 C 
ATOM     24  C   UNL     1       0.757  11.031  20.992  0.00  0.00    +0.000 C 
BRANCH  22  25
ATOM     25  C   UNL     1      -2.389  12.112  22.813  0.00  0.00    +0.000 C 
BRANCH  25  26
ATOM     26  C   UNL     1      -2.534  13.429  23.542  0.00  0.00    +0.000 A 
ATOM     27  C   UNL     1      -3.806  13.950  23.816  0.00  0.00    +0.000 A 
ATOM     28  C   UNL     1      -3.946  15.182  24.445  0.00  0.00    +0.000 A 
ATOM     29  C   UNL     1      -2.817  15.903  24.824  0.00  0.00    +0.000 A 
ATOM     30  C   UNL     1      -1.545  15.397  24.558  0.00  0.00    +0.000 A 
ATOM     31  C   UNL     1      -1.402  14.164  23.919  0.00  0.00    +0.000 A 
ENDBRANCH  25  26
ENDBRANCH  22  25
ENDBRANCH  18  19
ENDBRANCH  17  18
ENDBRANCH   1  17
TORSDOF 9
ENDMDL
MODEL 8
REMARK VINA RESULT:      -7.2      0.960      1.484
REMARK  Name = 
REMARK  10 active torsions:
REMARK  status: ('A' for Active; 'I' for Inactive)
REMARK    1  A    between atoms: C_1  and  O_2
REMARK    2  A    between atoms: O_2  and  C_3
REMARK    3  A    between atoms: C_7  and  C_8
REMARK    4  A    between atoms: N_10  and  C_11
REMARK    5  A    between atoms: C_11  and  N_13
REMARK    6  A    between atoms: N_13  and  C_14
REMARK    7  A    between atoms: C_14  and  C_15
REMARK    8  A    between atoms: C_15  and  C_16
REMARK    9  A    between atoms: N_19  and  C_20
REMARK   10  A    between atoms: C_20  and  C_21
REMARK                            x       y       z     vdW  Elec       q    Type
REMARK                         _______ _______ _______ _____ _____    ______ ____
ROOT
ATOM      1  N   UNL     1       1.839   5.972  21.086  0.00  0.00    +0.000 N 
ATOM      2  H   UNL     1       1.411   5.858  22.006  0.00  0.00    +0.000 HD
ENDROOT
BRANCH   1   3
ATOM      3  C   UNL     1       2.344   4.831  20.538  0.00  0.00    +0.000 C 
ATOM      4  S   UNL     1       1.724   3.290  20.704  0.00  0.00    +0.000 S 
BRANCH   3   7
ATOM      5  C   UNL     1       3.513   4.949  18.355  0.00  0.00    +0.000 C 
ATOM      6  O   UNL     1       2.521   4.943  17.630  0.00  0.00    +0.000 OA
ATOM      7  N   UNL     1       3.453   5.002  19.740  0.00  0.00    +0.000 N 
ATOM      8  H   UNL     1       4.305   5.148  20.263  0.00  0.00    +0.000 HD
BRANCH   5  13
ATOM      9  C   UNL     1       6.356   5.045  15.841  0.00  0.00    +0.000 A 
ATOM     10  C   UNL     1       7.446   4.929  16.708  0.00  0.00    +0.000 A 
ATOM     11  C   UNL     1       7.253   4.861  18.087  0.00  0.00    +0.000 A 
ATOM     12  C   UNL     1       5.964   4.880  18.605  0.00  0.00    +0.000 A 
ATOM     13  C   UNL     1       4.863   4.954  17.739  0.00  0.00    +0.000 A 
ATOM     14  C   UNL     1       5.058   5.056  16.353  0.00  0.00    +0.000 A 
BRANCH   9  16
ATOM     15  C   UNL     1       6.201   4.003  13.722  0.00  0.00    +0.000 C 
ATOM     16  O   UNL     1       6.679   5.085  14.514  0.00  0.00    +0.000 OA
ENDBRANCH   9  16
ENDBRANCH   5  13
ENDBRANCH   3   7
ENDBRANCH   1   3
BRANCH   1  17
ATOM     17  C   UNL     1       1.764   7.296  20.509  0.00  0.00    +0.000 C 
BRANCH  17  18
ATOM     18  C   UNL     1       0.928   8.262  21.351  0.00  0.00    +0.000 C 
BRANCH  18  19
ATOM     19  C   UNL     1       0.500   9.468  20.526  0.00  0.00    +0.000 C 
ATOM     20  C   UNL     1       0.264  10.723  21.363  0.00  0.00    +0.000 C 
ATOM     21  C   UNL     1      -0.575  11.668  20.507  0.00  0.00    +0.000 C 
ATOM     22  N   UNL     1       0.050  12.015  19.215  0.00  0.00    +0.000 NA
ATOM     23  C   UNL     1       0.659  10.875  18.500  0.00  0.00    +0.000 C 
ATOM     24  C   UNL     1       1.433   9.896  19.391  0.00  0.00    +0.000 C 
BRANCH  22  25
ATOM     25  C   UNL     1      -0.953  12.644  18.325  0.00  0.00    +0.000 C 
BRANCH  25  26
ATOM     26  C   UNL     1      -2.187  11.798  18.106  0.00  0.00    +0.000 A 
ATOM     27  C   UNL     1      -2.129  10.659  17.291  0.00  0.00    +0.000 A 
ATOM     28  C   UNL     1      -3.271   9.903  17.049  0.00  0.00    +0.000 A 
ATOM     29  C   UNL     1      -4.482  10.264  17.631  0.00  0.00    +0.000 A 
ATOM     30  C   UNL     1      -4.555  11.396  18.444  0.00  0.00    +0.000 A 
ATOM     31  C   UNL     1      -3.412  12.161  18.681  0.00  0.00    +0.000 A 
ENDBRANCH  25  26
ENDBRANCH  22  25
ENDBRANCH  18  19
ENDBRANCH  17  18
ENDBRANCH   1  17
TORSDOF 9
ENDMDL
MODEL 9
REMARK VINA RESULT:      -7.2      2.352      3.607
REMARK  Name = 
REMARK  10 active torsions:
REMARK  status: ('A' for Active; 'I' for Inactive)
REMARK    1  A    between atoms: C_1  and  O_2
REMARK    2  A    between atoms: O_2  and  C_3
REMARK    3  A    between atoms: C_7  and  C_8
REMARK    4  A    between atoms: N_10  and  C_11
REMARK    5  A    between atoms: C_11  and  N_13
REMARK    6  A    between atoms: N_13  and  C_14
REMARK    7  A    between atoms: C_14  and  C_15
REMARK    8  A    between atoms: C_15  and  C_16
REMARK    9  A    between atoms: N_19  and  C_20
REMARK   10  A    between atoms: C_20  and  C_21
REMARK                            x       y       z     vdW  Elec       q    Type
REMARK                         _______ _______ _______ _____ _____    ______ ____
ROOT
ATOM      1  N   UNL     1       4.155   5.811  18.234  0.00  0.00    +0.000 N 
ATOM      2  H   UNL     1       4.893   6.395  18.629  0.00  0.00    +0.000 HD
ENDROOT
BRANCH   1   3
ATOM      3  C   UNL     1       4.512   4.520  17.981  0.00  0.00    +0.000 C 
ATOM      4  S   UNL     1       4.321   3.217  19.007  0.00  0.00    +0.000 S 
BRANCH   3   7
ATOM      5  C   UNL     1       6.208   4.829  16.200  0.00  0.00    +0.000 C 
ATOM      6  O   UNL     1       7.043   5.437  16.863  0.00  0.00    +0.000 OA
ATOM      7  N   UNL     1       5.045   4.291  16.732  0.00  0.00    +0.000 N 
ATOM      8  H   UNL     1       4.477   3.683  16.159  0.00  0.00    +0.000 HD
BRANCH   5  13
ATOM      9  C   UNL     1       5.970   3.542  12.636  0.00  0.00    +0.000 A 
ATOM     10  C   UNL     1       7.044   4.227  12.062  0.00  0.00    +0.000 A 
ATOM     11  C   UNL     1       7.803   5.120  12.817  0.00  0.00    +0.000 A 
ATOM     12  C   UNL     1       7.508   5.310  14.161  0.00  0.00    +0.000 A 
ATOM     13  C   UNL     1       6.457   4.595  14.756  0.00  0.00    +0.000 A 
ATOM     14  C   UNL     1       5.673   3.721  13.988  0.00  0.00    +0.000 A 
BRANCH   9  16
ATOM     15  C   UNL     1       4.105   3.168  11.229  0.00  0.00    +0.000 C 
ATOM     16  O   UNL     1       5.318   2.684  11.794  0.00  0.00    +0.000 OA
ENDBRANCH   9  16
ENDBRANCH   5  13
ENDBRANCH   3   7
ENDBRANCH   1   3
BRANCH   1  17
ATOM     17  C   UNL     1       2.858   6.435  18.089  0.00  0.00    +0.000 C 
BRANCH  17  18
ATOM     18  C   UNL     1       2.944   7.850  17.512  0.00  0.00    +0.000 C 
BRANCH  18  19
ATOM     19  C   UNL     1       1.956   8.778  18.206  0.00  0.00    +0.000 C 
ATOM     20  C   UNL     1       1.835   8.522  19.706  0.00  0.00    +0.000 C 
ATOM     21  C   UNL     1       0.529   9.170  20.157  0.00  0.00    +0.000 C 
ATOM     22  N   UNL     1       0.452  10.617  19.868  0.00  0.00    +0.000 NA
ATOM     23  C   UNL     1       0.928  11.003  18.525  0.00  0.00    +0.000 C 
ATOM     24  C   UNL     1       2.199  10.282  18.061  0.00  0.00    +0.000 C 
BRANCH  22  25
ATOM     25  C   UNL     1      -0.944  11.086  20.024  0.00  0.00    +0.000 C 
BRANCH  25  26
ATOM     26  C   UNL     1      -1.781  10.929  18.773  0.00  0.00    +0.000 A 
ATOM     27  C   UNL     1      -2.843  11.807  18.516  0.00  0.00    +0.000 A 
ATOM     28  C   UNL     1      -3.644  11.640  17.393  0.00  0.00    +0.000 A 
ATOM     29  C   UNL     1      -3.385  10.604  16.500  0.00  0.00    +0.000 A 
ATOM     30  C   UNL     1      -2.331   9.722  16.743  0.00  0.00    +0.000 A 
ATOM     31  C   UNL     1      -1.531   9.883  17.875  0.00  0.00    +0.000 A 
ENDBRANCH  25  26
ENDBRANCH  22  25
ENDBRANCH  18  19
ENDBRANCH  17  18
ENDBRANCH   1  17
TORSDOF 9
ENDMDL
