MODEL 1
REMARK VINA RESULT:      -8.0      0.000      0.000
REMARK  Name = 
REMARK  4 active torsions:
REMARK  status: ('A' for Active; 'I' for Inactive)
REMARK    1  A    between atoms: C_1  and  N_2
REMARK    2  A    between atoms: N_2  and  C_3
REMARK    3  A    between atoms: N_2  and  S_10
REMARK    4  A    between atoms: S_10  and  C_13
REMARK                            x       y       z     vdW  Elec       q    Type
REMARK                         _______ _______ _______ _____ _____    ______ ____
ROOT
ATOM      1  S   UNL     1       2.852   5.620  18.981  0.00  0.00    +0.000 S 
ATOM      2  O   UNL     1       1.979   5.006  18.003  0.00  0.00    +0.000 OA
ATOM      3  O   UNL     1       2.994   5.030  20.295  0.00  0.00    +0.000 OA
ENDROOT
BRANCH   1   4
ATOM      4  C   UNL     1       2.289   7.298  19.168  0.00  0.00    +0.000 A 
ATOM      5  C   UNL     1       2.221   8.127  18.044  0.00  0.00    +0.000 A 
ATOM      6  C   UNL     1       1.569   9.358  18.133  0.00  0.00    +0.000 A 
ATOM      7  C   UNL     1       0.962   9.768  19.333  0.00  0.00    +0.000 A 
ATOM      8  C   UNL     1       0.239  10.969  19.419  0.00  0.00    +0.000 A 
ATOM      9  C   UNL     1      -0.391  11.341  20.608  0.00  0.00    +0.000 A 
ATOM     10  C   UNL     1      -0.292  10.526  21.732  0.00  0.00    +0.000 A 
ATOM     11  C   UNL     1       0.428   9.332  21.667  0.00  0.00    +0.000 A 
ATOM     12  C   UNL     1       1.051   8.935  20.472  0.00  0.00    +0.000 A 
ATOM     13  C   UNL     1       1.721   7.703  20.381  0.00  0.00    +0.000 A 
ENDBRANCH   1   4
BRANCH   1  15
ATOM     14  C   UNL     1       5.451   5.136  19.271  0.00  0.00    +0.000 C 
ATOM     15  N   UNL     1       4.475   5.763  18.312  0.00  0.00    +0.000 NA
BRANCH  15  16
ATOM     16  C   UNL     1       4.607   5.182  16.903  0.00  0.00    +0.000 C 
ATOM     17  C   UNL     1       5.506   3.924  16.848  0.00  0.00    +0.000 C 
ATOM     18  C   UNL     1       6.946   4.396  16.957  0.00  0.00    +0.000 C 
ATOM     19  S   UNL     1       7.008   5.845  15.932  0.00  0.00    +0.000 S 
ATOM     20  O   UNL     1       7.445   5.446  14.612  0.00  0.00    +0.000 OA
ATOM     21  O   UNL     1       7.659   6.908  16.671  0.00  0.00    +0.000 OA
ATOM     22  C   UNL     1       5.253   6.132  15.882  0.00  0.00    +0.000 C 
ENDBRANCH  15  16
ENDBRANCH   1  15
TORSDOF 3
ENDMDL
MODEL 2
REMARK VINA RESULT:      -8.0      2.362      4.259
REMARK  Name = 
REMARK  4 active torsions:
REMARK  status: ('A' for Active; 'I' for Inactive)
REMARK    1  A    between atoms: C_1  and  N_2
REMARK    2  A    between atoms: N_2  and  C_3
REMARK    3  A    between atoms: N_2  and  S_10
REMARK    4  A    between atoms: S_10  and  C_13
REMARK                            x       y       z     vdW  Elec       q    Type
REMARK                         _______ _______ _______ _____ _____    ______ ____
ROOT
ATOM      1  S   UNL     1       4.416   5.637  17.976  0.00  0.00    +0.000 S 
ATOM      2  O   UNL     1       5.420   5.503  19.011  0.00  0.00    +0.000 OA
ATOM      3  O   UNL     1       4.817   5.803  16.596  0.00  0.00    +0.000 OA
ENDROOT
BRANCH   1   4
ATOM      4  C   UNL     1       3.401   7.023  18.445  0.00  0.00    +0.000 A 
ATOM      5  C   UNL     1       3.094   8.000  17.494  0.00  0.00    +0.000 A 
ATOM      6  C   UNL     1       2.122   8.959  17.779  0.00  0.00    +0.000 A 
ATOM      7  C   UNL     1       1.431   8.945  19.003  0.00  0.00    +0.000 A 
ATOM      8  C   UNL     1       0.399   9.857  19.277  0.00  0.00    +0.000 A 
ATOM      9  C   UNL     1      -0.303   9.803  20.483  0.00  0.00    +0.000 A 
ATOM     10  C   UNL     1       0.030   8.847  21.438  0.00  0.00    +0.000 A 
ATOM     11  C   UNL     1       1.058   7.938  21.187  0.00  0.00    +0.000 A 
ATOM     12  C   UNL     1       1.760   7.967  19.970  0.00  0.00    +0.000 A 
ATOM     13  C   UNL     1       2.750   7.013  19.684  0.00  0.00    +0.000 A 
ENDBRANCH   1   4
BRANCH   1  15
ATOM     14  C   UNL     1       3.369   3.558  16.690  0.00  0.00    +0.000 C 
ATOM     15  N   UNL     1       3.333   4.250  18.027  0.00  0.00    +0.000 NA
BRANCH  15  16
ATOM     16  C   UNL     1       3.630   3.286  19.176  0.00  0.00    +0.000 C 
ATOM     17  C   UNL     1       2.903   1.927  19.032  0.00  0.00    +0.000 C 
ATOM     18  C   UNL     1       1.446   2.156  19.394  0.00  0.00    +0.000 C 
ATOM     19  S   UNL     1       1.513   3.229  20.807  0.00  0.00    +0.000 S 
ATOM     20  O   UNL     1       1.477   2.409  21.999  0.00  0.00    +0.000 OA
ATOM     21  O   UNL     1       0.591   4.328  20.600  0.00  0.00    +0.000 OA
ATOM     22  C   UNL     1       3.183   3.788  20.559  0.00  0.00    +0.000 C 
ENDBRANCH  15  16
ENDBRANCH   1  15
TORSDOF 3
ENDMDL
MODEL 3
REMARK VINA RESULT:      -7.6      1.354      2.227
REMARK  Name = 
REMARK  4 active torsions:
REMARK  status: ('A' for Active; 'I' for Inactive)
REMARK    1  A    between atoms: C_1  and  N_2
REMARK    2  A    between atoms: N_2  and  C_3
REMARK    3  A    between atoms: N_2  and  S_10
REMARK    4  A    between atoms: S_10  and  C_13
REMARK                            x       y       z     vdW  Elec       q    Type
REMARK                         _______ _______ _______ _____ _____    ______ ____
ROOT
ATOM      1  S   UNL     1       3.460   4.379  18.827  0.00  0.00    +0.000 S 
ATOM      2  O   UNL     1       2.796   3.751  17.704  0.00  0.00    +0.000 OA
ATOM      3  O   UNL     1       3.690   3.628  20.043  0.00  0.00    +0.000 OA
ENDROOT
BRANCH   1   4
ATOM      4  C   UNL     1       2.505   5.827  19.224  0.00  0.00    +0.000 A 
ATOM      5  C   UNL     1       1.937   5.946  20.496  0.00  0.00    +0.000 A 
ATOM      6  C   UNL     1       1.387   7.165  20.895  0.00  0.00    +0.000 A 
ATOM      7  C   UNL     1       1.413   8.282  20.042  0.00  0.00    +0.000 A 
ATOM      8  C   UNL     1       0.930   9.534  20.454  0.00  0.00    +0.000 A 
ATOM      9  C   UNL     1       1.000  10.643  19.608  0.00  0.00    +0.000 A 
ATOM     10  C   UNL     1       1.538  10.509  18.331  0.00  0.00    +0.000 A 
ATOM     11  C   UNL     1       2.015   9.270  17.901  0.00  0.00    +0.000 A 
ATOM     12  C   UNL     1       1.970   8.150  18.748  0.00  0.00    +0.000 A 
ATOM     13  C   UNL     1       2.509   6.917  18.347  0.00  0.00    +0.000 A 
ENDBRANCH   1   4
BRANCH   1  15
ATOM     14  C   UNL     1       5.858   5.287  19.532  0.00  0.00    +0.000 C 
ATOM     15  N   UNL     1       5.025   5.000  18.312  0.00  0.00    +0.000 NA
BRANCH  15  16
ATOM     16  C   UNL     1       5.751   4.082  17.328  0.00  0.00    +0.000 C 
ATOM     17  C   UNL     1       7.250   4.434  17.162  0.00  0.00    +0.000 C 
ATOM     18  C   UNL     1       7.326   5.681  16.298  0.00  0.00    +0.000 C 
ATOM     19  S   UNL     1       6.109   5.408  15.034  0.00  0.00    +0.000 S 
ATOM     20  O   UNL     1       6.769   4.813  13.892  0.00  0.00    +0.000 OA
ATOM     21  O   UNL     1       5.287   6.596  14.916  0.00  0.00    +0.000 OA
ATOM     22  C   UNL     1       5.209   4.135  15.889  0.00  0.00    +0.000 C 
ENDBRANCH  15  16
ENDBRANCH   1  15
TORSDOF 3
ENDMDL
MODEL 4
REMARK VINA RESULT:      -7.5      1.122      1.212
REMARK  Name = 
REMARK  4 active torsions:
REMARK  status: ('A' for Active; 'I' for Inactive)
REMARK    1  A    between atoms: C_1  and  N_2
REMARK    2  A    between atoms: N_2  and  C_3
REMARK    3  A    between atoms: N_2  and  S_10
REMARK    4  A    between atoms: S_10  and  C_13
REMARK                            x       y       z     vdW  Elec       q    Type
REMARK                         _______ _______ _______ _____ _____    ______ ____
ROOT
ATOM      1  S   UNL     1       3.319   5.098  18.727  0.00  0.00    +0.000 S 
ATOM      2  O   UNL     1       2.590   4.569  17.593  0.00  0.00    +0.000 OA
ATOM      3  O   UNL     1       3.300   4.393  19.991  0.00  0.00    +0.000 OA
ENDROOT
BRANCH   1   4
ATOM      4  C   UNL     1       2.706   6.748  18.986  0.00  0.00    +0.000 A 
ATOM      5  C   UNL     1       2.673   7.643  17.913  0.00  0.00    +0.000 A 
ATOM      6  C   UNL     1       1.988   8.852  18.042  0.00  0.00    +0.000 A 
ATOM      7  C   UNL     1       1.313   9.175  19.233  0.00  0.00    +0.000 A 
ATOM      8  C   UNL     1       0.558  10.353  19.355  0.00  0.00    +0.000 A 
ATOM      9  C   UNL     1      -0.138  10.638  20.531  0.00  0.00    +0.000 A 
ATOM     10  C   UNL     1      -0.075   9.757  21.607  0.00  0.00    +0.000 A 
ATOM     11  C   UNL     1       0.677   8.586  21.507  0.00  0.00    +0.000 A 
ATOM     12  C   UNL     1       1.367   8.275  20.323  0.00  0.00    +0.000 A 
ATOM     13  C   UNL     1       2.070   7.066  20.191  0.00  0.00    +0.000 A 
ENDBRANCH   1   4
BRANCH   1  15
ATOM     14  C   UNL     1       5.828   5.412  19.551  0.00  0.00    +0.000 C 
ATOM     15  N   UNL     1       5.011   5.310  18.290  0.00  0.00    +0.000 NA
BRANCH  15  16
ATOM     16  C   UNL     1       5.540   4.222  17.355  0.00  0.00    +0.000 C 
ATOM     17  C   UNL     1       7.062   4.332  17.095  0.00  0.00    +0.000 C 
ATOM     18  C   UNL     1       7.271   5.485  16.128  0.00  0.00    +0.000 C 
ATOM     19  S   UNL     1       5.958   5.302  14.945  0.00  0.00    +0.000 S 
ATOM     20  O   UNL     1       6.460   4.531  13.829  0.00  0.00    +0.000 OA
ATOM     21  O   UNL     1       5.313   6.587  14.766  0.00  0.00    +0.000 OA
ATOM     22  C   UNL     1       4.932   4.246  15.942  0.00  0.00    +0.000 C 
ENDBRANCH  15  16
ENDBRANCH   1  15
TORSDOF 3
ENDMDL
MODEL 5
REMARK VINA RESULT:      -7.5      2.280      4.406
REMARK  Name = 
REMARK  4 active torsions:
REMARK  status: ('A' for Active; 'I' for Inactive)
REMARK    1  A    between atoms: C_1  and  N_2
REMARK    2  A    between atoms: N_2  and  C_3
REMARK    3  A    between atoms: N_2  and  S_10
REMARK    4  A    between atoms: S_10  and  C_13
REMARK                            x       y       z     vdW  Elec       q    Type
REMARK                         _______ _______ _______ _____ _____    ______ ____
ROOT
ATOM      1  S   UNL     1       4.128   5.884  18.180  0.00  0.00    +0.000 S 
ATOM      2  O   UNL     1       5.161   5.847  19.195  0.00  0.00    +0.000 OA
ATOM      3  O   UNL     1       4.451   6.311  16.836  0.00  0.00    +0.000 OA
ENDROOT
BRANCH   1   4
ATOM      4  C   UNL     1       2.841   6.935  18.818  0.00  0.00    +0.000 A 
ATOM      5  C   UNL     1       2.368   6.726  20.117  0.00  0.00    +0.000 A 
ATOM      6  C   UNL     1       1.533   7.676  20.708  0.00  0.00    +0.000 A 
ATOM      7  C   UNL     1       1.176   8.851  20.022  0.00  0.00    +0.000 A 
ATOM      8  C   UNL     1       0.398   9.850  20.627  0.00  0.00    +0.000 A 
ATOM      9  C   UNL     1       0.087  11.027  19.945  0.00  0.00    +0.000 A 
ATOM     10  C   UNL     1       0.536  11.213  18.640  0.00  0.00    +0.000 A 
ATOM     11  C   UNL     1       1.303  10.227  18.019  0.00  0.00    +0.000 A 
ATOM     12  C   UNL     1       1.641   9.046  18.700  0.00  0.00    +0.000 A 
ATOM     13  C   UNL     1       2.469   8.080  18.105  0.00  0.00    +0.000 A 
ENDBRANCH   1   4
BRANCH   1  15
ATOM     14  C   UNL     1       3.728   3.714  16.696  0.00  0.00    +0.000 C 
ATOM     15  N   UNL     1       3.384   4.295  18.042  0.00  0.00    +0.000 NA
BRANCH  15  16
ATOM     16  C   UNL     1       3.755   3.346  19.183  0.00  0.00    +0.000 C 
ATOM     17  C   UNL     1       3.205   1.913  18.985  0.00  0.00    +0.000 C 
ATOM     18  C   UNL     1       1.718   1.956  19.294  0.00  0.00    +0.000 C 
ATOM     19  S   UNL     1       1.602   2.995  20.729  0.00  0.00    +0.000 S 
ATOM     20  O   UNL     1       1.622   2.149  21.902  0.00  0.00    +0.000 OA
ATOM     21  O   UNL     1       0.561   3.979  20.507  0.00  0.00    +0.000 OA
ATOM     22  C   UNL     1       3.199   3.758  20.558  0.00  0.00    +0.000 C 
ENDBRANCH  15  16
ENDBRANCH   1  15
TORSDOF 3
ENDMDL
MODEL 6
REMARK VINA RESULT:      -7.4      1.264      1.473
REMARK  Name = 
REMARK  4 active torsions:
REMARK  status: ('A' for Active; 'I' for Inactive)
REMARK    1  A    between atoms: C_1  and  N_2
REMARK    2  A    between atoms: N_2  and  C_3
REMARK    3  A    between atoms: N_2  and  S_10
REMARK    4  A    between atoms: S_10  and  C_13
REMARK                            x       y       z     vdW  Elec       q    Type
REMARK                         _______ _______ _______ _____ _____    ______ ____
ROOT
ATOM      1  S   UNL     1       2.466   4.444  19.207  0.00  0.00    +0.000 S 
ATOM      2  O   UNL     1       1.417   3.949  18.340  0.00  0.00    +0.000 OA
ATOM      3  O   UNL     1       2.568   3.960  20.567  0.00  0.00    +0.000 OA
ENDROOT
BRANCH   1   4
ATOM      4  C   UNL     1       2.286   6.214  19.245  0.00  0.00    +0.000 A 
ATOM      5  C   UNL     1       2.296   6.930  18.044  0.00  0.00    +0.000 A 
ATOM      6  C   UNL     1       1.928   8.276  18.039  0.00  0.00    +0.000 A 
ATOM      7  C   UNL     1       1.528   8.919  19.224  0.00  0.00    +0.000 A 
ATOM      8  C   UNL     1       1.084  10.251  19.225  0.00  0.00    +0.000 A 
ATOM      9  C   UNL     1       0.653  10.861  20.404  0.00  0.00    +0.000 A 
ATOM     10  C   UNL     1       0.675  10.152  21.602  0.00  0.00    +0.000 A 
ATOM     11  C   UNL     1       1.120   8.829  21.621  0.00  0.00    +0.000 A 
ATOM     12  C   UNL     1       1.539   8.196  20.439  0.00  0.00    +0.000 A 
ATOM     13  C   UNL     1       1.924   6.845  20.440  0.00  0.00    +0.000 A 
ENDBRANCH   1   4
BRANCH   1  15
ATOM     14  C   UNL     1       4.048   2.782  17.863  0.00  0.00    +0.000 C 
ATOM     15  N   UNL     1       4.032   4.168  18.451  0.00  0.00    +0.000 NA
BRANCH  15  16
ATOM     16  C   UNL     1       4.405   5.230  17.417  0.00  0.00    +0.000 C 
ATOM     17  C   UNL     1       4.720   4.636  16.023  0.00  0.00    +0.000 C 
ATOM     18  C   UNL     1       6.100   4.005  16.104  0.00  0.00    +0.000 C 
ATOM     19  S   UNL     1       7.053   5.166  17.051  0.00  0.00    +0.000 S 
ATOM     20  O   UNL     1       7.728   6.054  16.130  0.00  0.00    +0.000 OA
ATOM     21  O   UNL     1       7.764   4.445  18.088  0.00  0.00    +0.000 OA
ATOM     22  C   UNL     1       5.672   6.034  17.759  0.00  0.00    +0.000 C 
ENDBRANCH  15  16
ENDBRANCH   1  15
TORSDOF 3
ENDMDL
MODEL 7
REMARK VINA RESULT:      -7.3      1.806      2.916
REMARK  Name = 
REMARK  4 active torsions:
REMARK  status: ('A' for Active; 'I' for Inactive)
REMARK    1  A    between atoms: C_1  and  N_2
REMARK    2  A    between atoms: N_2  and  C_3
REMARK    3  A    between atoms: N_2  and  S_10
REMARK    4  A    between atoms: S_10  and  C_13
REMARK                            x       y       z     vdW  Elec       q    Type
REMARK                         _______ _______ _______ _____ _____    ______ ____
ROOT
ATOM      1  S   UNL     1       3.149   3.613  18.482  0.00  0.00    +0.000 S 
ATOM      2  O   UNL     1       2.296   3.056  17.453  0.00  0.00    +0.000 OA
ATOM      3  O   UNL     1       3.499   2.819  19.640  0.00  0.00    +0.000 OA
ENDROOT
BRANCH   1   4
ATOM      4  C   UNL     1       2.351   5.105  19.035  0.00  0.00    +0.000 A 
ATOM      5  C   UNL     1       2.035   5.252  20.389  0.00  0.00    +0.000 A 
ATOM      6  C   UNL     1       1.625   6.496  20.872  0.00  0.00    +0.000 A 
ATOM      7  C   UNL     1       1.544   7.610  20.018  0.00  0.00    +0.000 A 
ATOM      8  C   UNL     1       1.204   8.884  20.500  0.00  0.00    +0.000 A 
ATOM      9  C   UNL     1       1.167   9.987  19.645  0.00  0.00    +0.000 A 
ATOM     10  C   UNL     1       1.452   9.827  18.292  0.00  0.00    +0.000 A 
ATOM     11  C   UNL     1       1.783   8.566  17.793  0.00  0.00    +0.000 A 
ATOM     12  C   UNL     1       1.844   7.451  18.645  0.00  0.00    +0.000 A 
ATOM     13  C   UNL     1       2.242   6.193  18.162  0.00  0.00    +0.000 A 
ENDBRANCH   1   4
BRANCH   1  15
ATOM     14  C   UNL     1       4.572   3.992  16.268  0.00  0.00    +0.000 C 
ATOM     15  N   UNL     1       4.662   4.154  17.762  0.00  0.00    +0.000 NA
BRANCH  15  16
ATOM     16  C   UNL     1       5.050   5.580  18.158  0.00  0.00    +0.000 C 
ATOM     17  C   UNL     1       5.677   6.384  16.993  0.00  0.00    +0.000 C 
ATOM     18  C   UNL     1       7.098   5.879  16.812  0.00  0.00    +0.000 C 
ATOM     19  S   UNL     1       7.704   5.681  18.470  0.00  0.00    +0.000 S 
ATOM     20  O   UNL     1       8.392   6.896  18.847  0.00  0.00    +0.000 OA
ATOM     21  O   UNL     1       8.325   4.377  18.584  0.00  0.00    +0.000 OA
ATOM     22  C   UNL     1       6.114   5.664  19.266  0.00  0.00    +0.000 C 
ENDBRANCH  15  16
ENDBRANCH   1  15
TORSDOF 3
ENDMDL
MODEL 8
REMARK VINA RESULT:      -7.2      0.789      1.720
REMARK  Name = 
REMARK  4 active torsions:
REMARK  status: ('A' for Active; 'I' for Inactive)
REMARK    1  A    between atoms: C_1  and  N_2
REMARK    2  A    between atoms: N_2  and  C_3
REMARK    3  A    between atoms: N_2  and  S_10
REMARK    4  A    between atoms: S_10  and  C_13
REMARK                            x       y       z     vdW  Elec       q    Type
REMARK                         _______ _______ _______ _____ _____    ______ ____
ROOT
ATOM      1  S   UNL     1       3.018   5.028  19.029  0.00  0.00    +0.000 S 
ATOM      2  O   UNL     1       2.209   4.339  18.046  0.00  0.00    +0.000 OA
ATOM      3  O   UNL     1       3.370   4.366  20.267  0.00  0.00    +0.000 OA
ENDROOT
BRANCH   1   4
ATOM      4  C   UNL     1       2.156   6.536  19.415  0.00  0.00    +0.000 A 
ATOM      5  C   UNL     1       1.611   6.707  20.691  0.00  0.00    +0.000 A 
ATOM      6  C   UNL     1       1.140   7.962  21.078  0.00  0.00    +0.000 A 
ATOM      7  C   UNL     1       1.223   9.064  20.208  0.00  0.00    +0.000 A 
ATOM      8  C   UNL     1       0.821  10.349  20.607  0.00  0.00    +0.000 A 
ATOM      9  C   UNL     1       0.948  11.439  19.743  0.00  0.00    +0.000 A 
ATOM     10  C   UNL     1       1.462  11.255  18.463  0.00  0.00    +0.000 A 
ATOM     11  C   UNL     1       1.858   9.983  18.046  0.00  0.00    +0.000 A 
ATOM     12  C   UNL     1       1.756   8.881  18.911  0.00  0.00    +0.000 A 
ATOM     13  C   UNL     1       2.215   7.611  18.522  0.00  0.00    +0.000 A 
ENDBRANCH   1   4
BRANCH   1  15
ATOM     14  C   UNL     1       5.671   5.136  19.173  0.00  0.00    +0.000 C 
ATOM     15  N   UNL     1       4.527   5.550  18.287  0.00  0.00    +0.000 NA
BRANCH  15  16
ATOM     16  C   UNL     1       4.706   5.049  16.853  0.00  0.00    +0.000 C 
ATOM     17  C   UNL     1       5.682   3.852  16.746  0.00  0.00    +0.000 C 
ATOM     18  C   UNL     1       7.089   4.405  16.896  0.00  0.00    +0.000 C 
ATOM     19  S   UNL     1       7.070   5.904  15.944  0.00  0.00    +0.000 S 
ATOM     20  O   UNL     1       7.542   5.599  14.611  0.00  0.00    +0.000 OA
ATOM     21  O   UNL     1       7.648   6.968  16.741  0.00  0.00    +0.000 OA
ATOM     22  C   UNL     1       5.302   6.087  15.887  0.00  0.00    +0.000 C 
ENDBRANCH  15  16
ENDBRANCH   1  15
TORSDOF 3
ENDMDL
MODEL 9
REMARK VINA RESULT:      -7.2      3.875      7.807
REMARK  Name = 
REMARK  4 active torsions:
REMARK  status: ('A' for Active; 'I' for Inactive)
REMARK    1  A    between atoms: C_1  and  N_2
REMARK    2  A    between atoms: N_2  and  C_3
REMARK    3  A    between atoms: N_2  and  S_10
REMARK    4  A    between atoms: S_10  and  C_13
REMARK                            x       y       z     vdW  Elec       q    Type
REMARK                         _______ _______ _______ _____ _____    ______ ____
ROOT
ATOM      1  S   UNL     1       3.534   3.271  17.517  0.00  0.00    +0.000 S 
ATOM      2  O   UNL     1       4.306   2.307  18.273  0.00  0.00    +0.000 OA
ATOM      3  O   UNL     1       2.387   2.837  16.750  0.00  0.00    +0.000 OA
ENDROOT
BRANCH   1   4
ATOM      4  C   UNL     1       4.681   4.076  16.420  0.00  0.00    +0.000 A 
ATOM      5  C   UNL     1       5.692   4.879  16.954  0.00  0.00    +0.000 A 
ATOM      6  C   UNL     1       6.728   5.324  16.131  0.00  0.00    +0.000 A 
ATOM      7  C   UNL     1       6.779   4.960  14.774  0.00  0.00    +0.000 A 
ATOM      8  C   UNL     1       7.851   5.338  13.950  0.00  0.00    +0.000 A 
ATOM      9  C   UNL     1       7.905   4.934  12.615  0.00  0.00    +0.000 A 
ATOM     10  C   UNL     1       6.878   4.160  12.081  0.00  0.00    +0.000 A 
ATOM     11  C   UNL     1       5.800   3.782  12.883  0.00  0.00    +0.000 A 
ATOM     12  C   UNL     1       5.742   4.164  14.233  0.00  0.00    +0.000 A 
ATOM     13  C   UNL     1       4.695   3.731  15.063  0.00  0.00    +0.000 A 
ENDBRANCH   1   4
BRANCH   1  15
ATOM     14  C   UNL     1       2.867   5.828  17.812  0.00  0.00    +0.000 C 
ATOM     15  N   UNL     1       2.972   4.546  18.593  0.00  0.00    +0.000 NA
BRANCH  15  16
ATOM     16  C   UNL     1       1.664   4.207  19.310  0.00  0.00    +0.000 C 
ATOM     17  C   UNL     1       1.422   5.068  20.572  0.00  0.00    +0.000 C 
ATOM     18  C   UNL     1       2.340   4.538  21.661  0.00  0.00    +0.000 C 
ATOM     19  S   UNL     1       2.239   2.773  21.492  0.00  0.00    +0.000 S 
ATOM     20  O   UNL     1       1.214   2.290  22.392  0.00  0.00    +0.000 OA
ATOM     21  O   UNL     1       3.582   2.229  21.492  0.00  0.00    +0.000 OA
ATOM     22  C   UNL     1       1.585   2.764  19.838  0.00  0.00    +0.000 C 
ENDBRANCH  15  16
ENDBRANCH   1  15
TORSDOF 3
ENDMDL
