MODEL 1
REMARK VINA RESULT:      -7.4      0.000      0.000
REMARK  Name = 
REMARK  9 active torsions:
REMARK  status: ('A' for Active; 'I' for Inactive)
REMARK    1  A    between atoms: C_2  and  C_17
REMARK    2  A    between atoms: N_3  and  O_4
REMARK    3  A    between atoms: O_4  and  C_5
REMARK    4  A    between atoms: C_5  and  C_7
REMARK    5  A    between atoms: C_7  and  C_8
REMARK    6  A    between atoms: C_8  and  C_9
REMARK    7  A    between atoms: C_9  and  O_10
REMARK    8  A    between atoms: O_10  and  C_11
REMARK    9  A    between atoms: C_20  and  N_21
REMARK                            x       y       z     vdW  Elec       q    Type
REMARK                         _______ _______ _______ _____ _____    ______ ____
ROOT
ATOM      1  N   UNL     1       5.331   5.084  19.254  0.00  0.00    +0.000 N 
ATOM      2  C   UNL     1       5.017   4.249  18.207  0.00  0.00    +0.000 C 
ATOM      3  N   UNL     1       4.152   3.284  18.279  0.00  0.00    +0.000 NA
ATOM      4  H   UNL     1       4.633   5.049  19.992  0.00  0.00    +0.000 HD
ATOM      5  H   UNL     1       5.540   6.043  18.994  0.00  0.00    +0.000 HD
ENDROOT
BRANCH   2   6
ATOM      6  C   UNL     1       5.687   4.469  16.886  0.00  0.00    +0.000 A 
ATOM      7  C   UNL     1       6.997   4.961  16.830  0.00  0.00    +0.000 A 
ATOM      8  C   UNL     1       7.626   5.144  15.593  0.00  0.00    +0.000 A 
ATOM      9  C   UNL     1       6.937   4.831  14.413  0.00  0.00    +0.000 A 
ATOM     10  C   UNL     1       5.628   4.334  14.462  0.00  0.00    +0.000 A 
ATOM     11  C   UNL     1       5.008   4.150  15.701  0.00  0.00    +0.000 A 
BRANCH   9  12
ATOM     12  N   UNL     1       7.592   5.023  13.112  0.00  0.00    +0.000 N 
ATOM     13  O   UNL     1       8.489   5.876  13.040  0.00  0.00    +0.000 OA
ATOM     14  O   UNL     1       7.210   4.323  12.165  0.00  0.00    +0.000 OA
ENDBRANCH   9  12
ENDBRANCH   2   6
BRANCH   3  15
ATOM     15  O   UNL     1       3.661   3.108  19.588  0.00  0.00    +0.000 OA
BRANCH  15  16
ATOM     16  C   UNL     1       2.505   2.379  19.503  0.00  0.00    +0.000 C 
ATOM     17  O   UNL     1       2.352   1.392  18.796  0.00  0.00    +0.000 OA
BRANCH  16  18
ATOM     18  C   UNL     1       1.442   2.977  20.395  0.00  0.00    +0.000 C 
BRANCH  18  19
ATOM     19  C   UNL     1       1.130   4.426  20.025  0.00  0.00    +0.000 C 
BRANCH  19  20
ATOM     20  C   UNL     1       1.857   5.446  20.908  0.00  0.00    +0.000 C 
BRANCH  20  21
ATOM     21  O   UNL     1       2.744   6.195  20.073  0.00  0.00    +0.000 OA
BRANCH  21  22
ATOM     22  C   UNL     1       2.251   7.371  19.576  0.00  0.00    +0.000 A 
ATOM     23  C   UNL     1       2.614   7.654  18.257  0.00  0.00    +0.000 A 
ATOM     24  C   UNL     1       2.177   8.824  17.635  0.00  0.00    +0.000 A 
ATOM     25  C   UNL     1       1.355   9.712  18.324  0.00  0.00    +0.000 A 
ATOM     26  C   UNL     1       0.968   9.424  19.632  0.00  0.00    +0.000 A 
ATOM     27  C   UNL     1       1.413   8.255  20.257  0.00  0.00    +0.000 A 
ENDBRANCH  21  22
ENDBRANCH  20  21
ENDBRANCH  19  20
ENDBRANCH  18  19
ENDBRANCH  16  18
ENDBRANCH  15  16
ENDBRANCH   3  15
TORSDOF 9
ENDMDL
MODEL 2
REMARK VINA RESULT:      -7.1      2.353      2.842
REMARK  Name = 
REMARK  9 active torsions:
REMARK  status: ('A' for Active; 'I' for Inactive)
REMARK    1  A    between atoms: C_2  and  C_17
REMARK    2  A    between atoms: N_3  and  O_4
REMARK    3  A    between atoms: O_4  and  C_5
REMARK    4  A    between atoms: C_5  and  C_7
REMARK    5  A    between atoms: C_7  and  C_8
REMARK    6  A    between atoms: C_8  and  C_9
REMARK    7  A    between atoms: C_9  and  O_10
REMARK    8  A    between atoms: O_10  and  C_11
REMARK    9  A    between atoms: C_20  and  N_21
REMARK                            x       y       z     vdW  Elec       q    Type
REMARK                         _______ _______ _______ _____ _____    ______ ____
ROOT
ATOM      1  N   UNL     1       2.637   3.665  16.621  0.00  0.00    +0.000 N 
ATOM      2  C   UNL     1       3.561   3.569  17.635  0.00  0.00    +0.000 C 
ATOM      3  N   UNL     1       3.549   2.647  18.547  0.00  0.00    +0.000 NA
ATOM      4  H   UNL     1       2.118   2.800  16.496  0.00  0.00    +0.000 HD
ATOM      5  H   UNL     1       3.002   4.003  15.735  0.00  0.00    +0.000 HD
ENDROOT
BRANCH   2   6
ATOM      6  C   UNL     1       4.674   4.571  17.691  0.00  0.00    +0.000 A 
ATOM      7  C   UNL     1       4.867   5.473  16.637  0.00  0.00    +0.000 A 
ATOM      8  C   UNL     1       5.895   6.421  16.704  0.00  0.00    +0.000 A 
ATOM      9  C   UNL     1       6.727   6.460  17.832  0.00  0.00    +0.000 A 
ATOM     10  C   UNL     1       6.536   5.564  18.892  0.00  0.00    +0.000 A 
ATOM     11  C   UNL     1       5.505   4.623  18.819  0.00  0.00    +0.000 A 
BRANCH   9  12
ATOM     12  N   UNL     1       7.808   7.453  17.907  0.00  0.00    +0.000 N 
ATOM     13  O   UNL     1       7.911   8.263  16.974  0.00  0.00    +0.000 OA
ATOM     14  O   UNL     1       8.554   7.421  18.895  0.00  0.00    +0.000 OA
ENDBRANCH   9  12
ENDBRANCH   2   6
BRANCH   3  15
ATOM     15  O   UNL     1       2.408   1.825  18.455  0.00  0.00    +0.000 OA
BRANCH  15  16
ATOM     16  C   UNL     1       1.558   2.180  19.469  0.00  0.00    +0.000 C 
ATOM     17  O   UNL     1       0.337   2.196  19.384  0.00  0.00    +0.000 OA
BRANCH  16  18
ATOM     18  C   UNL     1       2.345   2.564  20.700  0.00  0.00    +0.000 C 
BRANCH  18  19
ATOM     19  C   UNL     1       1.811   3.840  21.348  0.00  0.00    +0.000 C 
BRANCH  19  20
ATOM     20  C   UNL     1       1.399   4.909  20.332  0.00  0.00    +0.000 C 
BRANCH  20  21
ATOM     21  O   UNL     1       2.462   5.863  20.243  0.00  0.00    +0.000 OA
BRANCH  21  22
ATOM     22  C   UNL     1       2.122   7.097  19.759  0.00  0.00    +0.000 A 
ATOM     23  C   UNL     1       2.446   7.316  18.418  0.00  0.00    +0.000 A 
ATOM     24  C   UNL     1       2.153   8.536  17.806  0.00  0.00    +0.000 A 
ATOM     25  C   UNL     1       1.515   9.541  18.529  0.00  0.00    +0.000 A 
ATOM     26  C   UNL     1       1.165   9.319  19.861  0.00  0.00    +0.000 A 
ATOM     27  C   UNL     1       1.466   8.099  20.475  0.00  0.00    +0.000 A 
ENDBRANCH  21  22
ENDBRANCH  20  21
ENDBRANCH  19  20
ENDBRANCH  18  19
ENDBRANCH  16  18
ENDBRANCH  15  16
ENDBRANCH   3  15
TORSDOF 9
ENDMDL
MODEL 3
REMARK VINA RESULT:      -7.1      1.058      1.927
REMARK  Name = 
REMARK  9 active torsions:
REMARK  status: ('A' for Active; 'I' for Inactive)
REMARK    1  A    between atoms: C_2  and  C_17
REMARK    2  A    between atoms: N_3  and  O_4
REMARK    3  A    between atoms: O_4  and  C_5
REMARK    4  A    between atoms: C_5  and  C_7
REMARK    5  A    between atoms: C_7  and  C_8
REMARK    6  A    between atoms: C_8  and  C_9
REMARK    7  A    between atoms: C_9  and  O_10
REMARK    8  A    between atoms: O_10  and  C_11
REMARK    9  A    between atoms: C_20  and  N_21
REMARK                            x       y       z     vdW  Elec       q    Type
REMARK                         _______ _______ _______ _____ _____    ______ ____
ROOT
ATOM      1  N   UNL     1       5.447   3.450  18.983  0.00  0.00    +0.000 N 
ATOM      2  C   UNL     1       4.770   3.669  17.806  0.00  0.00    +0.000 C 
ATOM      3  N   UNL     1       3.480   3.594  17.682  0.00  0.00    +0.000 NA
ATOM      4  H   UNL     1       4.831   3.496  19.790  0.00  0.00    +0.000 HD
ATOM      5  H   UNL     1       6.271   4.026  19.120  0.00  0.00    +0.000 HD
ENDROOT
BRANCH   2   6
ATOM      6  C   UNL     1       5.553   4.044  16.585  0.00  0.00    +0.000 A 
ATOM      7  C   UNL     1       5.100   3.672  15.313  0.00  0.00    +0.000 A 
ATOM      8  C   UNL     1       5.824   4.044  14.174  0.00  0.00    +0.000 A 
ATOM      9  C   UNL     1       7.003   4.790  14.316  0.00  0.00    +0.000 A 
ATOM     10  C   UNL     1       7.458   5.170  15.585  0.00  0.00    +0.000 A 
ATOM     11  C   UNL     1       6.728   4.798  16.717  0.00  0.00    +0.000 A 
BRANCH   9  12
ATOM     12  N   UNL     1       7.767   5.182  13.123  0.00  0.00    +0.000 N 
ATOM     13  O   UNL     1       7.446   4.669  12.041  0.00  0.00    +0.000 OA
ATOM     14  O   UNL     1       8.687   5.998  13.269  0.00  0.00    +0.000 OA
ENDBRANCH   9  12
ENDBRANCH   2   6
BRANCH   3  15
ATOM     15  O   UNL     1       2.860   3.139  18.862  0.00  0.00    +0.000 OA
BRANCH  15  16
ATOM     16  C   UNL     1       1.549   3.536  18.821  0.00  0.00    +0.000 C 
ATOM     17  O   UNL     1       0.854   3.546  17.814  0.00  0.00    +0.000 OA
BRANCH  16  18
ATOM     18  C   UNL     1       1.092   3.974  20.193  0.00  0.00    +0.000 C 
BRANCH  18  19
ATOM     19  C   UNL     1       1.999   5.050  20.785  0.00  0.00    +0.000 C 
BRANCH  19  20
ATOM     20  C   UNL     1       2.305   6.189  19.808  0.00  0.00    +0.000 C 
BRANCH  20  21
ATOM     21  O   UNL     1       2.164   7.425  20.515  0.00  0.00    +0.000 OA
BRANCH  21  22
ATOM     22  C   UNL     1       1.488   8.418  19.860  0.00  0.00    +0.000 A 
ATOM     23  C   UNL     1       0.523   9.079  20.623  0.00  0.00    +0.000 A 
ATOM     24  C   UNL     1      -0.236  10.111  20.069  0.00  0.00    +0.000 A 
ATOM     25  C   UNL     1      -0.020  10.502  18.750  0.00  0.00    +0.000 A 
ATOM     26  C   UNL     1       0.960   9.865  17.991  0.00  0.00    +0.000 A 
ATOM     27  C   UNL     1       1.715   8.825  18.544  0.00  0.00    +0.000 A 
ENDBRANCH  21  22
ENDBRANCH  20  21
ENDBRANCH  19  20
ENDBRANCH  18  19
ENDBRANCH  16  18
ENDBRANCH  15  16
ENDBRANCH   3  15
TORSDOF 9
ENDMDL
MODEL 4
REMARK VINA RESULT:      -7.0      2.990      7.603
REMARK  Name = 
REMARK  9 active torsions:
REMARK  status: ('A' for Active; 'I' for Inactive)
REMARK    1  A    between atoms: C_2  and  C_17
REMARK    2  A    between atoms: N_3  and  O_4
REMARK    3  A    between atoms: O_4  and  C_5
REMARK    4  A    between atoms: C_5  and  C_7
REMARK    5  A    between atoms: C_7  and  C_8
REMARK    6  A    between atoms: C_8  and  C_9
REMARK    7  A    between atoms: C_9  and  O_10
REMARK    8  A    between atoms: O_10  and  C_11
REMARK    9  A    between atoms: C_20  and  N_21
REMARK                            x       y       z     vdW  Elec       q    Type
REMARK                         _______ _______ _______ _____ _____    ______ ____
ROOT
ATOM      1  N   UNL     1       2.299   5.774  17.789  0.00  0.00    +0.000 N 
ATOM      2  C   UNL     1       2.816   7.031  17.995  0.00  0.00    +0.000 C 
ATOM      3  N   UNL     1       3.874   7.491  17.399  0.00  0.00    +0.000 NA
ATOM      4  H   UNL     1       2.656   5.351  16.936  0.00  0.00    +0.000 HD
ATOM      5  H   UNL     1       1.286   5.712  17.831  0.00  0.00    +0.000 HD
ENDROOT
BRANCH   2   6
ATOM      6  C   UNL     1       2.114   7.951  18.946  0.00  0.00    +0.000 A 
ATOM      7  C   UNL     1       1.607   9.178  18.498  0.00  0.00    +0.000 A 
ATOM      8  C   UNL     1       0.933  10.025  19.386  0.00  0.00    +0.000 A 
ATOM      9  C   UNL     1       0.768   9.636  20.723  0.00  0.00    +0.000 A 
ATOM     10  C   UNL     1       1.268   8.408  21.176  0.00  0.00    +0.000 A 
ATOM     11  C   UNL     1       1.937   7.567  20.282  0.00  0.00    +0.000 A 
BRANCH   9  12
ATOM     12  N   UNL     1       0.062  10.521  21.659  0.00  0.00    +0.000 N 
ATOM     13  O   UNL     1      -0.700  11.374  21.180  0.00  0.00    +0.000 OA
ATOM     14  O   UNL     1       0.271  10.367  22.870  0.00  0.00    +0.000 OA
ENDBRANCH   9  12
ENDBRANCH   2   6
BRANCH   3  15
ATOM     15  O   UNL     1       4.505   6.510  16.608  0.00  0.00    +0.000 OA
BRANCH  15  16
ATOM     16  C   UNL     1       5.852   6.591  16.844  0.00  0.00    +0.000 C 
ATOM     17  O   UNL     1       6.453   7.621  17.120  0.00  0.00    +0.000 OA
BRANCH  16  18
ATOM     18  C   UNL     1       6.491   5.230  16.700  0.00  0.00    +0.000 C 
BRANCH  18  19
ATOM     19  C   UNL     1       6.832   4.608  18.053  0.00  0.00    +0.000 C 
BRANCH  19  20
ATOM     20  C   UNL     1       5.724   4.783  19.096  0.00  0.00    +0.000 C 
BRANCH  20  21
ATOM     21  O   UNL     1       5.361   3.485  19.574  0.00  0.00    +0.000 OA
BRANCH  21  22
ATOM     22  C   UNL     1       4.108   3.049  19.236  0.00  0.00    +0.000 A 
ATOM     23  C   UNL     1       3.152   3.157  20.249  0.00  0.00    +0.000 A 
ATOM     24  C   UNL     1       1.837   2.745  20.031  0.00  0.00    +0.000 A 
ATOM     25  C   UNL     1       1.464   2.238  18.789  0.00  0.00    +0.000 A 
ATOM     26  C   UNL     1       2.407   2.152  17.765  0.00  0.00    +0.000 A 
ATOM     27  C   UNL     1       3.727   2.558  17.987  0.00  0.00    +0.000 A 
ENDBRANCH  21  22
ENDBRANCH  20  21
ENDBRANCH  19  20
ENDBRANCH  18  19
ENDBRANCH  16  18
ENDBRANCH  15  16
ENDBRANCH   3  15
TORSDOF 9
ENDMDL
MODEL 5
REMARK VINA RESULT:      -6.9      2.815      6.420
REMARK  Name = 
REMARK  9 active torsions:
REMARK  status: ('A' for Active; 'I' for Inactive)
REMARK    1  A    between atoms: C_2  and  C_17
REMARK    2  A    between atoms: N_3  and  O_4
REMARK    3  A    between atoms: O_4  and  C_5
REMARK    4  A    between atoms: C_5  and  C_7
REMARK    5  A    between atoms: C_7  and  C_8
REMARK    6  A    between atoms: C_8  and  C_9
REMARK    7  A    between atoms: C_9  and  O_10
REMARK    8  A    between atoms: O_10  and  C_11
REMARK    9  A    between atoms: C_20  and  N_21
REMARK                            x       y       z     vdW  Elec       q    Type
REMARK                         _______ _______ _______ _____ _____    ______ ____
ROOT
ATOM      1  N   UNL     1       4.249   5.851  19.787  0.00  0.00    +0.000 N 
ATOM      2  C   UNL     1       2.878   5.959  19.760  0.00  0.00    +0.000 C 
ATOM      3  N   UNL     1       2.064   4.975  19.992  0.00  0.00    +0.000 NA
ATOM      4  H   UNL     1       4.554   5.009  20.269  0.00  0.00    +0.000 HD
ATOM      5  H   UNL     1       4.739   6.669  20.134  0.00  0.00    +0.000 HD
ENDROOT
BRANCH   2   6
ATOM      6  C   UNL     1       2.267   7.296  19.471  0.00  0.00    +0.000 A 
ATOM      7  C   UNL     1       2.373   7.860  18.192  0.00  0.00    +0.000 A 
ATOM      8  C   UNL     1       1.782   9.099  17.921  0.00  0.00    +0.000 A 
ATOM      9  C   UNL     1       1.085   9.771  18.936  0.00  0.00    +0.000 A 
ATOM     10  C   UNL     1       0.971   9.210  20.215  0.00  0.00    +0.000 A 
ATOM     11  C   UNL     1       1.561   7.970  20.476  0.00  0.00    +0.000 A 
BRANCH   9  12
ATOM     12  N   UNL     1       0.464  11.073  18.657  0.00  0.00    +0.000 N 
ATOM     13  O   UNL     1      -0.751  11.089  18.410  0.00  0.00    +0.000 OA
ATOM     14  O   UNL     1       1.190  12.076  18.681  0.00  0.00    +0.000 OA
ENDBRANCH   9  12
ENDBRANCH   2   6
BRANCH   3  15
ATOM     15  O   UNL     1       2.744   3.751  20.153  0.00  0.00    +0.000 OA
BRANCH  15  16
ATOM     16  C   UNL     1       1.868   2.746  19.840  0.00  0.00    +0.000 C 
ATOM     17  O   UNL     1       0.996   2.321  20.586  0.00  0.00    +0.000 OA
BRANCH  16  18
ATOM     18  C   UNL     1       2.143   2.227  18.448  0.00  0.00    +0.000 C 
BRANCH  18  19
ATOM     19  C   UNL     1       3.580   2.499  18.007  0.00  0.00    +0.000 C 
BRANCH  19  20
ATOM     20  C   UNL     1       3.692   3.616  16.964  0.00  0.00    +0.000 C 
BRANCH  20  21
ATOM     21  O   UNL     1       5.052   3.671  16.524  0.00  0.00    +0.000 OA
BRANCH  21  22
ATOM     22  C   UNL     1       5.766   4.770  16.917  0.00  0.00    +0.000 A 
ATOM     23  C   UNL     1       6.912   4.494  17.667  0.00  0.00    +0.000 A 
ATOM     24  C   UNL     1       7.726   5.529  18.129  0.00  0.00    +0.000 A 
ATOM     25  C   UNL     1       7.407   6.851  17.828  0.00  0.00    +0.000 A 
ATOM     26  C   UNL     1       6.280   7.133  17.057  0.00  0.00    +0.000 A 
ATOM     27  C   UNL     1       5.461   6.094  16.601  0.00  0.00    +0.000 A 
ENDBRANCH  21  22
ENDBRANCH  20  21
ENDBRANCH  19  20
ENDBRANCH  18  19
ENDBRANCH  16  18
ENDBRANCH  15  16
ENDBRANCH   3  15
TORSDOF 9
ENDMDL
MODEL 6
REMARK VINA RESULT:      -6.9      2.130      2.813
REMARK  Name = 
REMARK  9 active torsions:
REMARK  status: ('A' for Active; 'I' for Inactive)
REMARK    1  A    between atoms: C_2  and  C_17
REMARK    2  A    between atoms: N_3  and  O_4
REMARK    3  A    between atoms: O_4  and  C_5
REMARK    4  A    between atoms: C_5  and  C_7
REMARK    5  A    between atoms: C_7  and  C_8
REMARK    6  A    between atoms: C_8  and  C_9
REMARK    7  A    between atoms: C_9  and  O_10
REMARK    8  A    between atoms: O_10  and  C_11
REMARK    9  A    between atoms: C_20  and  N_21
REMARK                            x       y       z     vdW  Elec       q    Type
REMARK                         _______ _______ _______ _____ _____    ______ ____
ROOT
ATOM      1  N   UNL     1       2.829   2.689  16.895  0.00  0.00    +0.000 N 
ATOM      2  C   UNL     1       3.568   3.117  17.973  0.00  0.00    +0.000 C 
ATOM      3  N   UNL     1       3.495   2.596  19.159  0.00  0.00    +0.000 NA
ATOM      4  H   UNL     1       2.432   1.766  17.047  0.00  0.00    +0.000 HD
ATOM      5  H   UNL     1       3.304   2.740  15.999  0.00  0.00    +0.000 HD
ENDROOT
BRANCH   2   6
ATOM      6  C   UNL     1       4.544   4.236  17.778  0.00  0.00    +0.000 A 
ATOM      7  C   UNL     1       4.461   5.058  16.645  0.00  0.00    +0.000 A 
ATOM      8  C   UNL     1       5.362   6.116  16.479  0.00  0.00    +0.000 A 
ATOM      9  C   UNL     1       6.345   6.348  17.452  0.00  0.00    +0.000 A 
ATOM     10  C   UNL     1       6.429   5.534  18.589  0.00  0.00    +0.000 A 
ATOM     11  C   UNL     1       5.524   4.481  18.749  0.00  0.00    +0.000 A 
BRANCH   9  12
ATOM     12  N   UNL     1       7.293   7.457  17.281  0.00  0.00    +0.000 N 
ATOM     13  O   UNL     1       7.073   8.504  17.907  0.00  0.00    +0.000 OA
ATOM     14  O   UNL     1       8.255   7.282  16.520  0.00  0.00    +0.000 OA
ENDBRANCH   9  12
ENDBRANCH   2   6
BRANCH   3  15
ATOM     15  O   UNL     1       2.479   1.624  19.250  0.00  0.00    +0.000 OA
BRANCH  15  16
ATOM     16  C   UNL     1       1.299   2.277  19.490  0.00  0.00    +0.000 C 
ATOM     17  O   UNL     1       0.310   2.221  18.772  0.00  0.00    +0.000 OA
BRANCH  16  18
ATOM     18  C   UNL     1       1.401   3.088  20.761  0.00  0.00    +0.000 C 
BRANCH  18  19
ATOM     19  C   UNL     1       1.014   4.549  20.542  0.00  0.00    +0.000 C 
BRANCH  19  20
ATOM     20  C   UNL     1       2.125   5.533  20.922  0.00  0.00    +0.000 C 
BRANCH  20  21
ATOM     21  O   UNL     1       2.672   6.065  19.712  0.00  0.00    +0.000 OA
BRANCH  21  22
ATOM     22  C   UNL     1       2.220   7.303  19.342  0.00  0.00    +0.000 A 
ATOM     23  C   UNL     1       1.566   8.019  20.347  0.00  0.00    +0.000 A 
ATOM     24  C   UNL     1       1.058   9.294  20.096  0.00  0.00    +0.000 A 
ATOM     25  C   UNL     1       1.217   9.870  18.838  0.00  0.00    +0.000 A 
ATOM     26  C   UNL     1       1.893   9.173  17.838  0.00  0.00    +0.000 A 
ATOM     27  C   UNL     1       2.395   7.892  18.089  0.00  0.00    +0.000 A 
ENDBRANCH  21  22
ENDBRANCH  20  21
ENDBRANCH  19  20
ENDBRANCH  18  19
ENDBRANCH  16  18
ENDBRANCH  15  16
ENDBRANCH   3  15
TORSDOF 9
ENDMDL
MODEL 7
REMARK VINA RESULT:      -6.9      2.726      6.848
REMARK  Name = 
REMARK  9 active torsions:
REMARK  status: ('A' for Active; 'I' for Inactive)
REMARK    1  A    between atoms: C_2  and  C_17
REMARK    2  A    between atoms: N_3  and  O_4
REMARK    3  A    between atoms: O_4  and  C_5
REMARK    4  A    between atoms: C_5  and  C_7
REMARK    5  A    between atoms: C_7  and  C_8
REMARK    6  A    between atoms: C_8  and  C_9
REMARK    7  A    between atoms: C_9  and  O_10
REMARK    8  A    between atoms: O_10  and  C_11
REMARK    9  A    between atoms: C_20  and  N_21
REMARK                            x       y       z     vdW  Elec       q    Type
REMARK                         _______ _______ _______ _____ _____    ______ ____
ROOT
ATOM      1  N   UNL     1       4.128   5.635  19.707  0.00  0.00    +0.000 N 
ATOM      2  C   UNL     1       3.956   6.564  18.707  0.00  0.00    +0.000 C 
ATOM      3  N   UNL     1       4.707   6.647  17.652  0.00  0.00    +0.000 NA
ATOM      4  H   UNL     1       4.715   4.860  19.409  0.00  0.00    +0.000 HD
ATOM      5  H   UNL     1       3.271   5.300  20.136  0.00  0.00    +0.000 HD
ENDROOT
BRANCH   2   6
ATOM      6  C   UNL     1       2.820   7.535  18.815  0.00  0.00    +0.000 A 
ATOM      7  C   UNL     1       2.074   7.622  19.997  0.00  0.00    +0.000 A 
ATOM      8  C   UNL     1       1.027   8.546  20.099  0.00  0.00    +0.000 A 
ATOM      9  C   UNL     1       0.733   9.382  19.012  0.00  0.00    +0.000 A 
ATOM     10  C   UNL     1       1.479   9.303  17.829  0.00  0.00    +0.000 A 
ATOM     11  C   UNL     1       2.525   8.380  17.736  0.00  0.00    +0.000 A 
BRANCH   9  12
ATOM     12  N   UNL     1      -0.366  10.352  19.115  0.00  0.00    +0.000 N 
ATOM     13  O   UNL     1      -1.028  10.581  18.092  0.00  0.00    +0.000 OA
ATOM     14  O   UNL     1      -0.564  10.886  20.215  0.00  0.00    +0.000 OA
ENDBRANCH   9  12
ENDBRANCH   2   6
BRANCH   3  15
ATOM     15  O   UNL     1       5.797   5.755  17.706  0.00  0.00    +0.000 OA
BRANCH  15  16
ATOM     16  C   UNL     1       6.179   5.489  16.417  0.00  0.00    +0.000 C 
ATOM     17  O   UNL     1       7.181   5.938  15.878  0.00  0.00    +0.000 OA
BRANCH  16  18
ATOM     18  C   UNL     1       5.177   4.573  15.754  0.00  0.00    +0.000 C 
BRANCH  18  19
ATOM     19  C   UNL     1       4.620   3.532  16.723  0.00  0.00    +0.000 C 
BRANCH  19  20
ATOM     20  C   UNL     1       3.089   3.478  16.739  0.00  0.00    +0.000 C 
BRANCH  20  21
ATOM     21  O   UNL     1       2.697   2.393  17.585  0.00  0.00    +0.000 OA
BRANCH  21  22
ATOM     22  C   UNL     1       2.397   2.719  18.881  0.00  0.00    +0.000 A 
ATOM     23  C   UNL     1       1.293   3.559  19.038  0.00  0.00    +0.000 A 
ATOM     24  C   UNL     1       0.885   3.966  20.310  0.00  0.00    +0.000 A 
ATOM     25  C   UNL     1       1.572   3.519  21.436  0.00  0.00    +0.000 A 
ATOM     26  C   UNL     1       2.659   2.659  21.287  0.00  0.00    +0.000 A 
ATOM     27  C   UNL     1       3.071   2.258  20.012  0.00  0.00    +0.000 A 
ENDBRANCH  21  22
ENDBRANCH  20  21
ENDBRANCH  19  20
ENDBRANCH  18  19
ENDBRANCH  16  18
ENDBRANCH  15  16
ENDBRANCH   3  15
TORSDOF 9
ENDMDL
MODEL 8
REMARK VINA RESULT:      -6.9      2.474      3.018
REMARK  Name = 
REMARK  9 active torsions:
REMARK  status: ('A' for Active; 'I' for Inactive)
REMARK    1  A    between atoms: C_2  and  C_17
REMARK    2  A    between atoms: N_3  and  O_4
REMARK    3  A    between atoms: O_4  and  C_5
REMARK    4  A    between atoms: C_5  and  C_7
REMARK    5  A    between atoms: C_7  and  C_8
REMARK    6  A    between atoms: C_8  and  C_9
REMARK    7  A    between atoms: C_9  and  O_10
REMARK    8  A    between atoms: O_10  and  C_11
REMARK    9  A    between atoms: C_20  and  N_21
REMARK                            x       y       z     vdW  Elec       q    Type
REMARK                         _______ _______ _______ _____ _____    ______ ____
ROOT
ATOM      1  N   UNL     1       5.052   3.045  16.654  0.00  0.00    +0.000 N 
ATOM      2  C   UNL     1       5.084   3.773  17.820  0.00  0.00    +0.000 C 
ATOM      3  N   UNL     1       4.467   3.431  18.910  0.00  0.00    +0.000 NA
ATOM      4  H   UNL     1       4.733   2.093  16.808  0.00  0.00    +0.000 HD
ATOM      5  H   UNL     1       5.911   3.060  16.113  0.00  0.00    +0.000 HD
ENDROOT
BRANCH   2   6
ATOM      6  C   UNL     1       5.898   5.030  17.863  0.00  0.00    +0.000 A 
ATOM      7  C   UNL     1       5.473   6.171  17.170  0.00  0.00    +0.000 A 
ATOM      8  C   UNL     1       6.226   7.350  17.231  0.00  0.00    +0.000 A 
ATOM      9  C   UNL     1       7.406   7.379  17.988  0.00  0.00    +0.000 A 
ATOM     10  C   UNL     1       7.833   6.243  18.687  0.00  0.00    +0.000 A 
ATOM     11  C   UNL     1       7.074   5.071  18.625  0.00  0.00    +0.000 A 
BRANCH   9  12
ATOM     12  N   UNL     1       8.200   8.614  18.054  0.00  0.00    +0.000 N 
ATOM     13  O   UNL     1       8.940   8.770  19.037  0.00  0.00    +0.000 OA
ATOM     14  O   UNL     1       8.083   9.425  17.126  0.00  0.00    +0.000 OA
ENDBRANCH   9  12
ENDBRANCH   2   6
BRANCH   3  15
ATOM     15  O   UNL     1       3.658   2.292  18.725  0.00  0.00    +0.000 OA
BRANCH  15  16
ATOM     16  C   UNL     1       2.364   2.721  18.588  0.00  0.00    +0.000 C 
ATOM     17  O   UNL     1       1.821   2.971  17.520  0.00  0.00    +0.000 OA
BRANCH  16  18
ATOM     18  C   UNL     1       1.711   2.856  19.943  0.00  0.00    +0.000 C 
BRANCH  18  19
ATOM     19  C   UNL     1       1.082   4.233  20.144  0.00  0.00    +0.000 C 
BRANCH  19  20
ATOM     20  C   UNL     1       1.989   5.209  20.900  0.00  0.00    +0.000 C 
BRANCH  20  21
ATOM     21  O   UNL     1       2.721   5.967  19.933  0.00  0.00    +0.000 OA
BRANCH  21  22
ATOM     22  C   UNL     1       2.206   7.196  19.618  0.00  0.00    +0.000 A 
ATOM     23  C   UNL     1       2.378   7.586  18.287  0.00  0.00    +0.000 A 
ATOM     24  C   UNL     1       1.899   8.818  17.841  0.00  0.00    +0.000 A 
ATOM     25  C   UNL     1       1.226   9.663  18.720  0.00  0.00    +0.000 A 
ATOM     26  C   UNL     1       1.028   9.269  20.043  0.00  0.00    +0.000 A 
ATOM     27  C   UNL     1       1.515   8.036  20.491  0.00  0.00    +0.000 A 
ENDBRANCH  21  22
ENDBRANCH  20  21
ENDBRANCH  19  20
ENDBRANCH  18  19
ENDBRANCH  16  18
ENDBRANCH  15  16
ENDBRANCH   3  15
TORSDOF 9
ENDMDL
MODEL 9
REMARK VINA RESULT:      -6.8      3.041      6.954
REMARK  Name = 
REMARK  9 active torsions:
REMARK  status: ('A' for Active; 'I' for Inactive)
REMARK    1  A    between atoms: C_2  and  C_17
REMARK    2  A    between atoms: N_3  and  O_4
REMARK    3  A    between atoms: O_4  and  C_5
REMARK    4  A    between atoms: C_5  and  C_7
REMARK    5  A    between atoms: C_7  and  C_8
REMARK    6  A    between atoms: C_8  and  C_9
REMARK    7  A    between atoms: C_9  and  O_10
REMARK    8  A    between atoms: O_10  and  C_11
REMARK    9  A    between atoms: C_20  and  N_21
REMARK                            x       y       z     vdW  Elec       q    Type
REMARK                         _______ _______ _______ _____ _____    ______ ____
ROOT
ATOM      1  N   UNL     1       4.150   6.392  18.816  0.00  0.00    +0.000 N 
ATOM      2  C   UNL     1       2.826   6.412  19.185  0.00  0.00    +0.000 C 
ATOM      3  N   UNL     1       2.143   5.356  19.509  0.00  0.00    +0.000 NA
ATOM      4  H   UNL     1       4.607   5.525  19.084  0.00  0.00    +0.000 HD
ATOM      5  H   UNL     1       4.692   7.198  19.113  0.00  0.00    +0.000 HD
ENDROOT
BRANCH   2   6
ATOM      6  C   UNL     1       2.115   7.729  19.248  0.00  0.00    +0.000 A 
ATOM      7  C   UNL     1       2.003   8.528  18.102  0.00  0.00    +0.000 A 
ATOM      8  C   UNL     1       1.320   9.747  18.161  0.00  0.00    +0.000 A 
ATOM      9  C   UNL     1       0.748  10.163  19.373  0.00  0.00    +0.000 A 
ATOM     10  C   UNL     1       0.852   9.367  20.520  0.00  0.00    +0.000 A 
ATOM     11  C   UNL     1       1.533   8.148  20.453  0.00  0.00    +0.000 A 
BRANCH   9  12
ATOM     12  N   UNL     1       0.031  11.444  19.440  0.00  0.00    +0.000 N 
ATOM     13  O   UNL     1       0.070  12.070  20.509  0.00  0.00    +0.000 OA
ATOM     14  O   UNL     1      -0.573  11.821  18.426  0.00  0.00    +0.000 OA
ENDBRANCH   9  12
ENDBRANCH   2   6
BRANCH   3  15
ATOM     15  O   UNL     1       2.880   4.170  19.319  0.00  0.00    +0.000 OA
BRANCH  15  16
ATOM     16  C   UNL     1       2.148   3.354  18.497  0.00  0.00    +0.000 C 
ATOM     17  O   UNL     1       1.112   2.787  18.818  0.00  0.00    +0.000 OA
BRANCH  16  18
ATOM     18  C   UNL     1       2.812   3.243  17.145  0.00  0.00    +0.000 C 
BRANCH  18  19
ATOM     19  C   UNL     1       4.333   3.347  17.240  0.00  0.00    +0.000 C 
BRANCH  19  20
ATOM     20  C   UNL     1       4.964   4.098  16.064  0.00  0.00    +0.000 C 
BRANCH  20  21
ATOM     21  O   UNL     1       6.385   4.032  16.212  0.00  0.00    +0.000 OA
BRANCH  21  22
ATOM     22  C   UNL     1       6.946   4.960  17.046  0.00  0.00    +0.000 A 
ATOM     23  C   UNL     1       6.948   6.269  16.558  0.00  0.00    +0.000 A 
ATOM     24  C   UNL     1       7.493   7.308  17.314  0.00  0.00    +0.000 A 
ATOM     25  C   UNL     1       8.024   7.047  18.574  0.00  0.00    +0.000 A 
ATOM     26  C   UNL     1       8.002   5.748  19.079  0.00  0.00    +0.000 A 
ATOM     27  C   UNL     1       7.462   4.705  18.317  0.00  0.00    +0.000 A 
ENDBRANCH  21  22
ENDBRANCH  20  21
ENDBRANCH  19  20
ENDBRANCH  18  19
ENDBRANCH  16  18
ENDBRANCH  15  16
ENDBRANCH   3  15
TORSDOF 9
ENDMDL
