MODEL 1
REMARK VINA RESULT:      -7.8      0.000      0.000
REMARK  Name = 
REMARK  7 active torsions:
REMARK  status: ('A' for Active; 'I' for Inactive)
REMARK    1  A    between atoms: C_1  and  C_2
REMARK    2  A    between atoms: C_5  and  C_6
REMARK    3  A    between atoms: C_6  and  N_7
REMARK    4  A    between atoms: C_8  and  C_10
REMARK    5  A    between atoms: C_13  and  C_14
REMARK    6  A    between atoms: C_14  and  N_15
REMARK    7  A    between atoms: C_18  and  C_19
REMARK                            x       y       z     vdW  Elec       q    Type
REMARK                         _______ _______ _______ _____ _____    ______ ____
ROOT
ATOM      1  C   UNL     1       4.462   5.632  18.457  0.00  0.00    +0.000 A 
ATOM      2  C   UNL     1       3.523   6.391  17.784  0.00  0.00    +0.000 A 
ATOM      3  C   UNL     1       2.412   6.523  18.635  0.00  0.00    +0.000 A 
ATOM      4  C   UNL     1       2.646   5.710  19.724  0.00  0.00    +0.000 A 
ATOM      5  O   UNL     1       3.928   5.204  19.650  0.00  0.00    +0.000 OA
ENDROOT
BRANCH   1   7
ATOM      6  N   UNL     1       6.318   6.016  16.959  0.00  0.00    +0.000 N 
ATOM      7  C   UNL     1       5.818   5.330  18.044  0.00  0.00    +0.000 C 
ATOM      8  O   UNL     1       6.485   4.448  18.586  0.00  0.00    +0.000 OA
ATOM      9  H   UNL     1       5.711   6.664  16.465  0.00  0.00    +0.000 HD
BRANCH   6  10
ATOM     10  C   UNL     1       7.508   5.507  16.313  0.00  0.00    +0.000 C 
BRANCH  10  15
ATOM     11  C   UNL     1       5.637   3.089  12.013  0.00  0.00    +0.000 C 
ATOM     12  C   UNL     1       6.367   3.926  13.000  0.00  0.00    +0.000 A 
ATOM     13  N   UNL     1       7.352   4.751  12.709  0.00  0.00    +0.000 NA
ATOM     14  N   UNL     1       7.852   5.388  13.829  0.00  0.00    +0.000 NA
ATOM     15  C   UNL     1       7.226   5.022  14.927  0.00  0.00    +0.000 A 
ATOM     16  S   UNL     1       5.962   3.875  14.667  0.00  0.00    +0.000 S 
ENDBRANCH  10  15
ENDBRANCH   6  10
ENDBRANCH   1   7
BRANCH   4  17
ATOM     17  C   UNL     1       1.794   5.348  20.898  0.00  0.00    +0.000 C 
BRANCH  17  18
ATOM     18  N   UNL     1       1.208   4.000  20.938  0.00  0.00    +0.000 NA
ATOM     19  C   UNL     1       2.041   2.958  21.522  0.00  0.00    +0.000 C 
ATOM     20  C   UNL     1       3.070   2.385  20.557  0.00  0.00    +0.000 C 
ATOM     21  C   UNL     1       2.483   1.956  19.204  0.00  0.00    +0.000 C 
ATOM     22  C   UNL     1       3.603   1.857  18.160  0.00  0.00    +0.000 C 
ATOM     23  C   UNL     1       1.350   2.855  18.681  0.00  0.00    +0.000 C 
ATOM     24  C   UNL     1       0.495   3.523  19.760  0.00  0.00    +0.000 C 
ENDBRANCH  17  18
ENDBRANCH   4  17
TORSDOF 5
ENDMDL
MODEL 2
REMARK VINA RESULT:      -7.3      4.367      5.948
REMARK  Name = 
REMARK  7 active torsions:
REMARK  status: ('A' for Active; 'I' for Inactive)
REMARK    1  A    between atoms: C_1  and  C_2
REMARK    2  A    between atoms: C_5  and  C_6
REMARK    3  A    between atoms: C_6  and  N_7
REMARK    4  A    between atoms: C_8  and  C_10
REMARK    5  A    between atoms: C_13  and  C_14
REMARK    6  A    between atoms: C_14  and  N_15
REMARK    7  A    between atoms: C_18  and  C_19
REMARK                            x       y       z     vdW  Elec       q    Type
REMARK                         _______ _______ _______ _____ _____    ______ ____
ROOT
ATOM      1  C   UNL     1       6.755   6.214  18.096  0.00  0.00    +0.000 A 
ATOM      2  C   UNL     1       6.919   5.583  19.315  0.00  0.00    +0.000 A 
ATOM      3  C   UNL     1       5.951   4.566  19.388  0.00  0.00    +0.000 A 
ATOM      4  C   UNL     1       5.133   4.716  18.288  0.00  0.00    +0.000 A 
ATOM      5  O   UNL     1       5.653   5.690  17.460  0.00  0.00    +0.000 OA
ENDROOT
BRANCH   1   7
ATOM      6  N   UNL     1       7.915   8.323  18.299  0.00  0.00    +0.000 N 
ATOM      7  C   UNL     1       7.592   7.241  17.510  0.00  0.00    +0.000 C 
ATOM      8  O   UNL     1       7.951   7.198  16.333  0.00  0.00    +0.000 OA
ATOM      9  H   UNL     1       7.520   8.385  19.232  0.00  0.00    +0.000 HD
BRANCH   6  10
ATOM     10  C   UNL     1       8.441   9.509  17.657  0.00  0.00    +0.000 C 
BRANCH  10  15
ATOM     11  C   UNL     1      11.355  13.219  20.018  0.00  0.00    +0.000 C 
ATOM     12  C   UNL     1      10.468  12.079  19.673  0.00  0.00    +0.000 A 
ATOM     13  N   UNL     1       9.909  11.266  20.546  0.00  0.00    +0.000 NA
ATOM     14  N   UNL     1       9.146  10.287  19.938  0.00  0.00    +0.000 NA
ATOM     15  C   UNL     1       9.154  10.397  18.626  0.00  0.00    +0.000 A 
ATOM     16  S   UNL     1      10.091  11.722  18.037  0.00  0.00    +0.000 S 
ENDBRANCH  10  15
ENDBRANCH   6  10
ENDBRANCH   1   7
BRANCH   4  17
ATOM     17  C   UNL     1       3.878   4.014  17.877  0.00  0.00    +0.000 C 
BRANCH  17  18
ATOM     18  N   UNL     1       2.593   4.663  18.175  0.00  0.00    +0.000 NA
ATOM     19  C   UNL     1       2.559   5.493  19.370  0.00  0.00    +0.000 C 
ATOM     20  C   UNL     1       2.357   4.705  20.657  0.00  0.00    +0.000 C 
ATOM     21  C   UNL     1       1.175   3.726  20.608  0.00  0.00    +0.000 C 
ATOM     22  C   UNL     1       1.334   2.665  21.706  0.00  0.00    +0.000 C 
ATOM     23  C   UNL     1       0.959   3.047  19.245  0.00  0.00    +0.000 C 
ATOM     24  C   UNL     1       1.374   3.878  18.029  0.00  0.00    +0.000 C 
ENDBRANCH  17  18
ENDBRANCH   4  17
TORSDOF 5
ENDMDL
MODEL 3
REMARK VINA RESULT:      -7.3      5.218      8.685
REMARK  Name = 
REMARK  7 active torsions:
REMARK  status: ('A' for Active; 'I' for Inactive)
REMARK    1  A    between atoms: C_1  and  C_2
REMARK    2  A    between atoms: C_5  and  C_6
REMARK    3  A    between atoms: C_6  and  N_7
REMARK    4  A    between atoms: C_8  and  C_10
REMARK    5  A    between atoms: C_13  and  C_14
REMARK    6  A    between atoms: C_14  and  N_15
REMARK    7  A    between atoms: C_18  and  C_19
REMARK                            x       y       z     vdW  Elec       q    Type
REMARK                         _______ _______ _______ _____ _____    ______ ____
ROOT
ATOM      1  C   UNL     1       6.877   7.215  17.416  0.00  0.00    +0.000 A 
ATOM      2  C   UNL     1       7.838   6.785  18.311  0.00  0.00    +0.000 A 
ATOM      3  C   UNL     1       8.554   7.922  18.726  0.00  0.00    +0.000 A 
ATOM      4  C   UNL     1       8.113   8.975  17.952  0.00  0.00    +0.000 A 
ATOM      5  O   UNL     1       7.043   8.561  17.184  0.00  0.00    +0.000 OA
ENDROOT
BRANCH   1   7
ATOM      6  N   UNL     1       5.428   5.283  17.460  0.00  0.00    +0.000 N 
ATOM      7  C   UNL     1       5.817   6.434  16.811  0.00  0.00    +0.000 C 
ATOM      8  O   UNL     1       5.322   6.735  15.724  0.00  0.00    +0.000 OA
ATOM      9  H   UNL     1       5.924   5.002  18.301  0.00  0.00    +0.000 HD
BRANCH   6  10
ATOM     10  C   UNL     1       4.640   4.314  16.729  0.00  0.00    +0.000 C 
BRANCH  10  15
ATOM     11  C   UNL     1       0.817   3.566  20.286  0.00  0.00    +0.000 C 
ATOM     12  C   UNL     1       1.674   3.623  19.074  0.00  0.00    +0.000 A 
ATOM     13  N   UNL     1       1.353   3.125  17.897  0.00  0.00    +0.000 NA
ATOM     14  N   UNL     1       2.349   3.313  16.958  0.00  0.00    +0.000 NA
ATOM     15  C   UNL     1       3.388   3.948  17.459  0.00  0.00    +0.000 A 
ATOM     16  S   UNL     1       3.215   4.377  19.122  0.00  0.00    +0.000 S 
ENDBRANCH  10  15
ENDBRANCH   6  10
ENDBRANCH   1   7
BRANCH   4  17
ATOM     17  C   UNL     1       8.567  10.396  17.851  0.00  0.00    +0.000 C 
BRANCH  17  18
ATOM     18  N   UNL     1       9.796  10.781  18.559  0.00  0.00    +0.000 NA
ATOM     19  C   UNL     1       9.617  11.359  19.883  0.00  0.00    +0.000 C 
ATOM     20  C   UNL     1       9.272  12.842  19.862  0.00  0.00    +0.000 C 
ATOM     21  C   UNL     1      10.214  13.687  18.993  0.00  0.00    +0.000 C 
ATOM     22  C   UNL     1       9.539  15.020  18.642  0.00  0.00    +0.000 C 
ATOM     23  C   UNL     1      10.706  12.991  17.713  0.00  0.00    +0.000 C 
ATOM     24  C   UNL     1      10.838  11.469  17.808  0.00  0.00    +0.000 C 
ENDBRANCH  17  18
ENDBRANCH   4  17
TORSDOF 5
ENDMDL
MODEL 4
REMARK VINA RESULT:      -7.2      4.167      5.948
REMARK  Name = 
REMARK  7 active torsions:
REMARK  status: ('A' for Active; 'I' for Inactive)
REMARK    1  A    between atoms: C_1  and  C_2
REMARK    2  A    between atoms: C_5  and  C_6
REMARK    3  A    between atoms: C_6  and  N_7
REMARK    4  A    between atoms: C_8  and  C_10
REMARK    5  A    between atoms: C_13  and  C_14
REMARK    6  A    between atoms: C_14  and  N_15
REMARK    7  A    between atoms: C_18  and  C_19
REMARK                            x       y       z     vdW  Elec       q    Type
REMARK                         _______ _______ _______ _____ _____    ______ ____
ROOT
ATOM      1  C   UNL     1       2.555   7.169  18.899  0.00  0.00    +0.000 A 
ATOM      2  C   UNL     1       2.660   8.023  17.818  0.00  0.00    +0.000 A 
ATOM      3  C   UNL     1       1.956   9.195  18.147  0.00  0.00    +0.000 A 
ATOM      4  C   UNL     1       1.316   8.952  19.344  0.00  0.00    +0.000 A 
ATOM      5  O   UNL     1       1.724   7.730  19.841  0.00  0.00    +0.000 OA
ENDROOT
BRANCH   1   7
ATOM      6  N   UNL     1       4.586   5.903  19.229  0.00  0.00    +0.000 N 
ATOM      7  C   UNL     1       3.216   5.893  19.087  0.00  0.00    +0.000 C 
ATOM      8  O   UNL     1       2.600   4.827  19.053  0.00  0.00    +0.000 OA
ATOM      9  H   UNL     1       5.081   6.785  19.148  0.00  0.00    +0.000 HD
BRANCH   6  10
ATOM     10  C   UNL     1       5.302   4.656  19.068  0.00  0.00    +0.000 C 
BRANCH  10  15
ATOM     11  C   UNL     1       6.403   3.980  13.953  0.00  0.00    +0.000 C 
ATOM     12  C   UNL     1       6.424   4.247  15.414  0.00  0.00    +0.000 A 
ATOM     13  N   UNL     1       7.496   4.571  16.108  0.00  0.00    +0.000 NA
ATOM     14  N   UNL     1       7.220   4.747  17.450  0.00  0.00    +0.000 NA
ATOM     15  C   UNL     1       5.947   4.552  17.723  0.00  0.00    +0.000 A 
ATOM     16  S   UNL     1       4.987   4.149  16.346  0.00  0.00    +0.000 S 
ENDBRANCH  10  15
ENDBRANCH   6  10
ENDBRANCH   1   7
BRANCH   4  17
ATOM     17  C   UNL     1       0.343   9.764  20.137  0.00  0.00    +0.000 C 
BRANCH  17  18
ATOM     18  N   UNL     1       0.848  10.501  21.305  0.00  0.00    +0.000 NA
ATOM     19  C   UNL     1       0.493   9.955  22.607  0.00  0.00    +0.000 C 
ATOM     20  C   UNL     1      -0.902  10.348  23.075  0.00  0.00    +0.000 C 
ATOM     21  C   UNL     1      -1.185  11.854  22.991  0.00  0.00    +0.000 C 
ATOM     22  C   UNL     1      -2.700  12.100  23.008  0.00  0.00    +0.000 C 
ATOM     23  C   UNL     1      -0.548  12.562  21.783  0.00  0.00    +0.000 C 
ATOM     24  C   UNL     1       0.768  11.956  21.291  0.00  0.00    +0.000 C 
ENDBRANCH  17  18
ENDBRANCH   4  17
TORSDOF 5
ENDMDL
MODEL 5
REMARK VINA RESULT:      -7.0      3.694      7.412
REMARK  Name = 
REMARK  7 active torsions:
REMARK  status: ('A' for Active; 'I' for Inactive)
REMARK    1  A    between atoms: C_1  and  C_2
REMARK    2  A    between atoms: C_5  and  C_6
REMARK    3  A    between atoms: C_6  and  N_7
REMARK    4  A    between atoms: C_8  and  C_10
REMARK    5  A    between atoms: C_13  and  C_14
REMARK    6  A    between atoms: C_14  and  N_15
REMARK    7  A    between atoms: C_18  and  C_19
REMARK                            x       y       z     vdW  Elec       q    Type
REMARK                         _______ _______ _______ _____ _____    ______ ____
ROOT
ATOM      1  C   UNL     1       2.896   4.834  19.376  0.00  0.00    +0.000 A 
ATOM      2  C   UNL     1       3.783   3.873  19.821  0.00  0.00    +0.000 A 
ATOM      3  C   UNL     1       4.616   3.545  18.736  0.00  0.00    +0.000 A 
ATOM      4  C   UNL     1       4.106   4.196  17.632  0.00  0.00    +0.000 A 
ATOM      5  O   UNL     1       3.084   5.035  18.028  0.00  0.00    +0.000 OA
ENDROOT
BRANCH   1   7
ATOM      6  N   UNL     1       2.066   6.944  20.210  0.00  0.00    +0.000 N 
ATOM      7  C   UNL     1       1.926   5.575  20.157  0.00  0.00    +0.000 C 
ATOM      8  O   UNL     1       1.048   5.012  20.812  0.00  0.00    +0.000 OA
ATOM      9  H   UNL     1       2.860   7.374  19.746  0.00  0.00    +0.000 HD
BRANCH   6  10
ATOM     10  C   UNL     1       1.350   7.669  21.238  0.00  0.00    +0.000 C 
BRANCH  10  15
ATOM     11  C   UNL     1       0.758  12.334  18.847  0.00  0.00    +0.000 C 
ATOM     12  C   UNL     1       0.928  11.210  19.803  0.00  0.00    +0.000 A 
ATOM     13  N   UNL     1       1.048  11.340  21.108  0.00  0.00    +0.000 NA
ATOM     14  N   UNL     1       1.207  10.124  21.745  0.00  0.00    +0.000 NA
ATOM     15  C   UNL     1       1.200   9.117  20.897  0.00  0.00    +0.000 A 
ATOM     16  S   UNL     1       0.983   9.586  19.250  0.00  0.00    +0.000 S 
ENDBRANCH  10  15
ENDBRANCH   6  10
ENDBRANCH   1   7
BRANCH   4  17
ATOM     17  C   UNL     1       4.487   4.153  16.187  0.00  0.00    +0.000 C 
BRANCH  17  18
ATOM     18  N   UNL     1       5.566   5.040  15.730  0.00  0.00    +0.000 NA
ATOM     19  C   UNL     1       6.912   4.486  15.777  0.00  0.00    +0.000 C 
ATOM     20  C   UNL     1       7.556   4.560  17.155  0.00  0.00    +0.000 C 
ATOM     21  C   UNL     1       7.489   5.952  17.799  0.00  0.00    +0.000 C 
ATOM     22  C   UNL     1       7.704   5.835  19.314  0.00  0.00    +0.000 C 
ATOM     23  C   UNL     1       6.197   6.734  17.507  0.00  0.00    +0.000 C 
ATOM     24  C   UNL     1       5.542   6.433  16.157  0.00  0.00    +0.000 C 
ENDBRANCH  17  18
ENDBRANCH   4  17
TORSDOF 5
ENDMDL
MODEL 6
REMARK VINA RESULT:      -6.9      4.010      7.524
REMARK  Name = 
REMARK  7 active torsions:
REMARK  status: ('A' for Active; 'I' for Inactive)
REMARK    1  A    between atoms: C_1  and  C_2
REMARK    2  A    between atoms: C_5  and  C_6
REMARK    3  A    between atoms: C_6  and  N_7
REMARK    4  A    between atoms: C_8  and  C_10
REMARK    5  A    between atoms: C_13  and  C_14
REMARK    6  A    between atoms: C_14  and  N_15
REMARK    7  A    between atoms: C_18  and  C_19
REMARK                            x       y       z     vdW  Elec       q    Type
REMARK                         _______ _______ _______ _____ _____    ______ ____
ROOT
ATOM      1  C   UNL     1       2.937   4.973  19.384  0.00  0.00    +0.000 A 
ATOM      2  C   UNL     1       3.769   3.982  19.871  0.00  0.00    +0.000 A 
ATOM      3  C   UNL     1       4.584   3.566  18.803  0.00  0.00    +0.000 A 
ATOM      4  C   UNL     1       4.112   4.198  17.672  0.00  0.00    +0.000 A 
ATOM      5  O   UNL     1       3.137   5.108  18.030  0.00  0.00    +0.000 OA
ENDROOT
BRANCH   1   7
ATOM      6  N   UNL     1       2.201   7.160  20.099  0.00  0.00    +0.000 N 
ATOM      7  C   UNL     1       2.009   5.796  20.132  0.00  0.00    +0.000 C 
ATOM      8  O   UNL     1       1.120   5.309  20.832  0.00  0.00    +0.000 OA
ATOM      9  H   UNL     1       3.004   7.530  19.599  0.00  0.00    +0.000 HD
BRANCH   6  10
ATOM     10  C   UNL     1       1.530   7.973  21.090  0.00  0.00    +0.000 C 
BRANCH  10  15
ATOM     11  C   UNL     1      -1.371  12.262  20.079  0.00  0.00    +0.000 C 
ATOM     12  C   UNL     1      -0.461  11.088  20.038  0.00  0.00    +0.000 A 
ATOM     13  N   UNL     1       0.191  10.675  18.970  0.00  0.00    +0.000 NA
ATOM     14  N   UNL     1       0.952   9.549  19.223  0.00  0.00    +0.000 NA
ATOM     15  C   UNL     1       0.849   9.153  20.474  0.00  0.00    +0.000 A 
ATOM     16  S   UNL     1      -0.183  10.143  21.442  0.00  0.00    +0.000 S 
ENDBRANCH  10  15
ENDBRANCH   6  10
ENDBRANCH   1   7
BRANCH   4  17
ATOM     17  C   UNL     1       4.492   4.076  16.231  0.00  0.00    +0.000 C 
BRANCH  17  18
ATOM     18  N   UNL     1       5.531   4.976  15.711  0.00  0.00    +0.000 NA
ATOM     19  C   UNL     1       6.892   4.459  15.730  0.00  0.00    +0.000 C 
ATOM     20  C   UNL     1       7.579   4.593  17.083  0.00  0.00    +0.000 C 
ATOM     21  C   UNL     1       7.495   6.003  17.686  0.00  0.00    +0.000 C 
ATOM     22  C   UNL     1       7.762   5.939  19.196  0.00  0.00    +0.000 C 
ATOM     23  C   UNL     1       6.173   6.741  17.414  0.00  0.00    +0.000 C 
ATOM     24  C   UNL     1       5.483   6.381  16.096  0.00  0.00    +0.000 C 
ENDBRANCH  17  18
ENDBRANCH   4  17
TORSDOF 5
ENDMDL
MODEL 7
REMARK VINA RESULT:      -6.9      4.536      6.420
REMARK  Name = 
REMARK  7 active torsions:
REMARK  status: ('A' for Active; 'I' for Inactive)
REMARK    1  A    between atoms: C_1  and  C_2
REMARK    2  A    between atoms: C_5  and  C_6
REMARK    3  A    between atoms: C_6  and  N_7
REMARK    4  A    between atoms: C_8  and  C_10
REMARK    5  A    between atoms: C_13  and  C_14
REMARK    6  A    between atoms: C_14  and  N_15
REMARK    7  A    between atoms: C_18  and  C_19
REMARK                            x       y       z     vdW  Elec       q    Type
REMARK                         _______ _______ _______ _____ _____    ______ ____
ROOT
ATOM      1  C   UNL     1       2.393   7.177  19.142  0.00  0.00    +0.000 A 
ATOM      2  C   UNL     1       2.388   7.957  18.002  0.00  0.00    +0.000 A 
ATOM      3  C   UNL     1       1.807   9.190  18.347  0.00  0.00    +0.000 A 
ATOM      4  C   UNL     1       1.335   9.060  19.636  0.00  0.00    +0.000 A 
ATOM      5  O   UNL     1       1.741   7.846  20.152  0.00  0.00    +0.000 OA
ENDROOT
BRANCH   1   7
ATOM      6  N   UNL     1       4.365   5.829  19.506  0.00  0.00    +0.000 N 
ATOM      7  C   UNL     1       3.000   5.874  19.321  0.00  0.00    +0.000 C 
ATOM      8  O   UNL     1       2.348   4.832  19.244  0.00  0.00    +0.000 OA
ATOM      9  H   UNL     1       4.894   6.695  19.461  0.00  0.00    +0.000 HD
BRANCH   6  10
ATOM     10  C   UNL     1       5.040   4.560  19.339  0.00  0.00    +0.000 C 
BRANCH  10  15
ATOM     11  C   UNL     1       7.049   4.568  14.461  0.00  0.00    +0.000 C 
ATOM     12  C   UNL     1       6.811   4.562  15.927  0.00  0.00    +0.000 A 
ATOM     13  N   UNL     1       7.754   4.508  16.845  0.00  0.00    +0.000 NA
ATOM     14  N   UNL     1       7.239   4.502  18.128  0.00  0.00    +0.000 NA
ATOM     15  C   UNL     1       5.924   4.554  18.132  0.00  0.00    +0.000 A 
ATOM     16  S   UNL     1       5.217   4.627  16.559  0.00  0.00    +0.000 S 
ENDBRANCH  10  15
ENDBRANCH   6  10
ENDBRANCH   1   7
BRANCH   4  17
ATOM     17  C   UNL     1       0.535   9.981  20.502  0.00  0.00    +0.000 C 
BRANCH  17  18
ATOM     18  N   UNL     1       0.363  11.372  20.058  0.00  0.00    +0.000 NA
ATOM     19  C   UNL     1       0.620  12.398  21.059  0.00  0.00    +0.000 C 
ATOM     20  C   UNL     1      -0.555  12.646  21.996  0.00  0.00    +0.000 C 
ATOM     21  C   UNL     1      -1.890  12.875  21.273  0.00  0.00    +0.000 C 
ATOM     22  C   UNL     1      -3.054  12.635  22.243  0.00  0.00    +0.000 C 
ATOM     23  C   UNL     1      -2.082  12.036  19.998  0.00  0.00    +0.000 C 
ATOM     24  C   UNL     1      -0.797  11.697  19.239  0.00  0.00    +0.000 C 
ENDBRANCH  17  18
ENDBRANCH   4  17
TORSDOF 5
ENDMDL
MODEL 8
REMARK VINA RESULT:      -6.8      5.094      8.734
REMARK  Name = 
REMARK  7 active torsions:
REMARK  status: ('A' for Active; 'I' for Inactive)
REMARK    1  A    between atoms: C_1  and  C_2
REMARK    2  A    between atoms: C_5  and  C_6
REMARK    3  A    between atoms: C_6  and  N_7
REMARK    4  A    between atoms: C_8  and  C_10
REMARK    5  A    between atoms: C_13  and  C_14
REMARK    6  A    between atoms: C_14  and  N_15
REMARK    7  A    between atoms: C_18  and  C_19
REMARK                            x       y       z     vdW  Elec       q    Type
REMARK                         _______ _______ _______ _____ _____    ______ ____
ROOT
ATOM      1  C   UNL     1       6.935   6.963  17.535  0.00  0.00    +0.000 A 
ATOM      2  C   UNL     1       7.902   6.644  18.469  0.00  0.00    +0.000 A 
ATOM      3  C   UNL     1       8.558   7.840  18.811  0.00  0.00    +0.000 A 
ATOM      4  C   UNL     1       8.078   8.813  17.960  0.00  0.00    +0.000 A 
ATOM      5  O   UNL     1       7.040   8.296  17.212  0.00  0.00    +0.000 OA
ENDROOT
BRANCH   1   7
ATOM      6  N   UNL     1       4.716   6.013  17.637  0.00  0.00    +0.000 N 
ATOM      7  C   UNL     1       5.921   6.092  16.976  0.00  0.00    +0.000 C 
ATOM      8  O   UNL     1       6.138   5.388  15.988  0.00  0.00    +0.000 OA
ATOM      9  H   UNL     1       4.600   6.523  18.508  0.00  0.00    +0.000 HD
BRANCH   6  10
ATOM     10  C   UNL     1       3.828   4.915  17.320  0.00  0.00    +0.000 C 
BRANCH  10  15
ATOM     11  C   UNL     1       1.517   2.639  21.481  0.00  0.00    +0.000 C 
ATOM     12  C   UNL     1       2.432   3.085  20.399  0.00  0.00    +0.000 A 
ATOM     13  N   UNL     1       3.677   2.680  20.247  0.00  0.00    +0.000 NA
ATOM     14  N   UNL     1       4.293   3.273  19.162  0.00  0.00    +0.000 NA
ATOM     15  C   UNL     1       3.490   4.104  18.530  0.00  0.00    +0.000 A 
ATOM     16  S   UNL     1       1.909   4.211  19.214  0.00  0.00    +0.000 S 
ENDBRANCH  10  15
ENDBRANCH   6  10
ENDBRANCH   1   7
BRANCH   4  17
ATOM     17  C   UNL     1       8.466  10.244  17.764  0.00  0.00    +0.000 C 
BRANCH  17  18
ATOM     18  N   UNL     1       9.655  10.741  18.472  0.00  0.00    +0.000 NA
ATOM     19  C   UNL     1       9.410  11.407  19.743  0.00  0.00    +0.000 C 
ATOM     20  C   UNL     1       8.996  12.866  19.600  0.00  0.00    +0.000 C 
ATOM     21  C   UNL     1       9.921  13.689  18.693  0.00  0.00    +0.000 C 
ATOM     22  C   UNL     1       9.195  14.957  18.224  0.00  0.00    +0.000 C 
ATOM     23  C   UNL     1      10.484  12.924  17.484  0.00  0.00    +0.000 C 
ATOM     24  C   UNL     1      10.685  11.422  17.697  0.00  0.00    +0.000 C 
ENDBRANCH  17  18
ENDBRANCH   4  17
TORSDOF 5
ENDMDL
MODEL 9
REMARK VINA RESULT:      -6.7      4.625      7.244
REMARK  Name = 
REMARK  7 active torsions:
REMARK  status: ('A' for Active; 'I' for Inactive)
REMARK    1  A    between atoms: C_1  and  C_2
REMARK    2  A    between atoms: C_5  and  C_6
REMARK    3  A    between atoms: C_6  and  N_7
REMARK    4  A    between atoms: C_8  and  C_10
REMARK    5  A    between atoms: C_13  and  C_14
REMARK    6  A    between atoms: C_14  and  N_15
REMARK    7  A    between atoms: C_18  and  C_19
REMARK                            x       y       z     vdW  Elec       q    Type
REMARK                         _______ _______ _______ _____ _____    ______ ____
ROOT
ATOM      1  C   UNL     1       2.653   7.296  19.140  0.00  0.00    +0.000 A 
ATOM      2  C   UNL     1       3.038   7.592  17.847  0.00  0.00    +0.000 A 
ATOM      3  C   UNL     1       3.938   6.589  17.444  0.00  0.00    +0.000 A 
ATOM      4  C   UNL     1       4.192   5.813  18.556  0.00  0.00    +0.000 A 
ATOM      5  O   UNL     1       3.363   6.206  19.587  0.00  0.00    +0.000 OA
ENDROOT
BRANCH   1   7
ATOM      6  N   UNL     1       1.071   9.101  19.415  0.00  0.00    +0.000 N 
ATOM      7  C   UNL     1       1.645   7.964  19.939  0.00  0.00    +0.000 C 
ATOM      8  O   UNL     1       1.352   7.584  21.073  0.00  0.00    +0.000 OA
ATOM      9  H   UNL     1       1.406   9.453  18.522  0.00  0.00    +0.000 HD
BRANCH   6  10
ATOM     10  C   UNL     1       0.337   9.975  20.305  0.00  0.00    +0.000 C 
BRANCH  10  15
ATOM     11  C   UNL     1       2.681  14.600  19.333  0.00  0.00    +0.000 C 
ATOM     12  C   UNL     1       2.005  13.417  19.925  0.00  0.00    +0.000 A 
ATOM     13  N   UNL     1       1.700  13.280  21.199  0.00  0.00    +0.000 NA
ATOM     14  N   UNL     1       1.089  12.070  21.466  0.00  0.00    +0.000 NA
ATOM     15  C   UNL     1       0.951  11.336  20.382  0.00  0.00    +0.000 A 
ATOM     16  S   UNL     1       1.551  12.082  18.946  0.00  0.00    +0.000 S 
ENDBRANCH  10  15
ENDBRANCH   6  10
ENDBRANCH   1   7
BRANCH   4  17
ATOM     17  C   UNL     1       5.138   4.677  18.783  0.00  0.00    +0.000 C 
BRANCH  17  18
ATOM     18  N   UNL     1       4.616   3.308  18.664  0.00  0.00    +0.000 NA
ATOM     19  C   UNL     1       3.563   3.109  17.678  0.00  0.00    +0.000 C 
ATOM     20  C   UNL     1       2.178   3.499  18.175  0.00  0.00    +0.000 C 
ATOM     21  C   UNL     1       1.810   2.887  19.534  0.00  0.00    +0.000 C 
ATOM     22  C   UNL     1       0.661   3.682  20.168  0.00  0.00    +0.000 C 
ATOM     23  C   UNL     1       2.981   2.769  20.524  0.00  0.00    +0.000 C 
ATOM     24  C   UNL     1       4.356   2.560  19.887  0.00  0.00    +0.000 C 
ENDBRANCH  17  18
ENDBRANCH   4  17
TORSDOF 5
ENDMDL
