MODEL 1
REMARK VINA RESULT:      -7.7      0.000      0.000
REMARK  Name = 
REMARK  9 active torsions:
REMARK  status: ('A' for Active; 'I' for Inactive)
REMARK    1  A    between atoms: O_1  and  C_2
REMARK    2  A    between atoms: C_2  and  C_3
REMARK    3  A    between atoms: C_3  and  C_4
REMARK    4  A    between atoms: N_6  and  C_7
REMARK    5  A    between atoms: C_7  and  C_8
REMARK    6  A    between atoms: C_11  and  C_12
REMARK    7  A    between atoms: N_21  and  C_22
REMARK    8  A    between atoms: C_22  and  C_23
REMARK    9  A    between atoms: C_23  and  C_24
REMARK                            x       y       z     vdW  Elec       q    Type
REMARK                         _______ _______ _______ _____ _____    ______ ____
ROOT
ATOM      1  C   UNL     1       3.841   4.047  18.453  0.00  0.00    +0.000 C 
ATOM      2  C   UNL     1       2.725   4.930  17.813  0.00  0.00    +0.000 C 
ATOM      3  N   UNL     1       2.898   6.383  18.059  0.00  0.00    +0.000 NA
ATOM      4  C   UNL     1       4.269   6.778  17.664  0.00  0.00    +0.000 C 
ATOM      5  C   UNL     1       5.393   5.860  18.212  0.00  0.00    +0.000 C 
ATOM      6  N   UNL     1       5.200   4.415  17.930  0.00  0.00    +0.000 NA
ENDROOT
BRANCH   1   7
ATOM      7  C   UNL     1       3.519   2.537  18.417  0.00  0.00    +0.000 C 
BRANCH   7   8
ATOM      8  C   UNL     1       2.332   2.145  19.309  0.00  0.00    +0.000 C 
BRANCH   8   9
ATOM      9  O   UNL     1       1.285   1.577  18.533  0.00  0.00    +0.000 OA
ATOM     10  H   UNL     1       0.529   1.433  19.134  0.00  0.00    +0.000 HD
ENDBRANCH   8   9
ENDBRANCH   7   8
ENDBRANCH   1   7
BRANCH   3  11
ATOM     11  C   UNL     1       2.659   6.750  19.470  0.00  0.00    +0.000 C 
BRANCH  11  12
ATOM     12  C   UNL     1       1.836   7.987  19.642  0.00  0.00    +0.000 A 
ATOM     13  C   UNL     1       1.587   8.986  18.723  0.00  0.00    +0.000 A 
ATOM     14  N   UNL     1       0.805  10.030  19.169  0.00  0.00    +0.000 NA
ATOM     15  C   UNL     1       0.403   9.797  20.404  0.00  0.00    +0.000 A 
ATOM     16  S   UNL     1       1.021   8.345  21.102  0.00  0.00    +0.000 S 
BRANCH  15  17
ATOM     17  C   UNL     1      -0.485  10.693  21.162  0.00  0.00    +0.000 A 
ATOM     18  C   UNL     1      -0.676  10.572  22.549  0.00  0.00    +0.000 A 
ATOM     19  C   UNL     1      -1.560  11.416  23.223  0.00  0.00    +0.000 A 
ATOM     20  C   UNL     1      -2.265  12.392  22.523  0.00  0.00    +0.000 A 
ATOM     21  C   UNL     1      -2.087  12.528  21.149  0.00  0.00    +0.000 A 
ATOM     22  C   UNL     1      -1.206  11.682  20.475  0.00  0.00    +0.000 A 
ENDBRANCH  15  17
ENDBRANCH  11  12
ENDBRANCH   3  11
BRANCH   6  23
ATOM     23  C   UNL     1       5.384   4.106  16.493  0.00  0.00    +0.000 C 
BRANCH  23  24
ATOM     24  C   UNL     1       6.777   4.485  15.946  0.00  0.00    +0.000 C 
BRANCH  24  25
ATOM     25  C   UNL     1       6.830   4.386  14.440  0.00  0.00    +0.000 A 
ATOM     26  C   UNL     1       7.659   5.242  13.701  0.00  0.00    +0.000 A 
ATOM     27  C   UNL     1       7.695   5.161  12.307  0.00  0.00    +0.000 A 
ATOM     28  C   UNL     1       6.899   4.228  11.644  0.00  0.00    +0.000 A 
ATOM     29  C   UNL     1       6.071   3.375  12.371  0.00  0.00    +0.000 A 
ATOM     30  C   UNL     1       6.035   3.454  13.764  0.00  0.00    +0.000 A 
ENDBRANCH  24  25
ENDBRANCH  23  24
ENDBRANCH   6  23
TORSDOF 9
ENDMDL
MODEL 2
REMARK VINA RESULT:      -7.4      1.170      1.380
REMARK  Name = 
REMARK  9 active torsions:
REMARK  status: ('A' for Active; 'I' for Inactive)
REMARK    1  A    between atoms: O_1  and  C_2
REMARK    2  A    between atoms: C_2  and  C_3
REMARK    3  A    between atoms: C_3  and  C_4
REMARK    4  A    between atoms: N_6  and  C_7
REMARK    5  A    between atoms: C_7  and  C_8
REMARK    6  A    between atoms: C_11  and  C_12
REMARK    7  A    between atoms: N_21  and  C_22
REMARK    8  A    between atoms: C_22  and  C_23
REMARK    9  A    between atoms: C_23  and  C_24
REMARK                            x       y       z     vdW  Elec       q    Type
REMARK                         _______ _______ _______ _____ _____    ______ ____
ROOT
ATOM      1  C   UNL     1       3.864   4.443  18.523  0.00  0.00    +0.000 C 
ATOM      2  C   UNL     1       2.462   5.012  18.143  0.00  0.00    +0.000 C 
ATOM      3  N   UNL     1       2.369   6.489  18.248  0.00  0.00    +0.000 NA
ATOM      4  C   UNL     1       3.484   7.097  17.487  0.00  0.00    +0.000 C 
ATOM      5  C   UNL     1       4.879   6.484  17.778  0.00  0.00    +0.000 C 
ATOM      6  N   UNL     1       4.943   5.006  17.644  0.00  0.00    +0.000 NA
ENDROOT
BRANCH   1   7
ATOM      7  C   UNL     1       3.878   2.904  18.663  0.00  0.00    +0.000 C 
BRANCH   7   8
ATOM      8  C   UNL     1       4.120   2.425  20.102  0.00  0.00    +0.000 C 
BRANCH   8   9
ATOM      9  O   UNL     1       5.245   1.557  20.161  0.00  0.00    +0.000 OA
ATOM     10  H   UNL     1       4.948   0.683  19.844  0.00  0.00    +0.000 HD
ENDBRANCH   8   9
ENDBRANCH   7   8
ENDBRANCH   1   7
BRANCH   3  11
ATOM     11  C   UNL     1       2.403   6.961  19.648  0.00  0.00    +0.000 C 
BRANCH  11  12
ATOM     12  C   UNL     1       1.719   8.273  19.861  0.00  0.00    +0.000 A 
ATOM     13  C   UNL     1       1.427   9.249  18.931  0.00  0.00    +0.000 A 
ATOM     14  N   UNL     1       0.805  10.378  19.420  0.00  0.00    +0.000 NA
ATOM     15  C   UNL     1       0.562  10.236  20.710  0.00  0.00    +0.000 A 
ATOM     16  S   UNL     1       1.148   8.765  21.396  0.00  0.00    +0.000 S 
BRANCH  15  17
ATOM     17  C   UNL     1      -0.133  11.240  21.531  0.00  0.00    +0.000 A 
ATOM     18  C   UNL     1       0.149  12.614  21.444  0.00  0.00    +0.000 A 
ATOM     19  C   UNL     1      -0.504  13.529  22.272  0.00  0.00    +0.000 A 
ATOM     20  C   UNL     1      -1.447  13.086  23.196  0.00  0.00    +0.000 A 
ATOM     21  C   UNL     1      -1.741  11.729  23.295  0.00  0.00    +0.000 A 
ATOM     22  C   UNL     1      -1.086  10.814  22.470  0.00  0.00    +0.000 A 
ENDBRANCH  15  17
ENDBRANCH  11  12
ENDBRANCH   3  11
BRANCH   6  23
ATOM     23  C   UNL     1       4.837   4.578  16.230  0.00  0.00    +0.000 C 
BRANCH  23  24
ATOM     24  C   UNL     1       5.985   3.653  15.770  0.00  0.00    +0.000 C 
BRANCH  24  25
ATOM     25  C   UNL     1       6.449   3.993  14.375  0.00  0.00    +0.000 A 
ATOM     26  C   UNL     1       7.396   5.007  14.168  0.00  0.00    +0.000 A 
ATOM     27  C   UNL     1       7.812   5.334  12.876  0.00  0.00    +0.000 A 
ATOM     28  C   UNL     1       7.282   4.651  11.781  0.00  0.00    +0.000 A 
ATOM     29  C   UNL     1       6.340   3.643  11.978  0.00  0.00    +0.000 A 
ATOM     30  C   UNL     1       5.924   3.316  13.269  0.00  0.00    +0.000 A 
ENDBRANCH  24  25
ENDBRANCH  23  24
ENDBRANCH   6  23
TORSDOF 9
ENDMDL
MODEL 3
REMARK VINA RESULT:      -7.4      0.525      1.037
REMARK  Name = 
REMARK  9 active torsions:
REMARK  status: ('A' for Active; 'I' for Inactive)
REMARK    1  A    between atoms: O_1  and  C_2
REMARK    2  A    between atoms: C_2  and  C_3
REMARK    3  A    between atoms: C_3  and  C_4
REMARK    4  A    between atoms: N_6  and  C_7
REMARK    5  A    between atoms: C_7  and  C_8
REMARK    6  A    between atoms: C_11  and  C_12
REMARK    7  A    between atoms: N_21  and  C_22
REMARK    8  A    between atoms: C_22  and  C_23
REMARK    9  A    between atoms: C_23  and  C_24
REMARK                            x       y       z     vdW  Elec       q    Type
REMARK                         _______ _______ _______ _____ _____    ______ ____
ROOT
ATOM      1  C   UNL     1       4.046   4.524  18.555  0.00  0.00    +0.000 C 
ATOM      2  C   UNL     1       2.733   5.142  17.983  0.00  0.00    +0.000 C 
ATOM      3  N   UNL     1       2.656   6.617  18.123  0.00  0.00    +0.000 NA
ATOM      4  C   UNL     1       3.888   7.218  17.564  0.00  0.00    +0.000 C 
ATOM      5  C   UNL     1       5.209   6.559  18.046  0.00  0.00    +0.000 C 
ATOM      6  N   UNL     1       5.260   5.085  17.872  0.00  0.00    +0.000 NA
ENDROOT
BRANCH   1   7
ATOM      7  C   UNL     1       4.006   2.982  18.643  0.00  0.00    +0.000 C 
BRANCH   7   8
ATOM      8  C   UNL     1       2.853   2.355  17.844  0.00  0.00    +0.000 C 
BRANCH   8   9
ATOM      9  O   UNL     1       2.209   1.340  18.603  0.00  0.00    +0.000 OA
ATOM     10  H   UNL     1       1.261   1.570  18.641  0.00  0.00    +0.000 HD
ENDBRANCH   8   9
ENDBRANCH   7   8
ENDBRANCH   1   7
BRANCH   3  11
ATOM     11  C   UNL     1       2.484   7.044  19.527  0.00  0.00    +0.000 C 
BRANCH  11  12
ATOM     12  C   UNL     1       1.644   8.271  19.687  0.00  0.00    +0.000 A 
ATOM     13  C   UNL     1       1.363   9.246  18.752  0.00  0.00    +0.000 A 
ATOM     14  N   UNL     1       0.572  10.286  19.189  0.00  0.00    +0.000 NA
ATOM     15  C   UNL     1       0.194  10.073  20.435  0.00  0.00    +0.000 A 
ATOM     16  S   UNL     1       0.846   8.646  21.152  0.00  0.00    +0.000 S 
BRANCH  15  17
ATOM     17  C   UNL     1      -0.696  10.970  21.189  0.00  0.00    +0.000 A 
ATOM     18  C   UNL     1      -0.903  10.842  22.573  0.00  0.00    +0.000 A 
ATOM     19  C   UNL     1      -1.789  11.687  23.243  0.00  0.00    +0.000 A 
ATOM     20  C   UNL     1      -2.480  12.672  22.541  0.00  0.00    +0.000 A 
ATOM     21  C   UNL     1      -2.286  12.816  21.171  0.00  0.00    +0.000 A 
ATOM     22  C   UNL     1      -1.403  11.968  20.500  0.00  0.00    +0.000 A 
ENDBRANCH  15  17
ENDBRANCH  11  12
ENDBRANCH   3  11
BRANCH   6  23
ATOM     23  C   UNL     1       5.365   4.703  16.445  0.00  0.00    +0.000 C 
BRANCH  23  24
ATOM     24  C   UNL     1       6.765   4.937  15.837  0.00  0.00    +0.000 C 
BRANCH  24  25
ATOM     25  C   UNL     1       6.794   4.614  14.363  0.00  0.00    +0.000 A 
ATOM     26  C   UNL     1       5.962   3.615  13.838  0.00  0.00    +0.000 A 
ATOM     27  C   UNL     1       6.002   3.305  12.477  0.00  0.00    +0.000 A 
ATOM     28  C   UNL     1       6.876   3.989  11.633  0.00  0.00    +0.000 A 
ATOM     29  C   UNL     1       7.707   4.982  12.147  0.00  0.00    +0.000 A 
ATOM     30  C   UNL     1       7.668   5.293  13.506  0.00  0.00    +0.000 A 
ENDBRANCH  24  25
ENDBRANCH  23  24
ENDBRANCH   6  23
TORSDOF 9
ENDMDL
MODEL 4
REMARK VINA RESULT:      -7.4      1.572      1.998
REMARK  Name = 
REMARK  9 active torsions:
REMARK  status: ('A' for Active; 'I' for Inactive)
REMARK    1  A    between atoms: O_1  and  C_2
REMARK    2  A    between atoms: C_2  and  C_3
REMARK    3  A    between atoms: C_3  and  C_4
REMARK    4  A    between atoms: N_6  and  C_7
REMARK    5  A    between atoms: C_7  and  C_8
REMARK    6  A    between atoms: C_11  and  C_12
REMARK    7  A    between atoms: N_21  and  C_22
REMARK    8  A    between atoms: C_22  and  C_23
REMARK    9  A    between atoms: C_23  and  C_24
REMARK                            x       y       z     vdW  Elec       q    Type
REMARK                         _______ _______ _______ _____ _____    ______ ____
ROOT
ATOM      1  C   UNL     1       3.372   3.760  18.420  0.00  0.00    +0.000 C 
ATOM      2  C   UNL     1       2.332   4.790  17.881  0.00  0.00    +0.000 C 
ATOM      3  N   UNL     1       2.639   6.195  18.246  0.00  0.00    +0.000 NA
ATOM      4  C   UNL     1       4.034   6.500  17.857  0.00  0.00    +0.000 C 
ATOM      5  C   UNL     1       5.079   5.441  18.300  0.00  0.00    +0.000 C 
ATOM      6  N   UNL     1       4.751   4.049  17.901  0.00  0.00    +0.000 NA
ENDROOT
BRANCH   1   7
ATOM      7  C   UNL     1       2.914   2.293  18.263  0.00  0.00    +0.000 C 
BRANCH   7   8
ATOM      8  C   UNL     1       3.928   1.275  18.806  0.00  0.00    +0.000 C 
BRANCH   8   9
ATOM      9  O   UNL     1       4.856   1.907  19.678  0.00  0.00    +0.000 OA
ATOM     10  H   UNL     1       5.653   2.106  19.150  0.00  0.00    +0.000 HD
ENDBRANCH   8   9
ENDBRANCH   7   8
ENDBRANCH   1   7
BRANCH   3  11
ATOM     11  C   UNL     1       2.453   6.459  19.689  0.00  0.00    +0.000 C 
BRANCH  11  12
ATOM     12  C   UNL     1       1.797   7.770  19.984  0.00  0.00    +0.000 A 
ATOM     13  C   UNL     1       1.238   8.201  21.170  0.00  0.00    +0.000 A 
ATOM     14  N   UNL     1       0.677   9.459  21.146  0.00  0.00    +0.000 NA
ATOM     15  C   UNL     1       0.865  10.015  19.964  0.00  0.00    +0.000 A 
ATOM     16  S   UNL     1       1.658   9.005  18.811  0.00  0.00    +0.000 S 
BRANCH  15  17
ATOM     17  C   UNL     1       0.429  11.377  19.617  0.00  0.00    +0.000 A 
ATOM     18  C   UNL     1      -0.851  11.864  19.931  0.00  0.00    +0.000 A 
ATOM     19  C   UNL     1      -1.239  13.149  19.546  0.00  0.00    +0.000 A 
ATOM     20  C   UNL     1      -0.356  13.964  18.843  0.00  0.00    +0.000 A 
ATOM     21  C   UNL     1       0.917  13.499  18.524  0.00  0.00    +0.000 A 
ATOM     22  C   UNL     1       1.304  12.214  18.906  0.00  0.00    +0.000 A 
ENDBRANCH  15  17
ENDBRANCH  11  12
ENDBRANCH   3  11
BRANCH   6  23
ATOM     23  C   UNL     1       4.887   3.850  16.439  0.00  0.00    +0.000 C 
BRANCH  23  24
ATOM     24  C   UNL     1       5.591   5.017  15.713  0.00  0.00    +0.000 C 
BRANCH  24  25
ATOM     25  C   UNL     1       6.106   4.599  14.357  0.00  0.00    +0.000 A 
ATOM     26  C   UNL     1       7.317   5.110  13.868  0.00  0.00    +0.000 A 
ATOM     27  C   UNL     1       7.783   4.737  12.606  0.00  0.00    +0.000 A 
ATOM     28  C   UNL     1       7.041   3.855  11.823  0.00  0.00    +0.000 A 
ATOM     29  C   UNL     1       5.835   3.344  12.300  0.00  0.00    +0.000 A 
ATOM     30  C   UNL     1       5.368   3.716  13.561  0.00  0.00    +0.000 A 
ENDBRANCH  24  25
ENDBRANCH  23  24
ENDBRANCH   6  23
TORSDOF 9
ENDMDL
MODEL 5
REMARK VINA RESULT:      -7.3      1.484      2.037
REMARK  Name = 
REMARK  9 active torsions:
REMARK  status: ('A' for Active; 'I' for Inactive)
REMARK    1  A    between atoms: O_1  and  C_2
REMARK    2  A    between atoms: C_2  and  C_3
REMARK    3  A    between atoms: C_3  and  C_4
REMARK    4  A    between atoms: N_6  and  C_7
REMARK    5  A    between atoms: C_7  and  C_8
REMARK    6  A    between atoms: C_11  and  C_12
REMARK    7  A    between atoms: N_21  and  C_22
REMARK    8  A    between atoms: C_22  and  C_23
REMARK    9  A    between atoms: C_23  and  C_24
REMARK                            x       y       z     vdW  Elec       q    Type
REMARK                         _______ _______ _______ _____ _____    ______ ____
ROOT
ATOM      1  C   UNL     1       3.584   3.881  18.402  0.00  0.00    +0.000 C 
ATOM      2  C   UNL     1       2.518   4.880  17.854  0.00  0.00    +0.000 C 
ATOM      3  N   UNL     1       2.740   6.283  18.280  0.00  0.00    +0.000 NA
ATOM      4  C   UNL     1       4.134   6.668  17.962  0.00  0.00    +0.000 C 
ATOM      5  C   UNL     1       5.209   5.645  18.415  0.00  0.00    +0.000 C 
ATOM      6  N   UNL     1       4.968   4.254  17.954  0.00  0.00    +0.000 NA
ENDROOT
BRANCH   1   7
ATOM      7  C   UNL     1       3.206   2.400  18.174  0.00  0.00    +0.000 C 
BRANCH   7   8
ATOM      8  C   UNL     1       2.165   1.876  19.175  0.00  0.00    +0.000 C 
BRANCH   8   9
ATOM      9  O   UNL     1       0.896   1.731  18.551  0.00  0.00    +0.000 OA
ATOM     10  H   UNL     1       0.392   2.546  18.737  0.00  0.00    +0.000 HD
ENDBRANCH   8   9
ENDBRANCH   7   8
ENDBRANCH   1   7
BRANCH   3  11
ATOM     11  C   UNL     1       2.481   6.485  19.721  0.00  0.00    +0.000 C 
BRANCH  11  12
ATOM     12  C   UNL     1       1.814   7.785  20.039  0.00  0.00    +0.000 A 
ATOM     13  C   UNL     1       1.319   8.220  21.252  0.00  0.00    +0.000 A 
ATOM     14  N   UNL     1       0.728   9.466  21.246  0.00  0.00    +0.000 NA
ATOM     15  C   UNL     1       0.830  10.008  20.047  0.00  0.00    +0.000 A 
ATOM     16  S   UNL     1       1.574   9.000  18.861  0.00  0.00    +0.000 S 
BRANCH  15  17
ATOM     17  C   UNL     1       0.342  11.354  19.710  0.00  0.00    +0.000 A 
ATOM     18  C   UNL     1      -0.379  11.625  18.535  0.00  0.00    +0.000 A 
ATOM     19  C   UNL     1      -0.787  12.925  18.232  0.00  0.00    +0.000 A 
ATOM     20  C   UNL     1      -0.482  13.972  19.097  0.00  0.00    +0.000 A 
ATOM     21  C   UNL     1       0.230  13.724  20.268  0.00  0.00    +0.000 A 
ATOM     22  C   UNL     1       0.641  12.424  20.568  0.00  0.00    +0.000 A 
ENDBRANCH  15  17
ENDBRANCH  11  12
ENDBRANCH   3  11
BRANCH   6  23
ATOM     23  C   UNL     1       5.174   4.116  16.493  0.00  0.00    +0.000 C 
BRANCH  23  24
ATOM     24  C   UNL     1       6.423   4.856  15.966  0.00  0.00    +0.000 C 
BRANCH  24  25
ATOM     25  C   UNL     1       6.631   4.616  14.490  0.00  0.00    +0.000 A 
ATOM     26  C   UNL     1       5.824   3.701  13.798  0.00  0.00    +0.000 A 
ATOM     27  C   UNL     1       6.029   3.466  12.437  0.00  0.00    +0.000 A 
ATOM     28  C   UNL     1       7.043   4.141  11.760  0.00  0.00    +0.000 A 
ATOM     29  C   UNL     1       7.851   5.051  12.440  0.00  0.00    +0.000 A 
ATOM     30  C   UNL     1       7.647   5.286  13.800  0.00  0.00    +0.000 A 
ENDBRANCH  24  25
ENDBRANCH  23  24
ENDBRANCH   6  23
TORSDOF 9
ENDMDL
MODEL 6
REMARK VINA RESULT:      -7.3      1.298      1.511
REMARK  Name = 
REMARK  9 active torsions:
REMARK  status: ('A' for Active; 'I' for Inactive)
REMARK    1  A    between atoms: O_1  and  C_2
REMARK    2  A    between atoms: C_2  and  C_3
REMARK    3  A    between atoms: C_3  and  C_4
REMARK    4  A    between atoms: N_6  and  C_7
REMARK    5  A    between atoms: C_7  and  C_8
REMARK    6  A    between atoms: C_11  and  C_12
REMARK    7  A    between atoms: N_21  and  C_22
REMARK    8  A    between atoms: C_22  and  C_23
REMARK    9  A    between atoms: C_23  and  C_24
REMARK                            x       y       z     vdW  Elec       q    Type
REMARK                         _______ _______ _______ _____ _____    ______ ____
ROOT
ATOM      1  C   UNL     1       3.539   4.062  18.285  0.00  0.00    +0.000 C 
ATOM      2  C   UNL     1       2.424   5.088  17.911  0.00  0.00    +0.000 C 
ATOM      3  N   UNL     1       2.717   6.474  18.351  0.00  0.00    +0.000 NA
ATOM      4  C   UNL     1       4.063   6.858  17.871  0.00  0.00    +0.000 C 
ATOM      5  C   UNL     1       5.174   5.810  18.147  0.00  0.00    +0.000 C 
ATOM      6  N   UNL     1       4.858   4.438  17.675  0.00  0.00    +0.000 NA
ENDROOT
BRANCH   1   7
ATOM      7  C   UNL     1       3.115   2.593  18.059  0.00  0.00    +0.000 C 
BRANCH   7   8
ATOM      8  C   UNL     1       3.847   1.599  18.973  0.00  0.00    +0.000 C 
BRANCH   8   9
ATOM      9  O   UNL     1       4.974   2.215  19.584  0.00  0.00    +0.000 OA
ATOM     10  H   UNL     1       5.733   2.076  18.986  0.00  0.00    +0.000 HD
ENDBRANCH   8   9
ENDBRANCH   7   8
ENDBRANCH   1   7
BRANCH   3  11
ATOM     11  C   UNL     1       2.647   6.628  19.820  0.00  0.00    +0.000 C 
BRANCH  11  12
ATOM     12  C   UNL     1       1.670   7.665  20.274  0.00  0.00    +0.000 A 
ATOM     13  C   UNL     1       0.958   7.714  21.455  0.00  0.00    +0.000 A 
ATOM     14  N   UNL     1       0.103   8.786  21.596  0.00  0.00    +0.000 NA
ATOM     15  C   UNL     1       0.212   9.590  20.555  0.00  0.00    +0.000 A 
ATOM     16  S   UNL     1       1.293   9.039  19.328  0.00  0.00    +0.000 S 
BRANCH  15  17
ATOM     17  C   UNL     1      -0.530  10.853  20.410  0.00  0.00    +0.000 A 
ATOM     18  C   UNL     1      -0.772  11.715  21.493  0.00  0.00    +0.000 A 
ATOM     19  C   UNL     1      -1.517  12.884  21.321  0.00  0.00    +0.000 A 
ATOM     20  C   UNL     1      -2.029  13.207  20.067  0.00  0.00    +0.000 A 
ATOM     21  C   UNL     1      -1.797  12.366  18.982  0.00  0.00    +0.000 A 
ATOM     22  C   UNL     1      -1.056  11.196  19.155  0.00  0.00    +0.000 A 
ENDBRANCH  15  17
ENDBRANCH  11  12
ENDBRANCH   3  11
BRANCH   6  23
ATOM     23  C   UNL     1       4.874   4.348  16.197  0.00  0.00    +0.000 C 
BRANCH  23  24
ATOM     24  C   UNL     1       6.012   5.154  15.534  0.00  0.00    +0.000 C 
BRANCH  24  25
ATOM     25  C   UNL     1       6.327   4.639  14.150  0.00  0.00    +0.000 A 
ATOM     26  C   UNL     1       7.432   5.134  13.442  0.00  0.00    +0.000 A 
ATOM     27  C   UNL     1       7.712   4.670  12.156  0.00  0.00    +0.000 A 
ATOM     28  C   UNL     1       6.889   3.710  11.567  0.00  0.00    +0.000 A 
ATOM     29  C   UNL     1       5.788   3.215  12.263  0.00  0.00    +0.000 A 
ATOM     30  C   UNL     1       5.507   3.678  13.549  0.00  0.00    +0.000 A 
ENDBRANCH  24  25
ENDBRANCH  23  24
ENDBRANCH   6  23
TORSDOF 9
ENDMDL
MODEL 7
REMARK VINA RESULT:      -7.1      1.047      1.648
REMARK  Name = 
REMARK  9 active torsions:
REMARK  status: ('A' for Active; 'I' for Inactive)
REMARK    1  A    between atoms: O_1  and  C_2
REMARK    2  A    between atoms: C_2  and  C_3
REMARK    3  A    between atoms: C_3  and  C_4
REMARK    4  A    between atoms: N_6  and  C_7
REMARK    5  A    between atoms: C_7  and  C_8
REMARK    6  A    between atoms: C_11  and  C_12
REMARK    7  A    between atoms: N_21  and  C_22
REMARK    8  A    between atoms: C_22  and  C_23
REMARK    9  A    between atoms: C_23  and  C_24
REMARK                            x       y       z     vdW  Elec       q    Type
REMARK                         _______ _______ _______ _____ _____    ______ ____
ROOT
ATOM      1  C   UNL     1       4.127   4.789  18.568  0.00  0.00    +0.000 C 
ATOM      2  C   UNL     1       2.750   5.296  18.038  0.00  0.00    +0.000 C 
ATOM      3  N   UNL     1       2.572   6.765  18.145  0.00  0.00    +0.000 NA
ATOM      4  C   UNL     1       3.734   7.437  17.520  0.00  0.00    +0.000 C 
ATOM      5  C   UNL     1       5.117   6.887  17.960  0.00  0.00    +0.000 C 
ATOM      6  N   UNL     1       5.268   5.416  17.820  0.00  0.00    +0.000 NA
ENDROOT
BRANCH   1   7
ATOM      7  C   UNL     1       4.202   3.251  18.695  0.00  0.00    +0.000 C 
BRANCH   7   8
ATOM      8  C   UNL     1       4.449   2.768  20.132  0.00  0.00    +0.000 C 
BRANCH   8   9
ATOM      9  O   UNL     1       5.145   1.528  20.133  0.00  0.00    +0.000 OA
ATOM     10  H   UNL     1       5.819   1.581  20.837  0.00  0.00    +0.000 HD
ENDBRANCH   8   9
ENDBRANCH   7   8
ENDBRANCH   1   7
BRANCH   3  11
ATOM     11  C   UNL     1       2.427   7.217  19.545  0.00  0.00    +0.000 C 
BRANCH  11  12
ATOM     12  C   UNL     1       1.554   8.420  19.705  0.00  0.00    +0.000 A 
ATOM     13  C   UNL     1       1.209   9.361  18.756  0.00  0.00    +0.000 A 
ATOM     14  N   UNL     1       0.399  10.387  19.195  0.00  0.00    +0.000 NA
ATOM     15  C   UNL     1       0.072  10.194  20.459  0.00  0.00    +0.000 A 
ATOM     16  S   UNL     1       0.796   8.807  21.188  0.00  0.00    +0.000 S 
BRANCH  15  17
ATOM     17  C   UNL     1      -0.820  11.081  21.222  0.00  0.00    +0.000 A 
ATOM     18  C   UNL     1      -1.555  12.115  20.618  0.00  0.00    +0.000 A 
ATOM     19  C   UNL     1      -2.358  12.961  21.385  0.00  0.00    +0.000 A 
ATOM     20  C   UNL     1      -2.437  12.787  22.764  0.00  0.00    +0.000 A 
ATOM     21  C   UNL     1      -1.718  11.768  23.381  0.00  0.00    +0.000 A 
ATOM     22  C   UNL     1      -0.913  10.924  22.614  0.00  0.00    +0.000 A 
ENDBRANCH  15  17
ENDBRANCH  11  12
ENDBRANCH   3  11
BRANCH   6  23
ATOM     23  C   UNL     1       5.342   5.005  16.400  0.00  0.00    +0.000 C 
BRANCH  23  24
ATOM     24  C   UNL     1       6.774   4.695  15.913  0.00  0.00    +0.000 C 
BRANCH  24  25
ATOM     25  C   UNL     1       6.822   4.488  14.418  0.00  0.00    +0.000 A 
ATOM     26  C   UNL     1       6.012   3.518  13.809  0.00  0.00    +0.000 A 
ATOM     27  C   UNL     1       6.070   3.315  12.429  0.00  0.00    +0.000 A 
ATOM     28  C   UNL     1       6.940   4.076  11.649  0.00  0.00    +0.000 A 
ATOM     29  C   UNL     1       7.749   5.041  12.247  0.00  0.00    +0.000 A 
ATOM     30  C   UNL     1       7.692   5.245  13.626  0.00  0.00    +0.000 A 
ENDBRANCH  24  25
ENDBRANCH  23  24
ENDBRANCH   6  23
TORSDOF 9
ENDMDL
MODEL 8
REMARK VINA RESULT:      -7.1      4.217     10.901
REMARK  Name = 
REMARK  9 active torsions:
REMARK  status: ('A' for Active; 'I' for Inactive)
REMARK    1  A    between atoms: O_1  and  C_2
REMARK    2  A    between atoms: C_2  and  C_3
REMARK    3  A    between atoms: C_3  and  C_4
REMARK    4  A    between atoms: N_6  and  C_7
REMARK    5  A    between atoms: C_7  and  C_8
REMARK    6  A    between atoms: C_11  and  C_12
REMARK    7  A    between atoms: N_21  and  C_22
REMARK    8  A    between atoms: C_22  and  C_23
REMARK    9  A    between atoms: C_23  and  C_24
REMARK                            x       y       z     vdW  Elec       q    Type
REMARK                         _______ _______ _______ _____ _____    ______ ____
ROOT
ATOM      1  C   UNL     1      -1.758  10.665  18.249  0.00  0.00    +0.000 C 
ATOM      2  C   UNL     1      -1.178   9.900  19.479  0.00  0.00    +0.000 C 
ATOM      3  N   UNL     1       0.040  10.525  20.051  0.00  0.00    +0.000 NA
ATOM      4  C   UNL     1      -0.232  11.955  20.316  0.00  0.00    +0.000 C 
ATOM      5  C   UNL     1      -0.897  12.719  19.140  0.00  0.00    +0.000 C 
ATOM      6  N   UNL     1      -2.125  12.078  18.605  0.00  0.00    +0.000 NA
ENDROOT
BRANCH   1   7
ATOM      7  C   UNL     1      -2.859   9.877  17.505  0.00  0.00    +0.000 C 
BRANCH   7   8
ATOM      8  C   UNL     1      -2.965  10.235  16.016  0.00  0.00    +0.000 C 
BRANCH   8   9
ATOM      9  O   UNL     1      -2.411  11.521  15.767  0.00  0.00    +0.000 OA
ATOM     10  H   UNL     1      -3.158  12.127  15.604  0.00  0.00    +0.000 HD
ENDBRANCH   8   9
ENDBRANCH   7   8
ENDBRANCH   1   7
BRANCH   3  11
ATOM     11  C   UNL     1       1.214  10.395  19.162  0.00  0.00    +0.000 C 
BRANCH  11  12
ATOM     12  C   UNL     1       1.715   8.993  19.023  0.00  0.00    +0.000 A 
ATOM     13  C   UNL     1       2.297   8.396  17.923  0.00  0.00    +0.000 A 
ATOM     14  N   UNL     1       2.644   7.070  18.074  0.00  0.00    +0.000 NA
ATOM     15  C   UNL     1       2.388   6.675  19.307  0.00  0.00    +0.000 A 
ATOM     16  S   UNL     1       1.645   7.868  20.308  0.00  0.00    +0.000 S 
BRANCH  15  17
ATOM     17  C   UNL     1       2.683   5.325  19.815  0.00  0.00    +0.000 A 
ATOM     18  C   UNL     1       3.660   4.497  19.238  0.00  0.00    +0.000 A 
ATOM     19  C   UNL     1       3.879   3.206  19.725  0.00  0.00    +0.000 A 
ATOM     20  C   UNL     1       3.126   2.726  20.793  0.00  0.00    +0.000 A 
ATOM     21  C   UNL     1       2.155   3.533  21.380  0.00  0.00    +0.000 A 
ATOM     22  C   UNL     1       1.934   4.822  20.891  0.00  0.00    +0.000 A 
ENDBRANCH  15  17
ENDBRANCH  11  12
ENDBRANCH   3  11
BRANCH   6  23
ATOM     23  C   UNL     1      -3.254  12.174  19.558  0.00  0.00    +0.000 C 
BRANCH  23  24
ATOM     24  C   UNL     1      -3.216  13.435  20.447  0.00  0.00    +0.000 C 
BRANCH  24  25
ATOM     25  C   UNL     1      -3.782  13.166  21.820  0.00  0.00    +0.000 A 
ATOM     26  C   UNL     1      -2.988  12.574  22.813  0.00  0.00    +0.000 A 
ATOM     27  C   UNL     1      -3.517  12.309  24.077  0.00  0.00    +0.000 A 
ATOM     28  C   UNL     1      -4.845  12.632  24.357  0.00  0.00    +0.000 A 
ATOM     29  C   UNL     1      -5.641  13.219  23.376  0.00  0.00    +0.000 A 
ATOM     30  C   UNL     1      -5.113  13.485  22.112  0.00  0.00    +0.000 A 
ENDBRANCH  24  25
ENDBRANCH  23  24
ENDBRANCH   6  23
TORSDOF 9
ENDMDL
MODEL 9
REMARK VINA RESULT:      -7.0      1.353      1.827
REMARK  Name = 
REMARK  9 active torsions:
REMARK  status: ('A' for Active; 'I' for Inactive)
REMARK    1  A    between atoms: O_1  and  C_2
REMARK    2  A    between atoms: C_2  and  C_3
REMARK    3  A    between atoms: C_3  and  C_4
REMARK    4  A    between atoms: N_6  and  C_7
REMARK    5  A    between atoms: C_7  and  C_8
REMARK    6  A    between atoms: C_11  and  C_12
REMARK    7  A    between atoms: N_21  and  C_22
REMARK    8  A    between atoms: C_22  and  C_23
REMARK    9  A    between atoms: C_23  and  C_24
REMARK                            x       y       z     vdW  Elec       q    Type
REMARK                         _______ _______ _______ _____ _____    ______ ____
ROOT
ATOM      1  C   UNL     1       3.760   4.285  18.388  0.00  0.00    +0.000 C 
ATOM      2  C   UNL     1       2.423   4.998  18.015  0.00  0.00    +0.000 C 
ATOM      3  N   UNL     1       2.429   6.457  18.284  0.00  0.00    +0.000 NA
ATOM      4  C   UNL     1       3.622   7.059  17.649  0.00  0.00    +0.000 C 
ATOM      5  C   UNL     1       4.954   6.314  17.928  0.00  0.00    +0.000 C 
ATOM      6  N   UNL     1       4.920   4.859  17.627  0.00  0.00    +0.000 NA
ENDROOT
BRANCH   1   7
ATOM      7  C   UNL     1       3.659   2.744  18.350  0.00  0.00    +0.000 C 
BRANCH   7   8
ATOM      8  C   UNL     1       2.327   2.233  17.779  0.00  0.00    +0.000 C 
BRANCH   8   9
ATOM      9  O   UNL     1       1.583   1.546  18.777  0.00  0.00    +0.000 OA
ATOM     10  H   UNL     1       0.639   1.720  18.599  0.00  0.00    +0.000 HD
ENDBRANCH   8   9
ENDBRANCH   7   8
ENDBRANCH   1   7
BRANCH   3  11
ATOM     11  C   UNL     1       2.423   6.765  19.730  0.00  0.00    +0.000 C 
BRANCH  11  12
ATOM     12  C   UNL     1       1.751   8.057  20.071  0.00  0.00    +0.000 A 
ATOM     13  C   UNL     1       1.292   8.487  21.299  0.00  0.00    +0.000 A 
ATOM     14  N   UNL     1       0.686   9.725  21.313  0.00  0.00    +0.000 NA
ATOM     15  C   UNL     1       0.742  10.268  20.111  0.00  0.00    +0.000 A 
ATOM     16  S   UNL     1       1.458   9.268  18.901  0.00  0.00    +0.000 S 
BRANCH  15  17
ATOM     17  C   UNL     1       0.227  11.608  19.790  0.00  0.00    +0.000 A 
ATOM     18  C   UNL     1       0.971  12.550  19.059  0.00  0.00    +0.000 A 
ATOM     19  C   UNL     1       0.462  13.826  18.812  0.00  0.00    +0.000 A 
ATOM     20  C   UNL     1      -0.797  14.179  19.292  0.00  0.00    +0.000 A 
ATOM     21  C   UNL     1      -1.550  13.260  20.016  0.00  0.00    +0.000 A 
ATOM     22  C   UNL     1      -1.039  11.985  20.265  0.00  0.00    +0.000 A 
ENDBRANCH  15  17
ENDBRANCH  11  12
ENDBRANCH   3  11
BRANCH   6  23
ATOM     23  C   UNL     1       4.858   4.601  16.170  0.00  0.00    +0.000 C 
BRANCH  23  24
ATOM     24  C   UNL     1       5.920   3.599  15.668  0.00  0.00    +0.000 C 
BRANCH  24  25
ATOM     25  C   UNL     1       6.441   3.977  14.303  0.00  0.00    +0.000 A 
ATOM     26  C   UNL     1       7.378   5.011  14.160  0.00  0.00    +0.000 A 
ATOM     27  C   UNL     1       7.846   5.372  12.896  0.00  0.00    +0.000 A 
ATOM     28  C   UNL     1       7.379   4.705  11.764  0.00  0.00    +0.000 A 
ATOM     29  C   UNL     1       6.446   3.678  11.896  0.00  0.00    +0.000 A 
ATOM     30  C   UNL     1       5.978   3.316  13.160  0.00  0.00    +0.000 A 
ENDBRANCH  24  25
ENDBRANCH  23  24
ENDBRANCH   6  23
TORSDOF 9
ENDMDL
