MODEL 1
REMARK VINA RESULT:      -8.2      0.000      0.000
REMARK  Name = 
REMARK  5 active torsions:
REMARK  status: ('A' for Active; 'I' for Inactive)
REMARK    1  A    between atoms: C_1  and  O_2
REMARK    2  A    between atoms: O_2  and  C_3
REMARK    3  A    between atoms: C_7  and  N_8
REMARK    4  A    between atoms: N_8  and  C_9
REMARK    5  A    between atoms: C_15  and  C_16
REMARK                            x       y       z     vdW  Elec       q    Type
REMARK                         _______ _______ _______ _____ _____    ______ ____
ROOT
ATOM      1  C   UNL     1       2.824   5.451  19.213  0.00  0.00    +0.000 A 
ATOM      2  N   UNL     1       1.986   4.473  19.648  0.00  0.00    +0.000 NA
ATOM      3  C   UNL     1       1.882   3.360  18.909  0.00  0.00    +0.000 A 
ATOM      4  C   UNL     1       2.577   3.170  17.736  0.00  0.00    +0.000 A 
ATOM      5  C   UNL     1       3.430   4.160  17.292  0.00  0.00    +0.000 A 
ATOM      6  N   UNL     1       4.124   3.939  16.162  0.00  0.00    +0.000 NA
ATOM      7  C   UNL     1       5.000   4.891  15.755  0.00  0.00    +0.000 A 
ATOM      8  C   UNL     1       5.135   6.066  16.484  0.00  0.00    +0.000 A 
ATOM      9  N   UNL     1       4.433   6.325  17.616  0.00  0.00    +0.000 NA
ATOM     10  C   UNL     1       3.575   5.352  18.030  0.00  0.00    +0.000 A 
ENDROOT
BRANCH   7  11
ATOM     11  C   UNL     1       5.770   4.577  14.538  0.00  0.00    +0.000 A 
ATOM     12  C   UNL     1       7.012   5.197  14.301  0.00  0.00    +0.000 A 
ATOM     13  C   UNL     1       7.750   4.936  13.144  0.00  0.00    +0.000 A 
ATOM     14  C   UNL     1       7.258   4.048  12.193  0.00  0.00    +0.000 A 
ATOM     15  C   UNL     1       6.031   3.424  12.400  0.00  0.00    +0.000 A 
ATOM     16  C   UNL     1       5.295   3.684  13.560  0.00  0.00    +0.000 A 
ENDBRANCH   7  11
BRANCH   1  17
ATOM     17  N   UNL     1       2.926   6.648  19.979  0.00  0.00    +0.000 N 
ATOM     18  H   UNL     1       3.082   6.397  20.957  0.00  0.00    +0.000 HD
BRANCH  17  23
ATOM     19  C   UNL     1       0.375   9.194  20.882  0.00  0.00    +0.000 A 
ATOM     20  C   UNL     1       0.266   9.904  19.684  0.00  0.00    +0.000 A 
ATOM     21  C   UNL     1       1.033   9.548  18.579  0.00  0.00    +0.000 A 
ATOM     22  C   UNL     1       1.921   8.479  18.670  0.00  0.00    +0.000 A 
ATOM     23  C   UNL     1       2.064   7.763  19.866  0.00  0.00    +0.000 A 
ATOM     24  C   UNL     1       1.268   8.120  20.965  0.00  0.00    +0.000 A 
BRANCH  19  26
ATOM     25  C   UNL     1       0.024   9.486  23.215  0.00  0.00    +0.000 C 
ATOM     26  O   UNL     1      -0.444   9.642  21.881  0.00  0.00    +0.000 OA
ENDBRANCH  19  26
ENDBRANCH  17  23
ENDBRANCH   1  17
TORSDOF 4
ENDMDL
MODEL 2
REMARK VINA RESULT:      -8.2      2.667      7.803
REMARK  Name = 
REMARK  5 active torsions:
REMARK  status: ('A' for Active; 'I' for Inactive)
REMARK    1  A    between atoms: C_1  and  O_2
REMARK    2  A    between atoms: O_2  and  C_3
REMARK    3  A    between atoms: C_7  and  N_8
REMARK    4  A    between atoms: N_8  and  C_9
REMARK    5  A    between atoms: C_15  and  C_16
REMARK                            x       y       z     vdW  Elec       q    Type
REMARK                         _______ _______ _______ _____ _____    ______ ____
ROOT
ATOM      1  C   UNL     1       2.893   3.989  18.572  0.00  0.00    +0.000 A 
ATOM      2  N   UNL     1       2.827   2.851  19.313  0.00  0.00    +0.000 NA
ATOM      3  C   UNL     1       2.341   2.938  20.559  0.00  0.00    +0.000 A 
ATOM      4  C   UNL     1       1.916   4.123  21.117  0.00  0.00    +0.000 A 
ATOM      5  C   UNL     1       1.980   5.280  20.368  0.00  0.00    +0.000 A 
ATOM      6  N   UNL     1       1.529   6.419  20.920  0.00  0.00    +0.000 NA
ATOM      7  C   UNL     1       1.545   7.546  20.165  0.00  0.00    +0.000 A 
ATOM      8  C   UNL     1       2.048   7.504  18.871  0.00  0.00    +0.000 A 
ATOM      9  N   UNL     1       2.530   6.375  18.293  0.00  0.00    +0.000 NA
ATOM     10  C   UNL     1       2.486   5.244  19.052  0.00  0.00    +0.000 A 
ENDROOT
BRANCH   7  11
ATOM     11  C   UNL     1       0.994   8.755  20.802  0.00  0.00    +0.000 A 
ATOM     12  C   UNL     1       0.608   8.732  22.156  0.00  0.00    +0.000 A 
ATOM     13  C   UNL     1       0.059   9.856  22.779  0.00  0.00    +0.000 A 
ATOM     14  C   UNL     1      -0.118  11.032  22.057  0.00  0.00    +0.000 A 
ATOM     15  C   UNL     1       0.252  11.081  20.716  0.00  0.00    +0.000 A 
ATOM     16  C   UNL     1       0.803   9.955  20.095  0.00  0.00    +0.000 A 
ENDBRANCH   7  11
BRANCH   1  17
ATOM     17  N   UNL     1       3.429   3.910  17.255  0.00  0.00    +0.000 N 
ATOM     18  H   UNL     1       3.050   3.079  16.797  0.00  0.00    +0.000 HD
BRANCH  17  23
ATOM     19  C   UNL     1       7.057   4.615  17.636  0.00  0.00    +0.000 A 
ATOM     20  C   UNL     1       7.475   4.610  16.303  0.00  0.00    +0.000 A 
ATOM     21  C   UNL     1       6.565   4.373  15.278  0.00  0.00    +0.000 A 
ATOM     22  C   UNL     1       5.227   4.132  15.583  0.00  0.00    +0.000 A 
ATOM     23  C   UNL     1       4.786   4.111  16.913  0.00  0.00    +0.000 A 
ATOM     24  C   UNL     1       5.712   4.374  17.935  0.00  0.00    +0.000 A 
BRANCH  19  26
ATOM     25  C   UNL     1       7.729   5.742  19.618  0.00  0.00    +0.000 C 
ATOM     26  O   UNL     1       8.050   4.873  18.540  0.00  0.00    +0.000 OA
ENDBRANCH  19  26
ENDBRANCH  17  23
ENDBRANCH   1  17
TORSDOF 4
ENDMDL
MODEL 3
REMARK VINA RESULT:      -8.1      2.840      8.087
REMARK  Name = 
REMARK  5 active torsions:
REMARK  status: ('A' for Active; 'I' for Inactive)
REMARK    1  A    between atoms: C_1  and  O_2
REMARK    2  A    between atoms: O_2  and  C_3
REMARK    3  A    between atoms: C_7  and  N_8
REMARK    4  A    between atoms: N_8  and  C_9
REMARK    5  A    between atoms: C_15  and  C_16
REMARK                            x       y       z     vdW  Elec       q    Type
REMARK                         _______ _______ _______ _____ _____    ______ ____
ROOT
ATOM      1  C   UNL     1       3.128   3.793  18.740  0.00  0.00    +0.000 A 
ATOM      2  N   UNL     1       3.081   2.706  19.554  0.00  0.00    +0.000 NA
ATOM      3  C   UNL     1       2.584   2.866  20.789  0.00  0.00    +0.000 A 
ATOM      4  C   UNL     1       2.130   4.075  21.264  0.00  0.00    +0.000 A 
ATOM      5  C   UNL     1       2.176   5.182  20.440  0.00  0.00    +0.000 A 
ATOM      6  N   UNL     1       1.696   6.344  20.913  0.00  0.00    +0.000 NA
ATOM      7  C   UNL     1       1.693   7.419  20.084  0.00  0.00    +0.000 A 
ATOM      8  C   UNL     1       2.207   7.302  18.799  0.00  0.00    +0.000 A 
ATOM      9  N   UNL     1       2.716   6.147  18.301  0.00  0.00    +0.000 NA
ATOM     10  C   UNL     1       2.691   5.069  19.133  0.00  0.00    +0.000 A 
ENDROOT
BRANCH   7  11
ATOM     11  C   UNL     1       1.112   8.655  20.637  0.00  0.00    +0.000 A 
ATOM     12  C   UNL     1       0.732   8.719  21.991  0.00  0.00    +0.000 A 
ATOM     13  C   UNL     1       0.156   9.870  22.535  0.00  0.00    +0.000 A 
ATOM     14  C   UNL     1      -0.056  10.986  21.732  0.00  0.00    +0.000 A 
ATOM     15  C   UNL     1       0.307  10.948  20.388  0.00  0.00    +0.000 A 
ATOM     16  C   UNL     1       0.886   9.796  19.846  0.00  0.00    +0.000 A 
ENDBRANCH   7  11
BRANCH   1  17
ATOM     17  N   UNL     1       3.675   3.639  17.433  0.00  0.00    +0.000 N 
ATOM     18  H   UNL     1       3.475   2.692  17.106  0.00  0.00    +0.000 HD
BRANCH  17  23
ATOM     19  C   UNL     1       6.541   4.498  15.230  0.00  0.00    +0.000 A 
ATOM     20  C   UNL     1       7.526   4.797  16.173  0.00  0.00    +0.000 A 
ATOM     21  C   UNL     1       7.249   4.719  17.534  0.00  0.00    +0.000 A 
ATOM     22  C   UNL     1       5.977   4.346  17.960  0.00  0.00    +0.000 A 
ATOM     23  C   UNL     1       4.964   4.061  17.034  0.00  0.00    +0.000 A 
ATOM     24  C   UNL     1       5.265   4.122  15.665  0.00  0.00    +0.000 A 
BRANCH  19  26
ATOM     25  C   UNL     1       6.321   3.746  12.985  0.00  0.00    +0.000 C 
ATOM     26  O   UNL     1       6.950   4.602  13.929  0.00  0.00    +0.000 OA
ENDBRANCH  19  26
ENDBRANCH  17  23
ENDBRANCH   1  17
TORSDOF 4
ENDMDL
MODEL 4
REMARK VINA RESULT:      -8.1      0.280      1.002
REMARK  Name = 
REMARK  5 active torsions:
REMARK  status: ('A' for Active; 'I' for Inactive)
REMARK    1  A    between atoms: C_1  and  O_2
REMARK    2  A    between atoms: O_2  and  C_3
REMARK    3  A    between atoms: C_7  and  N_8
REMARK    4  A    between atoms: N_8  and  C_9
REMARK    5  A    between atoms: C_15  and  C_16
REMARK                            x       y       z     vdW  Elec       q    Type
REMARK                         _______ _______ _______ _____ _____    ______ ____
ROOT
ATOM      1  C   UNL     1       2.969   5.167  19.225  0.00  0.00    +0.000 A 
ATOM      2  N   UNL     1       2.202   4.128  19.652  0.00  0.00    +0.000 NA
ATOM      3  C   UNL     1       2.151   3.029  18.887  0.00  0.00    +0.000 A 
ATOM      4  C   UNL     1       2.829   2.911  17.695  0.00  0.00    +0.000 A 
ATOM      5  C   UNL     1       3.608   3.963  17.258  0.00  0.00    +0.000 A 
ATOM      6  N   UNL     1       4.289   3.814  16.109  0.00  0.00    +0.000 NA
ATOM      7  C   UNL     1       5.095   4.829  15.707  0.00  0.00    +0.000 A 
ATOM      8  C   UNL     1       5.174   5.991  16.464  0.00  0.00    +0.000 A 
ATOM      9  N   UNL     1       4.484   6.178  17.617  0.00  0.00    +0.000 NA
ATOM     10  C   UNL     1       3.696   5.144  18.024  0.00  0.00    +0.000 A 
ENDROOT
BRANCH   7  11
ATOM     11  C   UNL     1       5.854   4.593  14.466  0.00  0.00    +0.000 A 
ATOM     12  C   UNL     1       5.364   3.704  13.490  0.00  0.00    +0.000 A 
ATOM     13  C   UNL     1       6.076   3.444  12.316  0.00  0.00    +0.000 A 
ATOM     14  C   UNL     1       7.299   4.066  12.094  0.00  0.00    +0.000 A 
ATOM     15  C   UNL     1       7.809   4.947  13.044  0.00  0.00    +0.000 A 
ATOM     16  C   UNL     1       7.094   5.208  14.218  0.00  0.00    +0.000 A 
ENDBRANCH   7  11
BRANCH   1  17
ATOM     17  N   UNL     1       3.014   6.348  20.020  0.00  0.00    +0.000 N 
ATOM     18  H   UNL     1       3.028   6.078  21.005  0.00  0.00    +0.000 HD
BRANCH  17  23
ATOM     19  C   UNL     1       0.590   9.083  20.689  0.00  0.00    +0.000 A 
ATOM     20  C   UNL     1       0.551   9.720  19.447  0.00  0.00    +0.000 A 
ATOM     21  C   UNL     1       1.324   9.253  18.389  0.00  0.00    +0.000 A 
ATOM     22  C   UNL     1       2.148   8.145  18.571  0.00  0.00    +0.000 A 
ATOM     23  C   UNL     1       2.220   7.500  19.813  0.00  0.00    +0.000 A 
ATOM     24  C   UNL     1       1.418   7.969  20.864  0.00  0.00    +0.000 A 
BRANCH  19  26
ATOM     25  C   UNL     1       0.181   9.512  22.992  0.00  0.00    +0.000 C 
ATOM     26  O   UNL     1      -0.227   9.637  21.636  0.00  0.00    +0.000 OA
ENDBRANCH  19  26
ENDBRANCH  17  23
ENDBRANCH   1  17
TORSDOF 4
ENDMDL
MODEL 5
REMARK VINA RESULT:      -8.1      2.658      8.140
REMARK  Name = 
REMARK  5 active torsions:
REMARK  status: ('A' for Active; 'I' for Inactive)
REMARK    1  A    between atoms: C_1  and  O_2
REMARK    2  A    between atoms: O_2  and  C_3
REMARK    3  A    between atoms: C_7  and  N_8
REMARK    4  A    between atoms: N_8  and  C_9
REMARK    5  A    between atoms: C_15  and  C_16
REMARK                            x       y       z     vdW  Elec       q    Type
REMARK                         _______ _______ _______ _____ _____    ______ ____
ROOT
ATOM      1  C   UNL     1       2.920   5.024  18.512  0.00  0.00    +0.000 A 
ATOM      2  N   UNL     1       3.028   3.835  19.162  0.00  0.00    +0.000 NA
ATOM      3  C   UNL     1       2.603   3.771  20.431  0.00  0.00    +0.000 A 
ATOM      4  C   UNL     1       2.073   4.851  21.101  0.00  0.00    +0.000 A 
ATOM      5  C   UNL     1       1.961   6.060  20.445  0.00  0.00    +0.000 A 
ATOM      6  N   UNL     1       1.410   7.092  21.106  0.00  0.00    +0.000 NA
ATOM      7  C   UNL     1       1.253   8.266  20.443  0.00  0.00    +0.000 A 
ATOM      8  C   UNL     1       1.687   8.381  19.128  0.00  0.00    +0.000 A 
ATOM      9  N   UNL     1       2.265   7.363  18.441  0.00  0.00    +0.000 NA
ATOM     10  C   UNL     1       2.395   6.183  19.108  0.00  0.00    +0.000 A 
ENDROOT
BRANCH   7  11
ATOM     11  C   UNL     1       0.600   9.348  21.199  0.00  0.00    +0.000 A 
ATOM     12  C   UNL     1       0.002   9.084  22.446  0.00  0.00    +0.000 A 
ATOM     13  C   UNL     1      -0.646  10.087  23.173  0.00  0.00    +0.000 A 
ATOM     14  C   UNL     1      -0.712  11.380  22.664  0.00  0.00    +0.000 A 
ATOM     15  C   UNL     1      -0.132  11.668  21.431  0.00  0.00    +0.000 A 
ATOM     16  C   UNL     1       0.518  10.663  20.707  0.00  0.00    +0.000 A 
ENDBRANCH   7  11
BRANCH   1  17
ATOM     17  N   UNL     1       3.388   5.109  17.170  0.00  0.00    +0.000 N 
ATOM     18  H   UNL     1       2.790   4.530  16.578  0.00  0.00    +0.000 HD
BRANCH  17  23
ATOM     19  C   UNL     1       6.902   6.116  16.501  0.00  0.00    +0.000 A 
ATOM     20  C   UNL     1       7.411   4.952  15.920  0.00  0.00    +0.000 A 
ATOM     21  C   UNL     1       6.601   3.834  15.750  0.00  0.00    +0.000 A 
ATOM     22  C   UNL     1       5.272   3.873  16.168  0.00  0.00    +0.000 A 
ATOM     23  C   UNL     1       4.743   5.022  16.772  0.00  0.00    +0.000 A 
ATOM     24  C   UNL     1       5.567   6.149  16.916  0.00  0.00    +0.000 A 
BRANCH  19  26
ATOM     25  C   UNL     1       7.743   7.942  17.769  0.00  0.00    +0.000 C 
ATOM     26  O   UNL     1       7.802   7.141  16.596  0.00  0.00    +0.000 OA
ENDBRANCH  19  26
ENDBRANCH  17  23
ENDBRANCH   1  17
TORSDOF 4
ENDMDL
MODEL 6
REMARK VINA RESULT:      -7.9      3.366      5.810
REMARK  Name = 
REMARK  5 active torsions:
REMARK  status: ('A' for Active; 'I' for Inactive)
REMARK    1  A    between atoms: C_1  and  O_2
REMARK    2  A    between atoms: O_2  and  C_3
REMARK    3  A    between atoms: C_7  and  N_8
REMARK    4  A    between atoms: N_8  and  C_9
REMARK    5  A    between atoms: C_15  and  C_16
REMARK                            x       y       z     vdW  Elec       q    Type
REMARK                         _______ _______ _______ _____ _____    ______ ____
ROOT
ATOM      1  C   UNL     1       0.076  10.623  20.235  0.00  0.00    +0.000 A 
ATOM      2  N   UNL     1      -0.112  10.595  21.581  0.00  0.00    +0.000 NA
ATOM      3  C   UNL     1       0.441   9.588  22.272  0.00  0.00    +0.000 A 
ATOM      4  C   UNL     1       1.177   8.586  21.681  0.00  0.00    +0.000 A 
ATOM      5  C   UNL     1       1.371   8.612  20.314  0.00  0.00    +0.000 A 
ATOM      6  N   UNL     1       2.122   7.644  19.762  0.00  0.00    +0.000 NA
ATOM      7  C   UNL     1       2.354   7.699  18.426  0.00  0.00    +0.000 A 
ATOM      8  C   UNL     1       1.795   8.720  17.668  0.00  0.00    +0.000 A 
ATOM      9  N   UNL     1       1.017   9.699  18.194  0.00  0.00    +0.000 NA
ATOM     10  C   UNL     1       0.810   9.648  19.539  0.00  0.00    +0.000 A 
ENDROOT
BRANCH   7  11
ATOM     11  C   UNL     1       3.223   6.641  17.881  0.00  0.00    +0.000 A 
ATOM     12  C   UNL     1       4.434   6.972  17.244  0.00  0.00    +0.000 A 
ATOM     13  C   UNL     1       5.264   5.990  16.696  0.00  0.00    +0.000 A 
ATOM     14  C   UNL     1       4.897   4.650  16.773  0.00  0.00    +0.000 A 
ATOM     15  C   UNL     1       3.703   4.295  17.395  0.00  0.00    +0.000 A 
ATOM     16  C   UNL     1       2.875   5.279  17.944  0.00  0.00    +0.000 A 
ENDBRANCH   7  11
BRANCH   1  17
ATOM     17  N   UNL     1      -0.524  11.677  19.489  0.00  0.00    +0.000 N 
ATOM     18  H   UNL     1      -0.211  12.570  19.875  0.00  0.00    +0.000 HD
BRANCH  17  23
ATOM     19  C   UNL     1      -3.583  11.298  17.413  0.00  0.00    +0.000 A 
ATOM     20  C   UNL     1      -4.543  11.890  18.237  0.00  0.00    +0.000 A 
ATOM     21  C   UNL     1      -4.187  12.412  19.476  0.00  0.00    +0.000 A 
ATOM     22  C   UNL     1      -2.863  12.338  19.902  0.00  0.00    +0.000 A 
ATOM     23  C   UNL     1      -1.884  11.731  19.104  0.00  0.00    +0.000 A 
ATOM     24  C   UNL     1      -2.255  11.230  17.847  0.00  0.00    +0.000 A 
BRANCH  19  26
ATOM     25  C   UNL     1      -3.125  10.662  15.169  0.00  0.00    +0.000 C 
ATOM     26  O   UNL     1      -4.066  10.839  16.219  0.00  0.00    +0.000 OA
ENDBRANCH  19  26
ENDBRANCH  17  23
ENDBRANCH   1  17
TORSDOF 4
ENDMDL
MODEL 7
REMARK VINA RESULT:      -7.9      3.153      9.582
REMARK  Name = 
REMARK  5 active torsions:
REMARK  status: ('A' for Active; 'I' for Inactive)
REMARK    1  A    between atoms: C_1  and  O_2
REMARK    2  A    between atoms: O_2  and  C_3
REMARK    3  A    between atoms: C_7  and  N_8
REMARK    4  A    between atoms: N_8  and  C_9
REMARK    5  A    between atoms: C_15  and  C_16
REMARK                            x       y       z     vdW  Elec       q    Type
REMARK                         _______ _______ _______ _____ _____    ______ ____
ROOT
ATOM      1  C   UNL     1       1.912   7.947  19.805  0.00  0.00    +0.000 A 
ATOM      2  N   UNL     1       2.172   8.119  18.482  0.00  0.00    +0.000 NA
ATOM      3  C   UNL     1       1.680   9.212  17.881  0.00  0.00    +0.000 A 
ATOM      4  C   UNL     1       0.924  10.155  18.541  0.00  0.00    +0.000 A 
ATOM      5  C   UNL     1       0.659   9.984  19.884  0.00  0.00    +0.000 A 
ATOM      6  N   UNL     1      -0.052  10.934  20.516  0.00  0.00    +0.000 NA
ATOM      7  C   UNL     1      -0.268  10.790  21.848  0.00  0.00    +0.000 A 
ATOM      8  C   UNL     1       0.216   9.669  22.511  0.00  0.00    +0.000 A 
ATOM      9  N   UNL     1       0.918   8.685  21.896  0.00  0.00    +0.000 NA
ATOM     10  C   UNL     1       1.151   8.851  20.564  0.00  0.00    +0.000 A 
ENDROOT
BRANCH   7  11
ATOM     11  C   UNL     1      -1.011  11.883  22.500  0.00  0.00    +0.000 A 
ATOM     12  C   UNL     1      -2.247  11.630  23.126  0.00  0.00    +0.000 A 
ATOM     13  C   UNL     1      -2.983  12.652  23.729  0.00  0.00    +0.000 A 
ATOM     14  C   UNL     1      -2.500  13.957  23.716  0.00  0.00    +0.000 A 
ATOM     15  C   UNL     1      -1.282  14.236  23.101  0.00  0.00    +0.000 A 
ATOM     16  C   UNL     1      -0.545  13.210  22.500  0.00  0.00    +0.000 A 
ENDBRANCH   7  11
BRANCH   1  17
ATOM     17  N   UNL     1       2.412   6.778  20.448  0.00  0.00    +0.000 N 
ATOM     18  H   UNL     1       3.391   6.934  20.691  0.00  0.00    +0.000 HD
BRANCH  17  23
ATOM     19  C   UNL     1       2.779   3.647  18.481  0.00  0.00    +0.000 A 
ATOM     20  C   UNL     1       1.760   2.864  19.027  0.00  0.00    +0.000 A 
ATOM     21  C   UNL     1       0.952   3.363  20.044  0.00  0.00    +0.000 A 
ATOM     22  C   UNL     1       1.166   4.653  20.526  0.00  0.00    +0.000 A 
ATOM     23  C   UNL     1       2.195   5.451  20.009  0.00  0.00    +0.000 A 
ATOM     24  C   UNL     1       2.986   4.942  18.969  0.00  0.00    +0.000 A 
BRANCH  19  26
ATOM     25  C   UNL     1       4.512   3.804  16.862  0.00  0.00    +0.000 C 
ATOM     26  O   UNL     1       3.487   3.039  17.482  0.00  0.00    +0.000 OA
ENDBRANCH  19  26
ENDBRANCH  17  23
ENDBRANCH   1  17
TORSDOF 4
ENDMDL
MODEL 8
REMARK VINA RESULT:      -7.9      0.949      1.690
REMARK  Name = 
REMARK  5 active torsions:
REMARK  status: ('A' for Active; 'I' for Inactive)
REMARK    1  A    between atoms: C_1  and  O_2
REMARK    2  A    between atoms: O_2  and  C_3
REMARK    3  A    between atoms: C_7  and  N_8
REMARK    4  A    between atoms: N_8  and  C_9
REMARK    5  A    between atoms: C_15  and  C_16
REMARK                            x       y       z     vdW  Elec       q    Type
REMARK                         _______ _______ _______ _____ _____    ______ ____
ROOT
ATOM      1  C   UNL     1       2.900   5.753  19.210  0.00  0.00    +0.000 A 
ATOM      2  N   UNL     1       2.131   4.771  19.751  0.00  0.00    +0.000 NA
ATOM      3  C   UNL     1       2.070   3.596  19.110  0.00  0.00    +0.000 A 
ATOM      4  C   UNL     1       2.741   3.345  17.935  0.00  0.00    +0.000 A 
ATOM      5  C   UNL     1       3.524   4.339  17.383  0.00  0.00    +0.000 A 
ATOM      6  N   UNL     1       4.198   4.062  16.254  0.00  0.00    +0.000 NA
ATOM      7  C   UNL     1       5.008   5.023  15.741  0.00  0.00    +0.000 A 
ATOM      8  C   UNL     1       5.096   6.260  16.367  0.00  0.00    +0.000 A 
ATOM      9  N   UNL     1       4.413   6.575  17.496  0.00  0.00    +0.000 NA
ATOM     10  C   UNL     1       3.622   5.596  18.016  0.00  0.00    +0.000 A 
ENDROOT
BRANCH   7  11
ATOM     11  C   UNL     1       5.760   4.649  14.530  0.00  0.00    +0.000 A 
ATOM     12  C   UNL     1       7.026   5.211  14.277  0.00  0.00    +0.000 A 
ATOM     13  C   UNL     1       7.749   4.893  13.125  0.00  0.00    +0.000 A 
ATOM     14  C   UNL     1       7.218   4.006  12.194  0.00  0.00    +0.000 A 
ATOM     15  C   UNL     1       5.966   3.439  12.418  0.00  0.00    +0.000 A 
ATOM     16  C   UNL     1       5.245   3.756  13.573  0.00  0.00    +0.000 A 
ENDBRANCH   7  11
BRANCH   1  17
ATOM     17  N   UNL     1       2.956   7.013  19.872  0.00  0.00    +0.000 N 
ATOM     18  H   UNL     1       3.524   6.915  20.715  0.00  0.00    +0.000 HD
BRANCH  17  23
ATOM     19  C   UNL     1       0.450   9.699  19.312  0.00  0.00    +0.000 A 
ATOM     20  C   UNL     1      -0.271   9.650  20.507  0.00  0.00    +0.000 A 
ATOM     21  C   UNL     1       0.064   8.732  21.498  0.00  0.00    +0.000 A 
ATOM     22  C   UNL     1       1.124   7.851  21.293  0.00  0.00    +0.000 A 
ATOM     23  C   UNL     1       1.850   7.866  20.094  0.00  0.00    +0.000 A 
ATOM     24  C   UNL     1       1.514   8.812  19.115  0.00  0.00    +0.000 A 
BRANCH  19  26
ATOM     25  C   UNL     1      -1.250  10.456  17.832  0.00  0.00    +0.000 C 
ATOM     26  O   UNL     1       0.023  10.655  18.432  0.00  0.00    +0.000 OA
ENDBRANCH  19  26
ENDBRANCH  17  23
ENDBRANCH   1  17
TORSDOF 4
ENDMDL
MODEL 9
REMARK VINA RESULT:      -7.9      3.190      9.446
REMARK  Name = 
REMARK  5 active torsions:
REMARK  status: ('A' for Active; 'I' for Inactive)
REMARK    1  A    between atoms: C_1  and  O_2
REMARK    2  A    between atoms: O_2  and  C_3
REMARK    3  A    between atoms: C_7  and  N_8
REMARK    4  A    between atoms: N_8  and  C_9
REMARK    5  A    between atoms: C_15  and  C_16
REMARK                            x       y       z     vdW  Elec       q    Type
REMARK                         _______ _______ _______ _____ _____    ______ ____
ROOT
ATOM      1  C   UNL     1       1.985   7.714  19.874  0.00  0.00    +0.000 A 
ATOM      2  N   UNL     1       2.307   7.836  18.559  0.00  0.00    +0.000 NA
ATOM      3  C   UNL     1       1.886   8.929  17.907  0.00  0.00    +0.000 A 
ATOM      4  C   UNL     1       1.143   9.921  18.507  0.00  0.00    +0.000 A 
ATOM      5  C   UNL     1       0.815   9.801  19.842  0.00  0.00    +0.000 A 
ATOM      6  N   UNL     1       0.118  10.797  20.416  0.00  0.00    +0.000 NA
ATOM      7  C   UNL     1      -0.159  10.702  21.741  0.00  0.00    +0.000 A 
ATOM      8  C   UNL     1       0.250   9.583  22.455  0.00  0.00    +0.000 A 
ATOM      9  N   UNL     1       0.936   8.553  21.899  0.00  0.00    +0.000 NA
ATOM     10  C   UNL     1       1.231   8.670  20.574  0.00  0.00    +0.000 A 
ENDROOT
BRANCH   7  11
ATOM     11  C   UNL     1      -0.883  11.843  22.329  0.00  0.00    +0.000 A 
ATOM     12  C   UNL     1      -0.374  13.150  22.201  0.00  0.00    +0.000 A 
ATOM     13  C   UNL     1      -1.027  14.247  22.770  0.00  0.00    +0.000 A 
ATOM     14  C   UNL     1      -2.206  14.059  23.485  0.00  0.00    +0.000 A 
ATOM     15  C   UNL     1      -2.728  12.776  23.630  0.00  0.00    +0.000 A 
ATOM     16  C   UNL     1      -2.074  11.680  23.057  0.00  0.00    +0.000 A 
ENDBRANCH   7  11
BRANCH   1  17
ATOM     17  N   UNL     1       2.409   6.546  20.570  0.00  0.00    +0.000 N 
ATOM     18  H   UNL     1       3.355   6.700  20.921  0.00  0.00    +0.000 HD
BRANCH  17  23
ATOM     19  C   UNL     1       3.045   3.379  18.733  0.00  0.00    +0.000 A 
ATOM     20  C   UNL     1       1.923   2.628  19.092  0.00  0.00    +0.000 A 
ATOM     21  C   UNL     1       0.958   3.161  19.941  0.00  0.00    +0.000 A 
ATOM     22  C   UNL     1       1.114   4.452  20.441  0.00  0.00    +0.000 A 
ATOM     23  C   UNL     1       2.240   5.218  20.113  0.00  0.00    +0.000 A 
ATOM     24  C   UNL     1       3.194   4.675  19.238  0.00  0.00    +0.000 A 
BRANCH  19  26
ATOM     25  C   UNL     1       4.536   3.534  16.889  0.00  0.00    +0.000 C 
ATOM     26  O   UNL     1       3.907   2.740  17.885  0.00  0.00    +0.000 OA
ENDBRANCH  19  26
ENDBRANCH  17  23
ENDBRANCH   1  17
TORSDOF 4
ENDMDL
