MODEL 1
REMARK VINA RESULT:      -9.5      0.000      0.000
REMARK  Name = 
REMARK  5 active torsions:
REMARK  status: ('A' for Active; 'I' for Inactive)
REMARK    1  A    between atoms: C_2  and  C_3
REMARK    2  A    between atoms: C_3  and  N_4
REMARK    3  A    between atoms: N_21  and  C_22
REMARK    4  A    between atoms: C_22  and  C_23
REMARK    5  A    between atoms: C_23  and  N_24
REMARK                            x       y       z     vdW  Elec       q    Type
REMARK                         _______ _______ _______ _____ _____    ______ ____
ROOT
ATOM      1  N   UNL     1       6.410   5.183  17.371  0.00  0.00    +0.000 N 
ATOM      2  C   UNL     1       6.481   4.875  16.020  0.00  0.00    +0.000 A 
ATOM      3  C   UNL     1       7.484   5.103  15.065  0.00  0.00    +0.000 A 
ATOM      4  C   UNL     1       7.270   4.643  13.759  0.00  0.00    +0.000 A 
ATOM      5  C   UNL     1       6.102   3.972  13.414  0.00  0.00    +0.000 A 
ATOM      6  C   UNL     1       5.102   3.756  14.365  0.00  0.00    +0.000 A 
ATOM      7  C   UNL     1       5.289   4.217  15.685  0.00  0.00    +0.000 A 
ATOM      8  C   UNL     1       4.485   4.184  16.854  0.00  0.00    +0.000 A 
ATOM      9  N   UNL     1       3.236   3.690  17.047  0.00  0.00    +0.000 NA
ATOM     10  C   UNL     1       2.758   3.863  18.286  0.00  0.00    +0.000 A 
ATOM     11  C   UNL     1       1.477   3.403  18.563  0.00  0.00    +0.000 A 
ATOM     12  C   UNL     1       0.902   3.554  19.823  0.00  0.00    +0.000 A 
ATOM     13  C   UNL     1       1.623   4.182  20.830  0.00  0.00    +0.000 A 
ATOM     14  C   UNL     1       2.913   4.647  20.569  0.00  0.00    +0.000 A 
ATOM     15  C   UNL     1       3.503   4.502  19.319  0.00  0.00    +0.000 A 
ATOM     16  N   UNL     1       4.753   4.975  19.141  0.00  0.00    +0.000 NA
ATOM     17  C   UNL     1       5.195   4.795  17.878  0.00  0.00    +0.000 A 
ENDROOT
BRANCH   1  18
ATOM     18  C   UNL     1       7.440   5.847  18.155  0.00  0.00    +0.000 C 
BRANCH  18  20
ATOM     19  O   UNL     1       6.697   7.867  17.085  0.00  0.00    +0.000 OA
ATOM     20  C   UNL     1       7.460   7.341  17.892  0.00  0.00    +0.000 C 
ATOM     21  N   UNL     1       8.404   8.055  18.598  0.00  0.00    +0.000 N 
ATOM     22  H   UNL     1       8.933   7.609  19.339  0.00  0.00    +0.000 HD
BRANCH  21  23
ATOM     23  C   UNL     1       8.634   9.472  18.367  0.00  0.00    +0.000 C 
BRANCH  23  24
ATOM     24  C   UNL     1       9.388  10.185  19.510  0.00  0.00    +0.000 C 
BRANCH  24  25
ATOM     25  N   UNL     1       9.509  11.655  19.385  0.00  0.00    +0.000 NA
ATOM     26  C   UNL     1      10.510  12.255  20.295  0.00  0.00    +0.000 C 
ATOM     27  C   UNL     1      11.992  11.992  19.934  0.00  0.00    +0.000 C 
ATOM     28  N   UNL     1      12.331  12.289  18.537  0.00  0.00    +0.000 NA
ATOM     29  C   UNL     1      11.351  11.705  17.614  0.00  0.00    +0.000 C 
ATOM     30  C   UNL     1       9.886  12.029  17.998  0.00  0.00    +0.000 C 
ATOM     31  H   UNL     1      13.260  11.925  18.326  0.00  0.00    +0.000 HD
ENDBRANCH  24  25
ENDBRANCH  23  24
ENDBRANCH  21  23
ENDBRANCH  18  20
ENDBRANCH   1  18
TORSDOF 5
ENDMDL
MODEL 2
REMARK VINA RESULT:      -9.3      0.591      1.252
REMARK  Name = 
REMARK  5 active torsions:
REMARK  status: ('A' for Active; 'I' for Inactive)
REMARK    1  A    between atoms: C_2  and  C_3
REMARK    2  A    between atoms: C_3  and  N_4
REMARK    3  A    between atoms: N_21  and  C_22
REMARK    4  A    between atoms: C_22  and  C_23
REMARK    5  A    between atoms: C_23  and  N_24
REMARK                            x       y       z     vdW  Elec       q    Type
REMARK                         _______ _______ _______ _____ _____    ______ ____
ROOT
ATOM      1  N   UNL     1       6.412   5.216  17.401  0.00  0.00    +0.000 N 
ATOM      2  C   UNL     1       6.500   4.893  16.055  0.00  0.00    +0.000 A 
ATOM      3  C   UNL     1       7.513   5.118  15.108  0.00  0.00    +0.000 A 
ATOM      4  C   UNL     1       7.316   4.642  13.805  0.00  0.00    +0.000 A 
ATOM      5  C   UNL     1       6.156   3.960  13.454  0.00  0.00    +0.000 A 
ATOM      6  C   UNL     1       5.147   3.748  14.397  0.00  0.00    +0.000 A 
ATOM      7  C   UNL     1       5.316   4.224  15.714  0.00  0.00    +0.000 A 
ATOM      8  C   UNL     1       4.500   4.200  16.874  0.00  0.00    +0.000 A 
ATOM      9  N   UNL     1       3.251   3.700  17.058  0.00  0.00    +0.000 NA
ATOM     10  C   UNL     1       2.759   3.883  18.290  0.00  0.00    +0.000 A 
ATOM     11  C   UNL     1       1.477   3.418  18.558  0.00  0.00    +0.000 A 
ATOM     12  C   UNL     1       0.888   3.580  19.810  0.00  0.00    +0.000 A 
ATOM     13  C   UNL     1       1.593   4.223  20.817  0.00  0.00    +0.000 A 
ATOM     14  C   UNL     1       2.883   4.694  20.565  0.00  0.00    +0.000 A 
ATOM     15  C   UNL     1       3.487   4.539  19.325  0.00  0.00    +0.000 A 
ATOM     16  N   UNL     1       4.737   5.017  19.155  0.00  0.00    +0.000 NA
ATOM     17  C   UNL     1       5.194   4.826  17.899  0.00  0.00    +0.000 A 
ENDROOT
BRANCH   1  18
ATOM     18  C   UNL     1       7.429   5.895  18.189  0.00  0.00    +0.000 C 
BRANCH  18  20
ATOM     19  O   UNL     1       6.692   7.897  17.081  0.00  0.00    +0.000 OA
ATOM     20  C   UNL     1       7.462   7.382  17.890  0.00  0.00    +0.000 C 
ATOM     21  N   UNL     1       8.423   8.103  18.566  0.00  0.00    +0.000 N 
ATOM     22  H   UNL     1       8.957   7.669  19.309  0.00  0.00    +0.000 HD
BRANCH  21  23
ATOM     23  C   UNL     1       8.664   9.511  18.297  0.00  0.00    +0.000 C 
BRANCH  23  24
ATOM     24  C   UNL     1       9.278  10.285  19.483  0.00  0.00    +0.000 C 
BRANCH  24  25
ATOM     25  N   UNL     1      10.526  11.027  19.194  0.00  0.00    +0.000 NA
ATOM     26  C   UNL     1      10.477  11.822  17.948  0.00  0.00    +0.000 C 
ATOM     27  C   UNL     1       9.600  13.098  17.996  0.00  0.00    +0.000 C 
ATOM     28  N   UNL     1       9.871  13.968  19.147  0.00  0.00    +0.000 NA
ATOM     29  C   UNL     1       9.925  13.201  20.396  0.00  0.00    +0.000 C 
ATOM     30  C   UNL     1      10.845  11.958  20.307  0.00  0.00    +0.000 C 
ATOM     31  H   UNL     1       9.145  14.681  19.214  0.00  0.00    +0.000 HD
ENDBRANCH  24  25
ENDBRANCH  23  24
ENDBRANCH  21  23
ENDBRANCH  18  20
ENDBRANCH   1  18
TORSDOF 5
ENDMDL
MODEL 3
REMARK VINA RESULT:      -8.4      1.212      4.678
REMARK  Name = 
REMARK  5 active torsions:
REMARK  status: ('A' for Active; 'I' for Inactive)
REMARK    1  A    between atoms: C_2  and  C_3
REMARK    2  A    between atoms: C_3  and  N_4
REMARK    3  A    between atoms: N_21  and  C_22
REMARK    4  A    between atoms: C_22  and  C_23
REMARK    5  A    between atoms: C_23  and  N_24
REMARK                            x       y       z     vdW  Elec       q    Type
REMARK                         _______ _______ _______ _____ _____    ______ ____
ROOT
ATOM      1  N   UNL     1       6.429   5.578  17.532  0.00  0.00    +0.000 N 
ATOM      2  C   UNL     1       5.259   5.253  18.203  0.00  0.00    +0.000 A 
ATOM      3  C   UNL     1       4.872   5.436  19.540  0.00  0.00    +0.000 A 
ATOM      4  C   UNL     1       3.590   5.018  19.919  0.00  0.00    +0.000 A 
ATOM      5  C   UNL     1       2.718   4.443  19.001  0.00  0.00    +0.000 A 
ATOM      6  C   UNL     1       3.111   4.255  17.674  0.00  0.00    +0.000 A 
ATOM      7  C   UNL     1       4.400   4.659  17.267  0.00  0.00    +0.000 A 
ATOM      8  C   UNL     1       5.103   4.590  16.037  0.00  0.00    +0.000 A 
ATOM      9  N   UNL     1       4.727   4.076  14.839  0.00  0.00    +0.000 NA
ATOM     10  C   UNL     1       5.666   4.146  13.887  0.00  0.00    +0.000 A 
ATOM     11  C   UNL     1       5.369   3.625  12.635  0.00  0.00    +0.000 A 
ATOM     12  C   UNL     1       6.296   3.648  11.594  0.00  0.00    +0.000 A 
ATOM     13  C   UNL     1       7.549   4.203  11.810  0.00  0.00    +0.000 A 
ATOM     14  C   UNL     1       7.863   4.735  13.063  0.00  0.00    +0.000 A 
ATOM     15  C   UNL     1       6.951   4.723  14.110  0.00  0.00    +0.000 A 
ATOM     16  N   UNL     1       7.323   5.256  15.292  0.00  0.00    +0.000 NA
ATOM     17  C   UNL     1       6.356   5.155  16.228  0.00  0.00    +0.000 A 
ENDROOT
BRANCH   1  18
ATOM     18  C   UNL     1       7.592   6.238  18.105  0.00  0.00    +0.000 C 
BRANCH  18  20
ATOM     19  O   UNL     1       6.805   8.224  17.004  0.00  0.00    +0.000 OA
ATOM     20  C   UNL     1       7.582   7.728  17.816  0.00  0.00    +0.000 C 
ATOM     21  N   UNL     1       8.514   8.473  18.506  0.00  0.00    +0.000 N 
ATOM     22  H   UNL     1       9.055   8.050  19.251  0.00  0.00    +0.000 HD
BRANCH  21  23
ATOM     23  C   UNL     1       8.715   9.890  18.249  0.00  0.00    +0.000 C 
BRANCH  23  24
ATOM     24  C   UNL     1       9.414  10.648  19.398  0.00  0.00    +0.000 C 
BRANCH  24  25
ATOM     25  N   UNL     1      10.773  11.157  19.102  0.00  0.00    +0.000 NA
ATOM     26  C   UNL     1      10.870  11.907  17.831  0.00  0.00    +0.000 C 
ATOM     27  C   UNL     1      10.223  13.313  17.828  0.00  0.00    +0.000 C 
ATOM     28  N   UNL     1      10.628  14.163  18.953  0.00  0.00    +0.000 NA
ATOM     29  C   UNL     1      10.541  13.440  20.227  0.00  0.00    +0.000 C 
ATOM     30  C   UNL     1      11.236  12.057  20.189  0.00  0.00    +0.000 C 
ATOM     31  H   UNL     1      10.034  14.991  18.989  0.00  0.00    +0.000 HD
ENDBRANCH  24  25
ENDBRANCH  23  24
ENDBRANCH  21  23
ENDBRANCH  18  20
ENDBRANCH   1  18
TORSDOF 5
ENDMDL
MODEL 4
REMARK VINA RESULT:      -8.3      1.095      4.540
REMARK  Name = 
REMARK  5 active torsions:
REMARK  status: ('A' for Active; 'I' for Inactive)
REMARK    1  A    between atoms: C_2  and  C_3
REMARK    2  A    between atoms: C_3  and  N_4
REMARK    3  A    between atoms: N_21  and  C_22
REMARK    4  A    between atoms: C_22  and  C_23
REMARK    5  A    between atoms: C_23  and  N_24
REMARK                            x       y       z     vdW  Elec       q    Type
REMARK                         _______ _______ _______ _____ _____    ______ ____
ROOT
ATOM      1  N   UNL     1       6.435   5.524  17.571  0.00  0.00    +0.000 N 
ATOM      2  C   UNL     1       5.274   5.154  18.234  0.00  0.00    +0.000 A 
ATOM      3  C   UNL     1       4.880   5.301  19.574  0.00  0.00    +0.000 A 
ATOM      4  C   UNL     1       3.610   4.839  19.943  0.00  0.00    +0.000 A 
ATOM      5  C   UNL     1       2.755   4.259  19.013  0.00  0.00    +0.000 A 
ATOM      6  C   UNL     1       3.155   4.107  17.683  0.00  0.00    +0.000 A 
ATOM      7  C   UNL     1       4.432   4.554  17.286  0.00  0.00    +0.000 A 
ATOM      8  C   UNL     1       5.138   4.529  16.056  0.00  0.00    +0.000 A 
ATOM      9  N   UNL     1       4.776   4.028  14.847  0.00  0.00    +0.000 NA
ATOM     10  C   UNL     1       5.714   4.143  13.898  0.00  0.00    +0.000 A 
ATOM     11  C   UNL     1       5.433   3.637  12.635  0.00  0.00    +0.000 A 
ATOM     12  C   UNL     1       6.359   3.706  11.597  0.00  0.00    +0.000 A 
ATOM     13  C   UNL     1       7.597   4.292  11.825  0.00  0.00    +0.000 A 
ATOM     14  C   UNL     1       7.894   4.808  13.088  0.00  0.00    +0.000 A 
ATOM     15  C   UNL     1       6.982   4.750  14.134  0.00  0.00    +0.000 A 
ATOM     16  N   UNL     1       7.339   5.270  15.326  0.00  0.00    +0.000 NA
ATOM     17  C   UNL     1       6.374   5.124  16.259  0.00  0.00    +0.000 A 
ENDROOT
BRANCH   1  18
ATOM     18  C   UNL     1       7.578   6.206  18.158  0.00  0.00    +0.000 C 
BRANCH  18  20
ATOM     19  O   UNL     1       6.760   8.174  17.046  0.00  0.00    +0.000 OA
ATOM     20  C   UNL     1       7.557   7.691  17.848  0.00  0.00    +0.000 C 
ATOM     21  N   UNL     1       8.503   8.448  18.505  0.00  0.00    +0.000 N 
ATOM     22  H   UNL     1       9.062   8.037  19.244  0.00  0.00    +0.000 HD
BRANCH  21  23
ATOM     23  C   UNL     1       8.694   9.862  18.223  0.00  0.00    +0.000 C 
BRANCH  23  24
ATOM     24  C   UNL     1       9.567  10.600  19.260  0.00  0.00    +0.000 C 
BRANCH  24  25
ATOM     25  N   UNL     1       9.446  12.076  19.273  0.00  0.00    +0.000 NA
ATOM     26  C   UNL     1      10.380  12.747  20.202  0.00  0.00    +0.000 C 
ATOM     27  C   UNL     1      11.867  12.764  19.768  0.00  0.00    +0.000 C 
ATOM     28  N   UNL     1      12.086  13.235  18.396  0.00  0.00    +0.000 NA
ATOM     29  C   UNL     1      11.169  12.583  17.455  0.00  0.00    +0.000 C 
ATOM     30  C   UNL     1       9.691  12.627  17.916  0.00  0.00    +0.000 C 
ATOM     31  H   UNL     1      13.050  13.048  18.120  0.00  0.00    +0.000 HD
ENDBRANCH  24  25
ENDBRANCH  23  24
ENDBRANCH  21  23
ENDBRANCH  18  20
ENDBRANCH   1  18
TORSDOF 5
ENDMDL
MODEL 5
REMARK VINA RESULT:      -8.0      8.037     11.517
REMARK  Name = 
REMARK  5 active torsions:
REMARK  status: ('A' for Active; 'I' for Inactive)
REMARK    1  A    between atoms: C_2  and  C_3
REMARK    2  A    between atoms: C_3  and  N_4
REMARK    3  A    between atoms: N_21  and  C_22
REMARK    4  A    between atoms: C_22  and  C_23
REMARK    5  A    between atoms: C_23  and  N_24
REMARK                            x       y       z     vdW  Elec       q    Type
REMARK                         _______ _______ _______ _____ _____    ______ ____
ROOT
ATOM      1  N   UNL     1      -0.075  10.620  19.434  0.00  0.00    +0.000 N 
ATOM      2  C   UNL     1      -0.515  10.756  20.742  0.00  0.00    +0.000 A 
ATOM      3  C   UNL     1      -1.342  11.715  21.351  0.00  0.00    +0.000 A 
ATOM      4  C   UNL     1      -1.632  11.567  22.714  0.00  0.00    +0.000 A 
ATOM      5  C   UNL     1      -1.125  10.500  23.447  0.00  0.00    +0.000 A 
ATOM      6  C   UNL     1      -0.295   9.554  22.839  0.00  0.00    +0.000 A 
ATOM      7  C   UNL     1       0.020   9.685  21.470  0.00  0.00    +0.000 A 
ATOM      8  C   UNL     1       0.830   8.935  20.579  0.00  0.00    +0.000 A 
ATOM      9  N   UNL     1       1.586   7.829  20.798  0.00  0.00    +0.000 NA
ATOM     10  C   UNL     1       2.260   7.399  19.725  0.00  0.00    +0.000 A 
ATOM     11  C   UNL     1       3.075   6.283  19.868  0.00  0.00    +0.000 A 
ATOM     12  C   UNL     1       3.819   5.779  18.803  0.00  0.00    +0.000 A 
ATOM     13  C   UNL     1       3.750   6.405  17.566  0.00  0.00    +0.000 A 
ATOM     14  C   UNL     1       2.934   7.527  17.405  0.00  0.00    +0.000 A 
ATOM     15  C   UNL     1       2.183   8.041  18.454  0.00  0.00    +0.000 A 
ATOM     16  N   UNL     1       1.416   9.126  18.223  0.00  0.00    +0.000 NA
ATOM     17  C   UNL     1       0.762   9.538  19.331  0.00  0.00    +0.000 A 
ENDROOT
BRANCH   1  18
ATOM     18  C   UNL     1      -0.407  11.496  18.321  0.00  0.00    +0.000 C 
BRANCH  18  20
ATOM     19  O   UNL     1      -1.746  10.114  16.881  0.00  0.00    +0.000 OA
ATOM     20  C   UNL     1      -1.700  11.073  17.649  0.00  0.00    +0.000 C 
ATOM     21  N   UNL     1      -2.802  11.849  17.938  0.00  0.00    +0.000 N 
ATOM     22  H   UNL     1      -2.752  12.554  18.663  0.00  0.00    +0.000 HD
BRANCH  21  23
ATOM     23  C   UNL     1      -4.082  11.650  17.277  0.00  0.00    +0.000 C 
BRANCH  23  24
ATOM     24  C   UNL     1      -5.218  11.203  18.223  0.00  0.00    +0.000 C 
BRANCH  24  25
ATOM     25  N   UNL     1      -6.136  12.271  18.678  0.00  0.00    +0.000 NA
ATOM     26  C   UNL     1      -7.385  11.768  19.290  0.00  0.00    +0.000 C 
ATOM     27  C   UNL     1      -7.241  11.139  20.698  0.00  0.00    +0.000 C 
ATOM     28  N   UNL     1      -6.505  11.974  21.655  0.00  0.00    +0.000 NA
ATOM     29  C   UNL     1      -5.261  12.486  21.070  0.00  0.00    +0.000 C 
ATOM     30  C   UNL     1      -5.465  13.138  19.680  0.00  0.00    +0.000 C 
ATOM     31  H   UNL     1      -6.291  11.429  22.490  0.00  0.00    +0.000 HD
ENDBRANCH  24  25
ENDBRANCH  23  24
ENDBRANCH  21  23
ENDBRANCH  18  20
ENDBRANCH   1  18
TORSDOF 5
ENDMDL
MODEL 6
REMARK VINA RESULT:      -8.0      3.093      4.472
REMARK  Name = 
REMARK  5 active torsions:
REMARK  status: ('A' for Active; 'I' for Inactive)
REMARK    1  A    between atoms: C_2  and  C_3
REMARK    2  A    between atoms: C_3  and  N_4
REMARK    3  A    between atoms: N_21  and  C_22
REMARK    4  A    between atoms: C_22  and  C_23
REMARK    5  A    between atoms: C_23  and  N_24
REMARK                            x       y       z     vdW  Elec       q    Type
REMARK                         _______ _______ _______ _____ _____    ______ ____
ROOT
ATOM      1  N   UNL     1       4.156   6.011  17.857  0.00  0.00    +0.000 N 
ATOM      2  C   UNL     1       4.005   4.859  18.615  0.00  0.00    +0.000 A 
ATOM      3  C   UNL     1       4.603   3.593  18.511  0.00  0.00    +0.000 A 
ATOM      4  C   UNL     1       4.260   2.621  19.461  0.00  0.00    +0.000 A 
ATOM      5  C   UNL     1       3.358   2.898  20.482  0.00  0.00    +0.000 A 
ATOM      6  C   UNL     1       2.759   4.156  20.575  0.00  0.00    +0.000 A 
ATOM      7  C   UNL     1       3.080   5.150  19.627  0.00  0.00    +0.000 A 
ATOM      8  C   UNL     1       2.645   6.485  19.426  0.00  0.00    +0.000 A 
ATOM      9  N   UNL     1       1.736   7.225  20.111  0.00  0.00    +0.000 NA
ATOM     10  C   UNL     1       1.539   8.454  19.618  0.00  0.00    +0.000 A 
ATOM     11  C   UNL     1       0.610   9.271  20.249  0.00  0.00    +0.000 A 
ATOM     12  C   UNL     1       0.338  10.559  19.791  0.00  0.00    +0.000 A 
ATOM     13  C   UNL     1       1.009  11.042  18.676  0.00  0.00    +0.000 A 
ATOM     14  C   UNL     1       1.948  10.234  18.031  0.00  0.00    +0.000 A 
ATOM     15  C   UNL     1       2.234   8.950  18.475  0.00  0.00    +0.000 A 
ATOM     16  N   UNL     1       3.154   8.228  17.804  0.00  0.00    +0.000 NA
ATOM     17  C   UNL     1       3.316   6.992  18.321  0.00  0.00    +0.000 A 
ENDROOT
BRANCH   1  18
ATOM     18  C   UNL     1       5.040   6.177  16.714  0.00  0.00    +0.000 C 
BRANCH  18  20
ATOM     19  O   UNL     1       7.276   5.632  17.407  0.00  0.00    +0.000 OA
ATOM     20  C   UNL     1       6.454   6.510  17.150  0.00  0.00    +0.000 C 
ATOM     21  N   UNL     1       6.742   7.854  17.259  0.00  0.00    +0.000 N 
ATOM     22  H   UNL     1       6.081   8.545  16.926  0.00  0.00    +0.000 HD
BRANCH  21  23
ATOM     23  C   UNL     1       8.010   8.332  17.784  0.00  0.00    +0.000 C 
BRANCH  23  24
ATOM     24  C   UNL     1       8.059   9.856  18.028  0.00  0.00    +0.000 C 
BRANCH  24  25
ATOM     25  N   UNL     1       9.407  10.437  18.218  0.00  0.00    +0.000 NA
ATOM     26  C   UNL     1       9.518  11.849  17.789  0.00  0.00    +0.000 C 
ATOM     27  C   UNL     1       8.822  12.887  18.702  0.00  0.00    +0.000 C 
ATOM     28  N   UNL     1       9.160  12.759  20.124  0.00  0.00    +0.000 NA
ATOM     29  C   UNL     1       9.058  11.366  20.573  0.00  0.00    +0.000 C 
ATOM     30  C   UNL     1       9.803  10.372  19.648  0.00  0.00    +0.000 C 
ATOM     31  H   UNL     1       8.536  13.344  20.679  0.00  0.00    +0.000 HD
ENDBRANCH  24  25
ENDBRANCH  23  24
ENDBRANCH  21  23
ENDBRANCH  18  20
ENDBRANCH   1  18
TORSDOF 5
ENDMDL
MODEL 7
REMARK VINA RESULT:      -7.9      7.636     11.087
REMARK  Name = 
REMARK  5 active torsions:
REMARK  status: ('A' for Active; 'I' for Inactive)
REMARK    1  A    between atoms: C_2  and  C_3
REMARK    2  A    between atoms: C_3  and  N_4
REMARK    3  A    between atoms: N_21  and  C_22
REMARK    4  A    between atoms: C_22  and  C_23
REMARK    5  A    between atoms: C_23  and  N_24
REMARK                            x       y       z     vdW  Elec       q    Type
REMARK                         _______ _______ _______ _____ _____    ______ ____
ROOT
ATOM      1  N   UNL     1       0.760  10.632  19.658  0.00  0.00    +0.000 N 
ATOM      2  C   UNL     1       0.116  10.729  20.882  0.00  0.00    +0.000 A 
ATOM      3  C   UNL     1      -0.572  11.793  21.489  0.00  0.00    +0.000 A 
ATOM      4  C   UNL     1      -1.149  11.573  22.747  0.00  0.00    +0.000 A 
ATOM      5  C   UNL     1      -1.053  10.338  23.378  0.00  0.00    +0.000 A 
ATOM      6  C   UNL     1      -0.360   9.286  22.775  0.00  0.00    +0.000 A 
ATOM      7  C   UNL     1       0.239   9.483  21.513  0.00  0.00    +0.000 A 
ATOM      8  C   UNL     1       1.013   8.656  20.659  0.00  0.00    +0.000 A 
ATOM      9  N   UNL     1       1.438   7.378  20.825  0.00  0.00    +0.000 NA
ATOM     10  C   UNL     1       2.193   6.912  19.822  0.00  0.00    +0.000 A 
ATOM     11  C   UNL     1       2.686   5.617  19.921  0.00  0.00    +0.000 A 
ATOM     12  C   UNL     1       3.488   5.062  18.925  0.00  0.00    +0.000 A 
ATOM     13  C   UNL     1       3.808   5.818  17.807  0.00  0.00    +0.000 A 
ATOM     14  C   UNL     1       3.318   7.121  17.690  0.00  0.00    +0.000 A 
ATOM     15  C   UNL     1       2.515   7.689  18.670  0.00  0.00    +0.000 A 
ATOM     16  N   UNL     1       2.077   8.952  18.489  0.00  0.00    +0.000 NA
ATOM     17  C   UNL     1       1.332   9.391  19.525  0.00  0.00    +0.000 A 
ENDROOT
BRANCH   1  18
ATOM     18  C   UNL     1       0.862  11.680  18.655  0.00  0.00    +0.000 C 
BRANCH  18  20
ATOM     19  O   UNL     1      -0.866  13.301  18.246  0.00  0.00    +0.000 OA
ATOM     20  C   UNL     1      -0.507  12.127  18.178  0.00  0.00    +0.000 C 
ATOM     21  N   UNL     1      -1.322  11.127  17.691  0.00  0.00    +0.000 N 
ATOM     22  H   UNL     1      -0.952  10.196  17.540  0.00  0.00    +0.000 HD
BRANCH  21  23
ATOM     23  C   UNL     1      -2.705  11.372  17.313  0.00  0.00    +0.000 C 
BRANCH  23  24
ATOM     24  C   UNL     1      -3.685  11.432  18.504  0.00  0.00    +0.000 C 
BRANCH  24  25
ATOM     25  N   UNL     1      -4.958  12.146  18.258  0.00  0.00    +0.000 NA
ATOM     26  C   UNL     1      -6.084  11.257  17.895  0.00  0.00    +0.000 C 
ATOM     27  C   UNL     1      -6.662  10.397  19.046  0.00  0.00    +0.000 C 
ATOM     28  N   UNL     1      -6.982  11.156  20.260  0.00  0.00    +0.000 NA
ATOM     29  C   UNL     1      -5.879  12.047  20.640  0.00  0.00    +0.000 C 
ATOM     30  C   UNL     1      -5.363  12.912  19.464  0.00  0.00    +0.000 C 
ATOM     31  H   UNL     1      -7.180  10.512  21.025  0.00  0.00    +0.000 HD
ENDBRANCH  24  25
ENDBRANCH  23  24
ENDBRANCH  21  23
ENDBRANCH  18  20
ENDBRANCH   1  18
TORSDOF 5
ENDMDL
MODEL 8
REMARK VINA RESULT:      -7.8      1.016      1.127
REMARK  Name = 
REMARK  5 active torsions:
REMARK  status: ('A' for Active; 'I' for Inactive)
REMARK    1  A    between atoms: C_2  and  C_3
REMARK    2  A    between atoms: C_3  and  N_4
REMARK    3  A    between atoms: N_21  and  C_22
REMARK    4  A    between atoms: C_22  and  C_23
REMARK    5  A    between atoms: C_23  and  N_24
REMARK                            x       y       z     vdW  Elec       q    Type
REMARK                         _______ _______ _______ _____ _____    ______ ____
ROOT
ATOM      1  N   UNL     1       5.302   6.174  16.953  0.00  0.00    +0.000 N 
ATOM      2  C   UNL     1       5.770   5.494  15.838  0.00  0.00    +0.000 A 
ATOM      3  C   UNL     1       6.653   5.881  14.816  0.00  0.00    +0.000 A 
ATOM      4  C   UNL     1       6.959   4.945  13.819  0.00  0.00    +0.000 A 
ATOM      5  C   UNL     1       6.414   3.666  13.839  0.00  0.00    +0.000 A 
ATOM      6  C   UNL     1       5.529   3.290  14.853  0.00  0.00    +0.000 A 
ATOM      7  C   UNL     1       5.196   4.216  15.863  0.00  0.00    +0.000 A 
ATOM      8  C   UNL     1       4.336   4.165  16.990  0.00  0.00    +0.000 A 
ATOM      9  N   UNL     1       3.531   3.167  17.435  0.00  0.00    +0.000 NA
ATOM     10  C   UNL     1       2.817   3.477  18.525  0.00  0.00    +0.000 A 
ATOM     11  C   UNL     1       1.952   2.517  19.036  0.00  0.00    +0.000 A 
ATOM     12  C   UNL     1       1.166   2.765  20.160  0.00  0.00    +0.000 A 
ATOM     13  C   UNL     1       1.244   4.001  20.787  0.00  0.00    +0.000 A 
ATOM     14  C   UNL     1       2.111   4.975  20.288  0.00  0.00    +0.000 A 
ATOM     15  C   UNL     1       2.904   4.745  19.172  0.00  0.00    +0.000 A 
ATOM     16  N   UNL     1       3.719   5.732  18.748  0.00  0.00    +0.000 NA
ATOM     17  C   UNL     1       4.411   5.388  17.641  0.00  0.00    +0.000 A 
ENDROOT
BRANCH   1  18
ATOM     18  C   UNL     1       5.656   7.528  17.345  0.00  0.00    +0.000 C 
BRANCH  18  20
ATOM     19  O   UNL     1       7.695   6.627  18.244  0.00  0.00    +0.000 OA
ATOM     20  C   UNL     1       7.097   7.611  17.814  0.00  0.00    +0.000 C 
ATOM     21  N   UNL     1       7.673   8.862  17.747  0.00  0.00    +0.000 N 
ATOM     22  H   UNL     1       7.192   9.620  17.279  0.00  0.00    +0.000 HD
BRANCH  21  23
ATOM     23  C   UNL     1       9.001   9.131  18.275  0.00  0.00    +0.000 C 
BRANCH  23  24
ATOM     24  C   UNL     1       9.058  10.305  19.275  0.00  0.00    +0.000 C 
BRANCH  24  25
ATOM     25  N   UNL     1       9.337  11.637  18.693  0.00  0.00    +0.000 NA
ATOM     26  C   UNL     1       9.350  12.734  19.685  0.00  0.00    +0.000 C 
ATOM     27  C   UNL     1      10.574  12.771  20.633  0.00  0.00    +0.000 C 
ATOM     28  N   UNL     1      11.868  12.689  19.946  0.00  0.00    +0.000 NA
ATOM     29  C   UNL     1      11.879  11.606  18.955  0.00  0.00    +0.000 C 
ATOM     30  C   UNL     1      10.654  11.637  18.008  0.00  0.00    +0.000 C 
ATOM     31  H   UNL     1      12.610  12.534  20.629  0.00  0.00    +0.000 HD
ENDBRANCH  24  25
ENDBRANCH  23  24
ENDBRANCH  21  23
ENDBRANCH  18  20
ENDBRANCH   1  18
TORSDOF 5
ENDMDL
MODEL 9
REMARK VINA RESULT:      -7.7      1.143      1.473
REMARK  Name = 
REMARK  5 active torsions:
REMARK  status: ('A' for Active; 'I' for Inactive)
REMARK    1  A    between atoms: C_2  and  C_3
REMARK    2  A    between atoms: C_3  and  N_4
REMARK    3  A    between atoms: N_21  and  C_22
REMARK    4  A    between atoms: C_22  and  C_23
REMARK    5  A    between atoms: C_23  and  N_24
REMARK                            x       y       z     vdW  Elec       q    Type
REMARK                         _______ _______ _______ _____ _____    ______ ____
ROOT
ATOM      1  N   UNL     1       5.330   6.127  16.964  0.00  0.00    +0.000 N 
ATOM      2  C   UNL     1       5.775   5.436  15.846  0.00  0.00    +0.000 A 
ATOM      3  C   UNL     1       6.593   5.829  14.774  0.00  0.00    +0.000 A 
ATOM      4  C   UNL     1       6.892   4.879  13.789  0.00  0.00    +0.000 A 
ATOM      5  C   UNL     1       6.403   3.580  13.869  0.00  0.00    +0.000 A 
ATOM      6  C   UNL     1       5.582   3.197  14.932  0.00  0.00    +0.000 A 
ATOM      7  C   UNL     1       5.257   4.136  15.933  0.00  0.00    +0.000 A 
ATOM      8  C   UNL     1       4.453   4.082  17.100  0.00  0.00    +0.000 A 
ATOM      9  N   UNL     1       3.712   3.065  17.609  0.00  0.00    +0.000 NA
ATOM     10  C   UNL     1       3.037   3.376  18.722  0.00  0.00    +0.000 A 
ATOM     11  C   UNL     1       2.238   2.396  19.298  0.00  0.00    +0.000 A 
ATOM     12  C   UNL     1       1.495   2.643  20.451  0.00  0.00    +0.000 A 
ATOM     13  C   UNL     1       1.549   3.898  21.041  0.00  0.00    +0.000 A 
ATOM     14  C   UNL     1       2.350   4.893  20.477  0.00  0.00    +0.000 A 
ATOM     15  C   UNL     1       3.099   4.664  19.330  0.00  0.00    +0.000 A 
ATOM     16  N   UNL     1       3.851   5.672  18.843  0.00  0.00    +0.000 NA
ATOM     17  C   UNL     1       4.505   5.325  17.714  0.00  0.00    +0.000 A 
ENDROOT
BRANCH   1  18
ATOM     18  C   UNL     1       5.644   7.506  17.303  0.00  0.00    +0.000 C 
BRANCH  18  20
ATOM     19  O   UNL     1       7.705   6.673  18.218  0.00  0.00    +0.000 OA
ATOM     20  C   UNL     1       7.068   7.642  17.809  0.00  0.00    +0.000 C 
ATOM     21  N   UNL     1       7.582   8.921  17.802  0.00  0.00    +0.000 N 
ATOM     22  H   UNL     1       7.074   9.672  17.349  0.00  0.00    +0.000 HD
BRANCH  21  23
ATOM     23  C   UNL     1       8.883   9.235  18.371  0.00  0.00    +0.000 C 
BRANCH  23  24
ATOM     24  C   UNL     1       9.203  10.744  18.420  0.00  0.00    +0.000 C 
BRANCH  24  25
ATOM     25  N   UNL     1      10.443  11.118  19.138  0.00  0.00    +0.000 NA
ATOM     26  C   UNL     1      11.468  11.749  18.278  0.00  0.00    +0.000 C 
ATOM     27  C   UNL     1      11.165  13.197  17.821  0.00  0.00    +0.000 C 
ATOM     28  N   UNL     1      10.785  14.104  18.911  0.00  0.00    +0.000 NA
ATOM     29  C   UNL     1       9.769  13.498  19.779  0.00  0.00    +0.000 C 
ATOM     30  C   UNL     1      10.137  12.066  20.239  0.00  0.00    +0.000 C 
ATOM     31  H   UNL     1      10.428  14.976  18.522  0.00  0.00    +0.000 HD
ENDBRANCH  24  25
ENDBRANCH  23  24
ENDBRANCH  21  23
ENDBRANCH  18  20
ENDBRANCH   1  18
TORSDOF 5
ENDMDL
