MODEL 1
REMARK VINA RESULT:      -8.2      0.000      0.000
REMARK  Name = 
REMARK  5 active torsions:
REMARK  status: ('A' for Active; 'I' for Inactive)
REMARK    1  A    between atoms: C_1  and  C_2
REMARK    2  A    between atoms: C_2  and  N_3
REMARK    3  A    between atoms: N_6  and  C_7
REMARK    4  A    between atoms: C_7  and  C_8
REMARK    5  A    between atoms: N_10  and  C_11
REMARK                            x       y       z     vdW  Elec       q    Type
REMARK                         _______ _______ _______ _____ _____    ______ ____
ROOT
ATOM      1  N   UNL     1       6.686   4.827  17.939  0.00  0.00    +0.000 N 
ATOM      2  C   UNL     1       5.727   4.641  18.930  0.00  0.00    +0.000 A 
ATOM      3  O   UNL     1       5.891   5.030  20.086  0.00  0.00    +0.000 OA
ATOM      4  N   UNL     1       4.549   4.010  18.556  0.00  0.00    +0.000 N 
ATOM      5  C   UNL     1       4.187   3.704  17.255  0.00  0.00    +0.000 A 
ATOM      6  O   UNL     1       3.101   3.227  16.935  0.00  0.00    +0.000 OA
ATOM      7  C   UNL     1       5.163   4.039  16.206  0.00  0.00    +0.000 A 
ATOM      8  C   UNL     1       4.806   3.897  14.858  0.00  0.00    +0.000 A 
ATOM      9  C   UNL     1       5.704   4.254  13.856  0.00  0.00    +0.000 A 
ATOM     10  C   UNL     1       6.974   4.701  14.203  0.00  0.00    +0.000 A 
ATOM     11  C   UNL     1       7.331   4.826  15.549  0.00  0.00    +0.000 A 
ATOM     12  C   UNL     1       6.414   4.543  16.575  0.00  0.00    +0.000 A 
ENDROOT
BRANCH   1  14
ATOM     13  C   UNL     1       7.821   7.022  18.190  0.00  0.00    +0.000 C 
ATOM     14  C   UNL     1       7.924   5.508  18.322  0.00  0.00    +0.000 C 
ENDBRANCH   1  14
BRANCH   4  15
ATOM     15  C   UNL     1       3.585   3.755  19.618  0.00  0.00    +0.000 C 
BRANCH  15  16
ATOM     16  C   UNL     1       2.515   4.848  19.613  0.00  0.00    +0.000 C 
ATOM     17  O   UNL     1       1.328   4.576  19.442  0.00  0.00    +0.000 OA
ATOM     18  N   UNL     1       3.022   6.133  19.791  0.00  0.00    +0.000 N 
ATOM     19  H   UNL     1       4.025   6.253  19.734  0.00  0.00    +0.000 HD
BRANCH  18  20
ATOM     20  C   UNL     1       2.232   7.292  19.673  0.00  0.00    +0.000 A 
ATOM     21  C   UNL     1       2.181   8.042  18.494  0.00  0.00    +0.000 A 
ATOM     22  C   UNL     1       1.501   9.260  18.464  0.00  0.00    +0.000 A 
ATOM     23  C   UNL     1       0.885   9.725  19.617  0.00  0.00    +0.000 A 
ATOM     24  F   UNL     1       0.297  10.928  19.612  0.00  0.00    +0.000 F 
ATOM     25  C   UNL     1       0.880   8.964  20.781  0.00  0.00    +0.000 A 
ATOM     26  C   UNL     1       1.525   7.725  20.801  0.00  0.00    +0.000 A 
ENDBRANCH  18  20
ENDBRANCH  15  16
ENDBRANCH   4  15
TORSDOF 4
ENDMDL
MODEL 2
REMARK VINA RESULT:      -8.1      0.315      1.016
REMARK  Name = 
REMARK  5 active torsions:
REMARK  status: ('A' for Active; 'I' for Inactive)
REMARK    1  A    between atoms: C_1  and  C_2
REMARK    2  A    between atoms: C_2  and  N_3
REMARK    3  A    between atoms: N_6  and  C_7
REMARK    4  A    between atoms: C_7  and  C_8
REMARK    5  A    between atoms: N_10  and  C_11
REMARK                            x       y       z     vdW  Elec       q    Type
REMARK                         _______ _______ _______ _____ _____    ______ ____
ROOT
ATOM      1  N   UNL     1       6.623   5.092  17.861  0.00  0.00    +0.000 N 
ATOM      2  C   UNL     1       5.647   4.925  18.837  0.00  0.00    +0.000 A 
ATOM      3  O   UNL     1       5.758   5.400  19.966  0.00  0.00    +0.000 OA
ATOM      4  N   UNL     1       4.513   4.209  18.478  0.00  0.00    +0.000 N 
ATOM      5  C   UNL     1       4.205   3.795  17.193  0.00  0.00    +0.000 A 
ATOM      6  O   UNL     1       3.155   3.241  16.880  0.00  0.00    +0.000 OA
ATOM      7  C   UNL     1       5.193   4.107  16.149  0.00  0.00    +0.000 A 
ATOM      8  C   UNL     1       4.883   3.855  14.805  0.00  0.00    +0.000 A 
ATOM      9  C   UNL     1       5.792   4.188  13.804  0.00  0.00    +0.000 A 
ATOM     10  C   UNL     1       7.027   4.723  14.151  0.00  0.00    +0.000 A 
ATOM     11  C   UNL     1       7.338   4.960  15.494  0.00  0.00    +0.000 A 
ATOM     12  C   UNL     1       6.407   4.700  16.513  0.00  0.00    +0.000 A 
ENDROOT
BRANCH   1  14
ATOM     13  C   UNL     1       7.678   7.341  17.888  0.00  0.00    +0.000 C 
ATOM     14  C   UNL     1       7.815   5.861  18.226  0.00  0.00    +0.000 C 
ENDBRANCH   1  14
BRANCH   4  15
ATOM     15  C   UNL     1       3.533   3.978  19.530  0.00  0.00    +0.000 C 
BRANCH  15  16
ATOM     16  C   UNL     1       2.481   5.089  19.505  0.00  0.00    +0.000 C 
ATOM     17  O   UNL     1       1.312   4.852  19.209  0.00  0.00    +0.000 OA
ATOM     18  N   UNL     1       2.987   6.348  19.819  0.00  0.00    +0.000 N 
ATOM     19  H   UNL     1       3.993   6.453  19.861  0.00  0.00    +0.000 HD
BRANCH  18  20
ATOM     20  C   UNL     1       2.226   7.528  19.712  0.00  0.00    +0.000 A 
ATOM     21  C   UNL     1       1.471   8.027  20.778  0.00  0.00    +0.000 A 
ATOM     22  C   UNL     1       0.619   9.115  20.588  0.00  0.00    +0.000 A 
ATOM     23  C   UNL     1       0.520   9.690  19.329  0.00  0.00    +0.000 A 
ATOM     24  F   UNL     1      -0.354  10.685  19.125  0.00  0.00    +0.000 F 
ATOM     25  C   UNL     1       1.304   9.239  18.273  0.00  0.00    +0.000 A 
ATOM     26  C   UNL     1       2.189   8.177  18.473  0.00  0.00    +0.000 A 
ENDBRANCH  18  20
ENDBRANCH  15  16
ENDBRANCH   4  15
TORSDOF 4
ENDMDL
MODEL 3
REMARK VINA RESULT:      -7.5      3.213      6.956
REMARK  Name = 
REMARK  5 active torsions:
REMARK  status: ('A' for Active; 'I' for Inactive)
REMARK    1  A    between atoms: C_1  and  C_2
REMARK    2  A    between atoms: C_2  and  N_3
REMARK    3  A    between atoms: N_6  and  C_7
REMARK    4  A    between atoms: C_7  and  C_8
REMARK    5  A    between atoms: N_10  and  C_11
REMARK                            x       y       z     vdW  Elec       q    Type
REMARK                         _______ _______ _______ _____ _____    ______ ____
ROOT
ATOM      1  N   UNL     1       3.060   6.055  18.376  0.00  0.00    +0.000 N 
ATOM      2  C   UNL     1       4.422   6.306  18.247  0.00  0.00    +0.000 A 
ATOM      3  O   UNL     1       4.856   7.366  17.800  0.00  0.00    +0.000 OA
ATOM      4  N   UNL     1       5.289   5.307  18.667  0.00  0.00    +0.000 N 
ATOM      5  C   UNL     1       4.915   4.163  19.352  0.00  0.00    +0.000 A 
ATOM      6  O   UNL     1       5.707   3.335  19.795  0.00  0.00    +0.000 OA
ATOM      7  C   UNL     1       3.475   3.987  19.600  0.00  0.00    +0.000 A 
ATOM      8  C   UNL     1       3.037   2.934  20.414  0.00  0.00    +0.000 A 
ATOM      9  C   UNL     1       1.681   2.785  20.693  0.00  0.00    +0.000 A 
ATOM     10  C   UNL     1       0.764   3.655  20.117  0.00  0.00    +0.000 A 
ATOM     11  C   UNL     1       1.204   4.696  19.293  0.00  0.00    +0.000 A 
ATOM     12  C   UNL     1       2.573   4.909  19.059  0.00  0.00    +0.000 A 
ENDROOT
BRANCH   1  14
ATOM     13  C   UNL     1       1.964   8.192  19.008  0.00  0.00    +0.000 C 
ATOM     14  C   UNL     1       2.138   7.110  17.950  0.00  0.00    +0.000 C 
ENDBRANCH   1  14
BRANCH   4  15
ATOM     15  C   UNL     1       6.710   5.552  18.458  0.00  0.00    +0.000 C 
BRANCH  15  16
ATOM     16  C   UNL     1       7.161   4.879  17.160  0.00  0.00    +0.000 C 
ATOM     17  O   UNL     1       8.145   4.141  17.135  0.00  0.00    +0.000 OA
ATOM     18  N   UNL     1       6.378   5.204  16.056  0.00  0.00    +0.000 N 
ATOM     19  H   UNL     1       5.715   5.962  16.158  0.00  0.00    +0.000 HD
BRANCH  18  20
ATOM     20  C   UNL     1       6.704   4.813  14.743  0.00  0.00    +0.000 A 
ATOM     21  C   UNL     1       7.678   5.476  13.989  0.00  0.00    +0.000 A 
ATOM     22  C   UNL     1       7.870   5.150  12.647  0.00  0.00    +0.000 A 
ATOM     23  C   UNL     1       7.078   4.170  12.064  0.00  0.00    +0.000 A 
ATOM     24  F   UNL     1       7.207   3.909  10.756  0.00  0.00    +0.000 F 
ATOM     25  C   UNL     1       6.143   3.466  12.815  0.00  0.00    +0.000 A 
ATOM     26  C   UNL     1       5.980   3.762  14.170  0.00  0.00    +0.000 A 
ENDBRANCH  18  20
ENDBRANCH  15  16
ENDBRANCH   4  15
TORSDOF 4
ENDMDL
MODEL 4
REMARK VINA RESULT:      -7.5      3.270      7.091
REMARK  Name = 
REMARK  5 active torsions:
REMARK  status: ('A' for Active; 'I' for Inactive)
REMARK    1  A    between atoms: C_1  and  C_2
REMARK    2  A    between atoms: C_2  and  N_3
REMARK    3  A    between atoms: N_6  and  C_7
REMARK    4  A    between atoms: C_7  and  C_8
REMARK    5  A    between atoms: N_10  and  C_11
REMARK                            x       y       z     vdW  Elec       q    Type
REMARK                         _______ _______ _______ _____ _____    ______ ____
ROOT
ATOM      1  N   UNL     1       2.933   6.181  18.466  0.00  0.00    +0.000 N 
ATOM      2  C   UNL     1       4.263   6.465  18.174  0.00  0.00    +0.000 A 
ATOM      3  O   UNL     1       4.614   7.532  17.671  0.00  0.00    +0.000 OA
ATOM      4  N   UNL     1       5.200   5.492  18.495  0.00  0.00    +0.000 N 
ATOM      5  C   UNL     1       4.940   4.347  19.227  0.00  0.00    +0.000 A 
ATOM      6  O   UNL     1       5.799   3.543  19.579  0.00  0.00    +0.000 OA
ATOM      7  C   UNL     1       3.545   4.138  19.646  0.00  0.00    +0.000 A 
ATOM      8  C   UNL     1       3.233   3.082  20.514  0.00  0.00    +0.000 A 
ATOM      9  C   UNL     1       1.925   2.902  20.954  0.00  0.00    +0.000 A 
ATOM     10  C   UNL     1       0.923   3.743  20.484  0.00  0.00    +0.000 A 
ATOM     11  C   UNL     1       1.236   4.786  19.606  0.00  0.00    +0.000 A 
ATOM     12  C   UNL     1       2.561   5.031  19.210  0.00  0.00    +0.000 A 
ENDROOT
BRANCH   1  14
ATOM     13  C   UNL     1       1.848   8.284  19.221  0.00  0.00    +0.000 C 
ATOM     14  C   UNL     1       1.941   7.209  18.145  0.00  0.00    +0.000 C 
ENDBRANCH   1  14
BRANCH   4  15
ATOM     15  C   UNL     1       6.579   5.770  18.117  0.00  0.00    +0.000 C 
BRANCH  15  16
ATOM     16  C   UNL     1       6.926   5.003  16.839  0.00  0.00    +0.000 C 
ATOM     17  O   UNL     1       7.849   4.191  16.815  0.00  0.00    +0.000 OA
ATOM     18  N   UNL     1       6.126   5.336  15.749  0.00  0.00    +0.000 N 
ATOM     19  H   UNL     1       5.526   6.147  15.837  0.00  0.00    +0.000 HD
BRANCH  18  20
ATOM     20  C   UNL     1       6.368   4.859  14.447  0.00  0.00    +0.000 A 
ATOM     21  C   UNL     1       5.588   3.855  13.864  0.00  0.00    +0.000 A 
ATOM     22  C   UNL     1       5.949   3.311  12.631  0.00  0.00    +0.000 A 
ATOM     23  C   UNL     1       7.095   3.767  11.995  0.00  0.00    +0.000 A 
ATOM     24  F   UNL     1       7.487   3.193  10.849  0.00  0.00    +0.000 F 
ATOM     25  C   UNL     1       7.850   4.801  12.537  0.00  0.00    +0.000 A 
ATOM     26  C   UNL     1       7.466   5.376  13.750  0.00  0.00    +0.000 A 
ENDBRANCH  18  20
ENDBRANCH  15  16
ENDBRANCH   4  15
TORSDOF 4
ENDMDL
MODEL 5
REMARK VINA RESULT:      -7.2      4.429      9.200
REMARK  Name = 
REMARK  5 active torsions:
REMARK  status: ('A' for Active; 'I' for Inactive)
REMARK    1  A    between atoms: C_1  and  C_2
REMARK    2  A    between atoms: C_2  and  N_3
REMARK    3  A    between atoms: N_6  and  C_7
REMARK    4  A    between atoms: C_7  and  C_8
REMARK    5  A    between atoms: N_10  and  C_11
REMARK                            x       y       z     vdW  Elec       q    Type
REMARK                         _______ _______ _______ _____ _____    ______ ____
ROOT
ATOM      1  N   UNL     1      -0.780  11.587  19.899  0.00  0.00    +0.000 N 
ATOM      2  C   UNL     1       0.306  10.756  20.152  0.00  0.00    +0.000 A 
ATOM      3  O   UNL     1       1.155  10.504  19.297  0.00  0.00    +0.000 OA
ATOM      4  N   UNL     1       0.412  10.229  21.431  0.00  0.00    +0.000 N 
ATOM      5  C   UNL     1      -0.374  10.593  22.511  0.00  0.00    +0.000 A 
ATOM      6  O   UNL     1      -0.206  10.182  23.656  0.00  0.00    +0.000 OA
ATOM      7  C   UNL     1      -1.432  11.581  22.249  0.00  0.00    +0.000 A 
ATOM      8  C   UNL     1      -2.168  12.109  23.319  0.00  0.00    +0.000 A 
ATOM      9  C   UNL     1      -3.139  13.078  23.089  0.00  0.00    +0.000 A 
ATOM     10  C   UNL     1      -3.410  13.480  21.786  0.00  0.00    +0.000 A 
ATOM     11  C   UNL     1      -2.684  12.941  20.719  0.00  0.00    +0.000 A 
ATOM     12  C   UNL     1      -1.649  12.017  20.938  0.00  0.00    +0.000 A 
ENDROOT
BRANCH   1  14
ATOM     13  C   UNL     1      -1.756  11.314  17.631  0.00  0.00    +0.000 C 
ATOM     14  C   UNL     1      -0.890  12.160  18.556  0.00  0.00    +0.000 C 
ENDBRANCH   1  14
BRANCH   4  15
ATOM     15  C   UNL     1       1.513   9.302  21.662  0.00  0.00    +0.000 C 
BRANCH  15  16
ATOM     16  C   UNL     1       1.183   7.947  21.033  0.00  0.00    +0.000 C 
ATOM     17  O   UNL     1       0.078   7.427  21.184  0.00  0.00    +0.000 OA
ATOM     18  N   UNL     1       2.240   7.384  20.323  0.00  0.00    +0.000 N 
ATOM     19  H   UNL     1       3.153   7.811  20.423  0.00  0.00    +0.000 HD
BRANCH  18  20
ATOM     20  C   UNL     1       2.199   6.081  19.791  0.00  0.00    +0.000 A 
ATOM     21  C   UNL     1       2.222   5.837  18.414  0.00  0.00    +0.000 A 
ATOM     22  C   UNL     1       2.034   4.543  17.927  0.00  0.00    +0.000 A 
ATOM     23  C   UNL     1       1.813   3.504  18.820  0.00  0.00    +0.000 A 
ATOM     24  F   UNL     1       1.556   2.275  18.352  0.00  0.00    +0.000 F 
ATOM     25  C   UNL     1       1.842   3.723  20.193  0.00  0.00    +0.000 A 
ATOM     26  C   UNL     1       2.072   5.010  20.683  0.00  0.00    +0.000 A 
ENDBRANCH  18  20
ENDBRANCH  15  16
ENDBRANCH   4  15
TORSDOF 4
ENDMDL
MODEL 6
REMARK VINA RESULT:      -7.1      4.432      9.289
REMARK  Name = 
REMARK  5 active torsions:
REMARK  status: ('A' for Active; 'I' for Inactive)
REMARK    1  A    between atoms: C_1  and  C_2
REMARK    2  A    between atoms: C_2  and  N_3
REMARK    3  A    between atoms: N_6  and  C_7
REMARK    4  A    between atoms: C_7  and  C_8
REMARK    5  A    between atoms: N_10  and  C_11
REMARK                            x       y       z     vdW  Elec       q    Type
REMARK                         _______ _______ _______ _____ _____    ______ ____
ROOT
ATOM      1  N   UNL     1      -0.850  11.585  19.909  0.00  0.00    +0.000 N 
ATOM      2  C   UNL     1       0.272  10.787  20.103  0.00  0.00    +0.000 A 
ATOM      3  O   UNL     1       1.101  10.591  19.215  0.00  0.00    +0.000 OA
ATOM      4  N   UNL     1       0.438  10.228  21.362  0.00  0.00    +0.000 N 
ATOM      5  C   UNL     1      -0.326  10.531  22.476  0.00  0.00    +0.000 A 
ATOM      6  O   UNL     1      -0.107  10.094  23.603  0.00  0.00    +0.000 OA
ATOM      7  C   UNL     1      -1.426  11.488  22.276  0.00  0.00    +0.000 A 
ATOM      8  C   UNL     1      -2.145  11.957  23.384  0.00  0.00    +0.000 A 
ATOM      9  C   UNL     1      -3.158  12.897  23.213  0.00  0.00    +0.000 A 
ATOM     10  C   UNL     1      -3.484  13.326  21.932  0.00  0.00    +0.000 A 
ATOM     11  C   UNL     1      -2.774  12.845  20.827  0.00  0.00    +0.000 A 
ATOM     12  C   UNL     1      -1.700  11.953  20.986  0.00  0.00    +0.000 A 
ENDROOT
BRANCH   1  14
ATOM     13  C   UNL     1      -1.901  11.351  17.670  0.00  0.00    +0.000 C 
ATOM     14  C   UNL     1      -1.023  12.193  18.588  0.00  0.00    +0.000 C 
ENDBRANCH   1  14
BRANCH   4  15
ATOM     15  C   UNL     1       1.577   9.335  21.530  0.00  0.00    +0.000 C 
BRANCH  15  16
ATOM     16  C   UNL     1       1.210   7.935  21.034  0.00  0.00    +0.000 C 
ATOM     17  O   UNL     1       0.104   7.449  21.261  0.00  0.00    +0.000 OA
ATOM     18  N   UNL     1       2.239   7.295  20.348  0.00  0.00    +0.000 N 
ATOM     19  H   UNL     1       3.160   7.713  20.385  0.00  0.00    +0.000 HD
BRANCH  18  20
ATOM     20  C   UNL     1       2.164   5.950  19.936  0.00  0.00    +0.000 A 
ATOM     21  C   UNL     1       2.154   4.891  20.850  0.00  0.00    +0.000 A 
ATOM     22  C   UNL     1       2.224   3.573  20.399  0.00  0.00    +0.000 A 
ATOM     23  C   UNL     1       2.316   3.323  19.037  0.00  0.00    +0.000 A 
ATOM     24  F   UNL     1       2.461   2.063  18.605  0.00  0.00    +0.000 F 
ATOM     25  C   UNL     1       2.273   4.363  18.115  0.00  0.00    +0.000 A 
ATOM     26  C   UNL     1       2.160   5.681  18.563  0.00  0.00    +0.000 A 
ENDBRANCH  18  20
ENDBRANCH  15  16
ENDBRANCH   4  15
TORSDOF 4
ENDMDL
MODEL 7
REMARK VINA RESULT:      -6.9      4.857      7.473
REMARK  Name = 
REMARK  5 active torsions:
REMARK  status: ('A' for Active; 'I' for Inactive)
REMARK    1  A    between atoms: C_1  and  C_2
REMARK    2  A    between atoms: C_2  and  N_3
REMARK    3  A    between atoms: N_6  and  C_7
REMARK    4  A    between atoms: C_7  and  C_8
REMARK    5  A    between atoms: N_10  and  C_11
REMARK                            x       y       z     vdW  Elec       q    Type
REMARK                         _______ _______ _______ _____ _____    ______ ____
ROOT
ATOM      1  N   UNL     1       1.094   9.395  21.182  0.00  0.00    +0.000 N 
ATOM      2  C   UNL     1       1.081  10.687  20.670  0.00  0.00    +0.000 A 
ATOM      3  O   UNL     1       0.904  11.675  21.382  0.00  0.00    +0.000 OA
ATOM      4  N   UNL     1       1.298  10.827  19.306  0.00  0.00    +0.000 N 
ATOM      5  C   UNL     1       1.690   9.810  18.453  0.00  0.00    +0.000 A 
ATOM      6  O   UNL     1       1.965   9.971  17.267  0.00  0.00    +0.000 OA
ATOM      7  C   UNL     1       1.833   8.472  19.050  0.00  0.00    +0.000 A 
ATOM      8  C   UNL     1       2.368   7.427  18.284  0.00  0.00    +0.000 A 
ATOM      9  C   UNL     1       2.552   6.169  18.851  0.00  0.00    +0.000 A 
ATOM     10  C   UNL     1       2.151   5.944  20.163  0.00  0.00    +0.000 A 
ATOM     11  C   UNL     1       1.603   6.986  20.919  0.00  0.00    +0.000 A 
ATOM     12  C   UNL     1       1.479   8.281  20.389  0.00  0.00    +0.000 A 
ENDROOT
BRANCH   1  14
ATOM     13  C   UNL     1      -0.586   9.362  23.011  0.00  0.00    +0.000 C 
ATOM     14  C   UNL     1       0.882   9.240  22.623  0.00  0.00    +0.000 C 
ENDBRANCH   1  14
BRANCH   4  15
ATOM     15  C   UNL     1       1.208  12.179  18.771  0.00  0.00    +0.000 C 
BRANCH  15  16
ATOM     16  C   UNL     1      -0.238  12.477  18.370  0.00  0.00    +0.000 C 
ATOM     17  O   UNL     1      -0.681  13.624  18.390  0.00  0.00    +0.000 OA
ATOM     18  N   UNL     1      -0.970  11.345  18.021  0.00  0.00    +0.000 N 
ATOM     19  H   UNL     1      -0.560  10.441  18.222  0.00  0.00    +0.000 HD
BRANCH  18  20
ATOM     20  C   UNL     1      -2.354  11.376  17.764  0.00  0.00    +0.000 A 
ATOM     21  C   UNL     1      -2.881  11.128  16.492  0.00  0.00    +0.000 A 
ATOM     22  C   UNL     1      -4.242  11.310  16.248  0.00  0.00    +0.000 A 
ATOM     23  C   UNL     1      -5.066  11.750  17.275  0.00  0.00    +0.000 A 
ATOM     24  F   UNL     1      -6.358  11.999  17.023  0.00  0.00    +0.000 F 
ATOM     25  C   UNL     1      -4.566  11.949  18.557  0.00  0.00    +0.000 A 
ATOM     26  C   UNL     1      -3.211  11.726  18.813  0.00  0.00    +0.000 A 
ENDBRANCH  18  20
ENDBRANCH  15  16
ENDBRANCH   4  15
TORSDOF 4
ENDMDL
MODEL 8
REMARK VINA RESULT:      -6.9      3.676      6.026
REMARK  Name = 
REMARK  5 active torsions:
REMARK  status: ('A' for Active; 'I' for Inactive)
REMARK    1  A    between atoms: C_1  and  C_2
REMARK    2  A    between atoms: C_2  and  N_3
REMARK    3  A    between atoms: N_6  and  C_7
REMARK    4  A    between atoms: C_7  and  C_8
REMARK    5  A    between atoms: N_10  and  C_11
REMARK                            x       y       z     vdW  Elec       q    Type
REMARK                         _______ _______ _______ _____ _____    ______ ____
ROOT
ATOM      1  N   UNL     1       5.565   4.751  16.108  0.00  0.00    +0.000 N 
ATOM      2  C   UNL     1       6.706   5.455  16.478  0.00  0.00    +0.000 A 
ATOM      3  O   UNL     1       7.453   5.978  15.651  0.00  0.00    +0.000 OA
ATOM      4  N   UNL     1       6.965   5.567  17.837  0.00  0.00    +0.000 N 
ATOM      5  C   UNL     1       6.101   5.183  18.847  0.00  0.00    +0.000 A 
ATOM      6  O   UNL     1       6.309   5.372  20.043  0.00  0.00    +0.000 OA
ATOM      7  C   UNL     1       4.834   4.564  18.427  0.00  0.00    +0.000 A 
ATOM      8  C   UNL     1       3.847   4.287  19.384  0.00  0.00    +0.000 A 
ATOM      9  C   UNL     1       2.627   3.744  18.992  0.00  0.00    +0.000 A 
ATOM     10  C   UNL     1       2.415   3.431  17.654  0.00  0.00    +0.000 A 
ATOM     11  C   UNL     1       3.407   3.695  16.705  0.00  0.00    +0.000 A 
ATOM     12  C   UNL     1       4.616   4.311  17.069  0.00  0.00    +0.000 A 
ENDROOT
BRANCH   1  14
ATOM     13  C   UNL     1       6.205   3.666  13.967  0.00  0.00    +0.000 C 
ATOM     14  C   UNL     1       5.276   4.643  14.677  0.00  0.00    +0.000 C 
ENDBRANCH   1  14
BRANCH   4  15
ATOM     15  C   UNL     1       8.202   6.243  18.208  0.00  0.00    +0.000 C 
BRANCH  15  16
ATOM     16  C   UNL     1       7.975   7.756  18.225  0.00  0.00    +0.000 C 
ATOM     17  O   UNL     1       7.042   8.266  17.607  0.00  0.00    +0.000 OA
ATOM     18  N   UNL     1       8.920   8.457  18.969  0.00  0.00    +0.000 N 
ATOM     19  H   UNL     1       9.743   7.955  19.276  0.00  0.00    +0.000 HD
BRANCH  18  20
ATOM     20  C   UNL     1       8.983   9.864  18.996  0.00  0.00    +0.000 A 
ATOM     21  C   UNL     1       8.785  10.641  17.850  0.00  0.00    +0.000 A 
ATOM     22  C   UNL     1       8.997  12.019  17.889  0.00  0.00    +0.000 A 
ATOM     23  C   UNL     1       9.417  12.610  19.073  0.00  0.00    +0.000 A 
ATOM     24  F   UNL     1       9.696  13.920  19.094  0.00  0.00    +0.000 F 
ATOM     25  C   UNL     1       9.565  11.859  20.234  0.00  0.00    +0.000 A 
ATOM     26  C   UNL     1       9.312  10.485  20.206  0.00  0.00    +0.000 A 
ENDBRANCH  18  20
ENDBRANCH  15  16
ENDBRANCH   4  15
TORSDOF 4
ENDMDL
MODEL 9
REMARK VINA RESULT:      -6.7      3.333      7.171
REMARK  Name = 
REMARK  5 active torsions:
REMARK  status: ('A' for Active; 'I' for Inactive)
REMARK    1  A    between atoms: C_1  and  C_2
REMARK    2  A    between atoms: C_2  and  N_3
REMARK    3  A    between atoms: N_6  and  C_7
REMARK    4  A    between atoms: C_7  and  C_8
REMARK    5  A    between atoms: N_10  and  C_11
REMARK                            x       y       z     vdW  Elec       q    Type
REMARK                         _______ _______ _______ _____ _____    ______ ____
ROOT
ATOM      1  N   UNL     1       2.502   6.410  19.117  0.00  0.00    +0.000 N 
ATOM      2  C   UNL     1       3.616   6.967  18.499  0.00  0.00    +0.000 A 
ATOM      3  O   UNL     1       3.659   8.149  18.162  0.00  0.00    +0.000 OA
ATOM      4  N   UNL     1       4.705   6.131  18.291  0.00  0.00    +0.000 N 
ATOM      5  C   UNL     1       4.832   4.848  18.794  0.00  0.00    +0.000 A 
ATOM      6  O   UNL     1       5.841   4.157  18.676  0.00  0.00    +0.000 OA
ATOM      7  C   UNL     1       3.692   4.330  19.566  0.00  0.00    +0.000 A 
ATOM      8  C   UNL     1       3.807   3.101  20.231  0.00  0.00    +0.000 A 
ATOM      9  C   UNL     1       2.752   2.622  21.002  0.00  0.00    +0.000 A 
ATOM     10  C   UNL     1       1.566   3.345  21.064  0.00  0.00    +0.000 A 
ATOM     11  C   UNL     1       1.450   4.563  20.387  0.00  0.00    +0.000 A 
ATOM     12  C   UNL     1       2.529   5.100  19.665  0.00  0.00    +0.000 A 
ENDROOT
BRANCH   1  14
ATOM     13  C   UNL     1       1.459   8.035  20.679  0.00  0.00    +0.000 C 
ATOM     14  C   UNL     1       1.355   7.289  19.355  0.00  0.00    +0.000 C 
ENDBRANCH   1  14
BRANCH   4  15
ATOM     15  C   UNL     1       5.836   6.707  17.577  0.00  0.00    +0.000 C 
BRANCH  15  16
ATOM     16  C   UNL     1       5.737   6.358  16.090  0.00  0.00    +0.000 C 
ATOM     17  O   UNL     1       4.935   6.931  15.355  0.00  0.00    +0.000 OA
ATOM     18  N   UNL     1       6.604   5.344  15.692  0.00  0.00    +0.000 N 
ATOM     19  H   UNL     1       7.080   4.821  16.416  0.00  0.00    +0.000 HD
BRANCH  18  20
ATOM     20  C   UNL     1       6.572   4.770  14.406  0.00  0.00    +0.000 A 
ATOM     21  C   UNL     1       5.617   3.816  14.040  0.00  0.00    +0.000 A 
ATOM     22  C   UNL     1       5.708   3.168  12.808  0.00  0.00    +0.000 A 
ATOM     23  C   UNL     1       6.759   3.471  11.954  0.00  0.00    +0.000 A 
ATOM     24  F   UNL     1       6.892   2.797  10.805  0.00  0.00    +0.000 F 
ATOM     25  C   UNL     1       7.684   4.457  12.282  0.00  0.00    +0.000 A 
ATOM     26  C   UNL     1       7.571   5.136  13.497  0.00  0.00    +0.000 A 
ENDBRANCH  18  20
ENDBRANCH  15  16
ENDBRANCH   4  15
TORSDOF 4
ENDMDL
