MODEL 1
REMARK VINA RESULT:      -9.6      0.000      0.000
REMARK  Name = 
REMARK  6 active torsions:
REMARK  status: ('A' for Active; 'I' for Inactive)
REMARK    1  A    between atoms: C_2  and  C_3
REMARK    2  A    between atoms: C_2  and  C_26
REMARK    3  A    between atoms: C_3  and  C_18
REMARK    4  A    between atoms: C_4  and  N_5
REMARK    5  A    between atoms: N_5  and  C_6
REMARK    6  A    between atoms: C_18  and  C_20
REMARK                            x       y       z     vdW  Elec       q    Type
REMARK                         _______ _______ _______ _____ _____    ______ ____
ROOT
ATOM      1  C   UNL     1       3.176   5.796  17.992  0.00  0.00    +0.000 C 
ATOM      2  C   UNL     1       2.929   7.007  18.542  0.00  0.00    +0.000 C 
ENDROOT
BRANCH   1   4
ATOM      3  O   UNL     1       1.404   4.347  17.278  0.00  0.00    +0.000 OA
ATOM      4  C   UNL     1       2.212   4.632  18.134  0.00  0.00    +0.000 C 
BRANCH   4   5
ATOM      5  C   UNL     1       2.200   3.807  19.385  0.00  0.00    +0.000 A 
ATOM      6  C   UNL     1       1.046   3.689  20.175  0.00  0.00    +0.000 A 
ATOM      7  C   UNL     1       1.093   2.943  21.357  0.00  0.00    +0.000 A 
ATOM      8  C   UNL     1       2.271   2.305  21.742  0.00  0.00    +0.000 A 
ATOM      9  C   UNL     1       3.411   2.403  20.948  0.00  0.00    +0.000 A 
ATOM     10  C   UNL     1       3.379   3.173  19.797  0.00  0.00    +0.000 A 
ENDBRANCH   4   5
ENDBRANCH   1   4
BRANCH   2  11
ATOM     11  N   UNL     1       2.007   7.426  19.471  0.00  0.00    +0.000 N 
ATOM     12  H   UNL     1       1.757   6.781  20.225  0.00  0.00    +0.000 HD
BRANCH  11  13
ATOM     13  C   UNL     1       1.443   8.673  19.654  0.00  0.00    +0.000 A 
ATOM     14  C   UNL     1       0.964   9.157  20.809  0.00  0.00    +0.000 A 
ATOM     15  C   UNL     1       0.344  10.445  20.885  0.00  0.00    +0.000 A 
ATOM     16  C   UNL     1       0.207  11.175  19.772  0.00  0.00    +0.000 A 
ATOM     17  O   UNL     1       0.728  10.735  18.531  0.00  0.00    +0.000 OA
ATOM     18  C   UNL     1       1.392   9.545  18.429  0.00  0.00    +0.000 A 
ATOM     19  O   UNL     1       1.906   9.167  17.380  0.00  0.00    +0.000 OA
ATOM     20  C   UNL     1      -0.513  12.491  19.702  0.00  0.00    +0.000 C 
ATOM     21  C   UNL     1      -1.378  12.727  20.938  0.00  0.00    +0.000 C 
ATOM     22  C   UNL     1      -0.594  12.428  22.208  0.00  0.00    +0.000 C 
ATOM     23  C   UNL     1      -0.149  10.981  22.196  0.00  0.00    +0.000 C 
ATOM     24  O   UNL     1      -0.122  10.302  23.202  0.00  0.00    +0.000 OA
ENDBRANCH  11  13
ENDBRANCH   2  11
BRANCH   1  25
ATOM     25  C   UNL     1       4.468   5.597  17.199  0.00  0.00    +0.000 C 
ATOM     26  O   UNL     1       4.496   5.003  16.145  0.00  0.00    +0.000 OA
BRANCH  25  27
ATOM     27  C   UNL     1       5.777   6.119  17.731  0.00  0.00    +0.000 A 
ATOM     28  C   UNL     1       6.413   5.450  18.781  0.00  0.00    +0.000 A 
ATOM     29  C   UNL     1       7.642   5.870  19.265  0.00  0.00    +0.000 A 
ATOM     30  C   UNL     1       8.274   6.962  18.681  0.00  0.00    +0.000 A 
ATOM     31  C   UNL     1       7.652   7.660  17.647  0.00  0.00    +0.000 A 
ATOM     32  C   UNL     1       6.399   7.251  17.172  0.00  0.00    +0.000 A 
ENDBRANCH  25  27
ENDBRANCH   1  25
TORSDOF 6
ENDMDL
MODEL 2
REMARK VINA RESULT:      -9.6      2.303      3.114
REMARK  Name = 
REMARK  6 active torsions:
REMARK  status: ('A' for Active; 'I' for Inactive)
REMARK    1  A    between atoms: C_2  and  C_3
REMARK    2  A    between atoms: C_2  and  C_26
REMARK    3  A    between atoms: C_3  and  C_18
REMARK    4  A    between atoms: C_4  and  N_5
REMARK    5  A    between atoms: N_5  and  C_6
REMARK    6  A    between atoms: C_18  and  C_20
REMARK                            x       y       z     vdW  Elec       q    Type
REMARK                         _______ _______ _______ _____ _____    ______ ____
ROOT
ATOM      1  C   UNL     1       2.566   7.030  18.733  0.00  0.00    +0.000 C 
ATOM      2  C   UNL     1       2.373   8.256  18.197  0.00  0.00    +0.000 C 
ENDROOT
BRANCH   1   4
ATOM      3  O   UNL     1       1.529   7.407  20.863  0.00  0.00    +0.000 OA
ATOM      4  C   UNL     1       1.915   6.608  20.039  0.00  0.00    +0.000 C 
BRANCH   4   5
ATOM      5  C   UNL     1       1.767   5.154  20.376  0.00  0.00    +0.000 A 
ATOM      6  C   UNL     1       0.810   4.348  19.740  0.00  0.00    +0.000 A 
ATOM      7  C   UNL     1       0.678   3.008  20.117  0.00  0.00    +0.000 A 
ATOM      8  C   UNL     1       1.500   2.469  21.105  0.00  0.00    +0.000 A 
ATOM      9  C   UNL     1       2.465   3.261  21.721  0.00  0.00    +0.000 A 
ATOM     10  C   UNL     1       2.572   4.600  21.378  0.00  0.00    +0.000 A 
ENDBRANCH   4   5
ENDBRANCH   1   4
BRANCH   2  11
ATOM     11  N   UNL     1       1.830   9.411  18.708  0.00  0.00    +0.000 N 
ATOM     12  H   UNL     1       2.469  10.122  19.072  0.00  0.00    +0.000 HD
BRANCH  11  13
ATOM     13  C   UNL     1       0.524   9.858  18.681  0.00  0.00    +0.000 A 
ATOM     14  C   UNL     1      -0.341   9.696  17.670  0.00  0.00    +0.000 A 
ATOM     15  C   UNL     1      -1.661  10.249  17.714  0.00  0.00    +0.000 A 
ATOM     16  C   UNL     1      -2.035  10.973  18.775  0.00  0.00    +0.000 A 
ATOM     17  O   UNL     1      -1.180  11.145  19.891  0.00  0.00    +0.000 OA
ATOM     18  C   UNL     1       0.061  10.573  19.921  0.00  0.00    +0.000 A 
ATOM     19  O   UNL     1       0.798  10.654  20.899  0.00  0.00    +0.000 OA
ATOM     20  C   UNL     1      -3.351  11.687  18.897  0.00  0.00    +0.000 C 
ATOM     21  C   UNL     1      -4.055  11.803  17.546  0.00  0.00    +0.000 C 
ATOM     22  C   UNL     1      -4.053  10.464  16.823  0.00  0.00    +0.000 C 
ATOM     23  C   UNL     1      -2.624  10.021  16.588  0.00  0.00    +0.000 C 
ATOM     24  O   UNL     1      -2.280   9.449  15.573  0.00  0.00    +0.000 OA
ENDBRANCH  11  13
ENDBRANCH   2  11
BRANCH   1  25
ATOM     25  C   UNL     1       3.465   6.036  17.998  0.00  0.00    +0.000 C 
ATOM     26  O   UNL     1       3.021   5.151  17.303  0.00  0.00    +0.000 OA
BRANCH  25  27
ATOM     27  C   UNL     1       4.963   6.112  18.144  0.00  0.00    +0.000 A 
ATOM     28  C   UNL     1       5.591   5.436  19.195  0.00  0.00    +0.000 A 
ATOM     29  C   UNL     1       6.969   5.440  19.335  0.00  0.00    +0.000 A 
ATOM     30  C   UNL     1       7.753   6.104  18.398  0.00  0.00    +0.000 A 
ATOM     31  C   UNL     1       7.152   6.803  17.352  0.00  0.00    +0.000 A 
ATOM     32  C   UNL     1       5.757   6.819  17.223  0.00  0.00    +0.000 A 
ENDBRANCH  25  27
ENDBRANCH   1  25
TORSDOF 6
ENDMDL
MODEL 3
REMARK VINA RESULT:      -9.5      1.766      4.390
REMARK  Name = 
REMARK  6 active torsions:
REMARK  status: ('A' for Active; 'I' for Inactive)
REMARK    1  A    between atoms: C_2  and  C_3
REMARK    2  A    between atoms: C_2  and  C_26
REMARK    3  A    between atoms: C_3  and  C_18
REMARK    4  A    between atoms: C_4  and  N_5
REMARK    5  A    between atoms: N_5  and  C_6
REMARK    6  A    between atoms: C_18  and  C_20
REMARK                            x       y       z     vdW  Elec       q    Type
REMARK                         _______ _______ _______ _____ _____    ______ ____
ROOT
ATOM      1  C   UNL     1       1.985   5.951  19.985  0.00  0.00    +0.000 C 
ATOM      2  C   UNL     1       1.779   6.715  21.081  0.00  0.00    +0.000 C 
ENDROOT
BRANCH   1   4
ATOM      3  O   UNL     1       2.287   7.356  18.064  0.00  0.00    +0.000 OA
ATOM      4  C   UNL     1       2.726   6.472  18.766  0.00  0.00    +0.000 C 
BRANCH   4   5
ATOM      5  C   UNL     1       4.034   5.864  18.358  0.00  0.00    +0.000 A 
ATOM      6  C   UNL     1       4.242   5.374  17.059  0.00  0.00    +0.000 A 
ATOM      7  C   UNL     1       5.464   4.776  16.736  0.00  0.00    +0.000 A 
ATOM      8  C   UNL     1       6.477   4.681  17.689  0.00  0.00    +0.000 A 
ATOM      9  C   UNL     1       6.281   5.187  18.971  0.00  0.00    +0.000 A 
ATOM     10  C   UNL     1       5.057   5.745  19.306  0.00  0.00    +0.000 A 
ENDBRANCH   4   5
ENDBRANCH   1   4
BRANCH   2  11
ATOM     11  N   UNL     1       1.918   8.064  21.306  0.00  0.00    +0.000 N 
ATOM     12  H   UNL     1       2.860   8.431  21.459  0.00  0.00    +0.000 HD
BRANCH  11  13
ATOM     13  C   UNL     1       0.981   9.074  21.213  0.00  0.00    +0.000 A 
ATOM     14  C   UNL     1       0.308   9.422  20.106  0.00  0.00    +0.000 A 
ATOM     15  C   UNL     1      -0.604  10.525  20.097  0.00  0.00    +0.000 A 
ATOM     16  C   UNL     1      -0.768  11.251  21.209  0.00  0.00    +0.000 A 
ATOM     17  O   UNL     1      -0.116  10.909  22.418  0.00  0.00    +0.000 OA
ATOM     18  C   UNL     1       0.706   9.820  22.490  0.00  0.00    +0.000 A 
ATOM     19  O   UNL     1       1.236   9.464  23.539  0.00  0.00    +0.000 OA
ATOM     20  C   UNL     1      -1.615  12.488  21.299  0.00  0.00    +0.000 C 
ATOM     21  C   UNL     1      -1.967  13.032  19.915  0.00  0.00    +0.000 C 
ATOM     22  C   UNL     1      -2.461  11.914  19.009  0.00  0.00    +0.000 C 
ATOM     23  C   UNL     1      -1.374  10.871  18.858  0.00  0.00    +0.000 C 
ATOM     24  O   UNL     1      -1.174  10.288  17.811  0.00  0.00    +0.000 OA
ENDBRANCH  11  13
ENDBRANCH   2  11
BRANCH   1  25
ATOM     25  C   UNL     1       1.459   4.516  19.975  0.00  0.00    +0.000 C 
ATOM     26  O   UNL     1       0.367   4.223  20.404  0.00  0.00    +0.000 OA
BRANCH  25  27
ATOM     27  C   UNL     1       2.315   3.395  19.444  0.00  0.00    +0.000 A 
ATOM     28  C   UNL     1       2.049   2.861  18.180  0.00  0.00    +0.000 A 
ATOM     29  C   UNL     1       2.842   1.863  17.636  0.00  0.00    +0.000 A 
ATOM     30  C   UNL     1       3.944   1.399  18.345  0.00  0.00    +0.000 A 
ATOM     31  C   UNL     1       4.219   1.899  19.618  0.00  0.00    +0.000 A 
ATOM     32  C   UNL     1       3.404   2.891  20.178  0.00  0.00    +0.000 A 
ENDBRANCH  25  27
ENDBRANCH   1  25
TORSDOF 6
ENDMDL
MODEL 4
REMARK VINA RESULT:      -9.5      1.669      2.142
REMARK  Name = 
REMARK  6 active torsions:
REMARK  status: ('A' for Active; 'I' for Inactive)
REMARK    1  A    between atoms: C_2  and  C_3
REMARK    2  A    between atoms: C_2  and  C_26
REMARK    3  A    between atoms: C_3  and  C_18
REMARK    4  A    between atoms: C_4  and  N_5
REMARK    5  A    between atoms: N_5  and  C_6
REMARK    6  A    between atoms: C_18  and  C_20
REMARK                            x       y       z     vdW  Elec       q    Type
REMARK                         _______ _______ _______ _____ _____    ______ ____
ROOT
ATOM      1  C   UNL     1       3.255   6.407  18.025  0.00  0.00    +0.000 C 
ATOM      2  C   UNL     1       3.152   7.727  17.748  0.00  0.00    +0.000 C 
ENDROOT
BRANCH   1   4
ATOM      3  O   UNL     1       1.083   5.603  17.400  0.00  0.00    +0.000 OA
ATOM      4  C   UNL     1       2.036   5.509  18.142  0.00  0.00    +0.000 C 
BRANCH   4   5
ATOM      5  C   UNL     1       1.953   4.483  19.231  0.00  0.00    +0.000 A 
ATOM      6  C   UNL     1       2.018   4.844  20.586  0.00  0.00    +0.000 A 
ATOM      7  C   UNL     1       1.981   3.848  21.567  0.00  0.00    +0.000 A 
ATOM      8  C   UNL     1       1.861   2.507  21.207  0.00  0.00    +0.000 A 
ATOM      9  C   UNL     1       1.773   2.149  19.864  0.00  0.00    +0.000 A 
ATOM     10  C   UNL     1       1.850   3.129  18.888  0.00  0.00    +0.000 A 
ENDBRANCH   4   5
ENDBRANCH   1   4
BRANCH   2  11
ATOM     11  N   UNL     1       2.081   8.588  17.746  0.00  0.00    +0.000 N 
ATOM     12  H   UNL     1       1.483   8.610  16.916  0.00  0.00    +0.000 HD
BRANCH  11  13
ATOM     13  C   UNL     1       1.565   9.357  18.770  0.00  0.00    +0.000 A 
ATOM     14  C   UNL     1       0.889   8.897  19.834  0.00  0.00    +0.000 A 
ATOM     15  C   UNL     1       0.342   9.782  20.817  0.00  0.00    +0.000 A 
ATOM     16  C   UNL     1       0.479  11.104  20.660  0.00  0.00    +0.000 A 
ATOM     17  O   UNL     1       1.216  11.647  19.580  0.00  0.00    +0.000 OA
ATOM     18  C   UNL     1       1.816  10.836  18.659  0.00  0.00    +0.000 A 
ATOM     19  O   UNL     1       2.512  11.276  17.748  0.00  0.00    +0.000 OA
ATOM     20  C   UNL     1      -0.133  12.136  21.563  0.00  0.00    +0.000 C 
ATOM     21  C   UNL     1      -1.218  11.532  22.453  0.00  0.00    +0.000 C 
ATOM     22  C   UNL     1      -0.729  10.244  23.097  0.00  0.00    +0.000 C 
ATOM     23  C   UNL     1      -0.376   9.243  22.017  0.00  0.00    +0.000 C 
ATOM     24  O   UNL     1      -0.596   8.054  22.137  0.00  0.00    +0.000 OA
ENDBRANCH  11  13
ENDBRANCH   2  11
BRANCH   1  25
ATOM     25  C   UNL     1       4.643   5.800  18.221  0.00  0.00    +0.000 C 
ATOM     26  O   UNL     1       5.164   5.712  19.310  0.00  0.00    +0.000 OA
BRANCH  25  27
ATOM     27  C   UNL     1       5.435   5.309  17.036  0.00  0.00    +0.000 A 
ATOM     28  C   UNL     1       4.827   4.467  16.101  0.00  0.00    +0.000 A 
ATOM     29  C   UNL     1       5.505   4.033  14.973  0.00  0.00    +0.000 A 
ATOM     30  C   UNL     1       6.808   4.464  14.746  0.00  0.00    +0.000 A 
ATOM     31  C   UNL     1       7.444   5.287  15.674  0.00  0.00    +0.000 A 
ATOM     32  C   UNL     1       6.768   5.706  16.826  0.00  0.00    +0.000 A 
ENDBRANCH  25  27
ENDBRANCH   1  25
TORSDOF 6
ENDMDL
MODEL 5
REMARK VINA RESULT:      -9.4      0.498      1.314
REMARK  Name = 
REMARK  6 active torsions:
REMARK  status: ('A' for Active; 'I' for Inactive)
REMARK    1  A    between atoms: C_2  and  C_3
REMARK    2  A    between atoms: C_2  and  C_26
REMARK    3  A    between atoms: C_3  and  C_18
REMARK    4  A    between atoms: C_4  and  N_5
REMARK    5  A    between atoms: N_5  and  C_6
REMARK    6  A    between atoms: C_18  and  C_20
REMARK                            x       y       z     vdW  Elec       q    Type
REMARK                         _______ _______ _______ _____ _____    ______ ____
ROOT
ATOM      1  C   UNL     1       3.505   5.559  17.760  0.00  0.00    +0.000 C 
ATOM      2  C   UNL     1       3.135   6.726  18.333  0.00  0.00    +0.000 C 
ENDROOT
BRANCH   1   4
ATOM      3  O   UNL     1       2.129   3.783  16.921  0.00  0.00    +0.000 OA
ATOM      4  C   UNL     1       2.665   4.299  17.877  0.00  0.00    +0.000 C 
BRANCH   4   5
ATOM      5  C   UNL     1       2.431   3.666  19.215  0.00  0.00    +0.000 A 
ATOM      6  C   UNL     1       3.485   3.118  19.963  0.00  0.00    +0.000 A 
ATOM      7  C   UNL     1       3.213   2.499  21.186  0.00  0.00    +0.000 A 
ATOM      8  C   UNL     1       1.908   2.439  21.672  0.00  0.00    +0.000 A 
ATOM      9  C   UNL     1       0.864   3.002  20.943  0.00  0.00    +0.000 A 
ATOM     10  C   UNL     1       1.124   3.581  19.711  0.00  0.00    +0.000 A 
ENDBRANCH   4   5
ENDBRANCH   1   4
BRANCH   2  11
ATOM     11  N   UNL     1       2.174   7.031  19.267  0.00  0.00    +0.000 N 
ATOM     12  H   UNL     1       1.918   6.310  19.946  0.00  0.00    +0.000 HD
BRANCH  11  13
ATOM     13  C   UNL     1       1.572   8.241  19.552  0.00  0.00    +0.000 A 
ATOM     14  C   UNL     1       1.064   8.606  20.738  0.00  0.00    +0.000 A 
ATOM     15  C   UNL     1       0.407   9.864  20.919  0.00  0.00    +0.000 A 
ATOM     16  C   UNL     1       0.265  10.688  19.874  0.00  0.00    +0.000 A 
ATOM     17  O   UNL     1       0.815  10.376  18.608  0.00  0.00    +0.000 OA
ATOM     18  C   UNL     1       1.514   9.218  18.410  0.00  0.00    +0.000 A 
ATOM     19  O   UNL     1       2.053   8.950  17.340  0.00  0.00    +0.000 OA
ATOM     20  C   UNL     1      -0.491  11.985  19.910  0.00  0.00    +0.000 C 
ATOM     21  C   UNL     1      -1.380  12.085  21.149  0.00  0.00    +0.000 C 
ATOM     22  C   UNL     1      -0.605  11.694  22.399  0.00  0.00    +0.000 C 
ATOM     23  C   UNL     1      -0.119  10.266  22.264  0.00  0.00    +0.000 C 
ATOM     24  O   UNL     1      -0.088   9.500  23.206  0.00  0.00    +0.000 OA
ENDBRANCH  11  13
ENDBRANCH   2  11
BRANCH   1  25
ATOM     25  C   UNL     1       4.811   5.507  16.967  0.00  0.00    +0.000 C 
ATOM     26  O   UNL     1       4.880   5.014  15.864  0.00  0.00    +0.000 OA
BRANCH  25  27
ATOM     27  C   UNL     1       6.084   6.055  17.559  0.00  0.00    +0.000 A 
ATOM     28  C   UNL     1       6.612   7.255  17.072  0.00  0.00    +0.000 A 
ATOM     29  C   UNL     1       7.753   7.817  17.622  0.00  0.00    +0.000 A 
ATOM     30  C   UNL     1       8.374   7.195  18.699  0.00  0.00    +0.000 A 
ATOM     31  C   UNL     1       7.880   5.987  19.191  0.00  0.00    +0.000 A 
ATOM     32  C   UNL     1       6.741   5.406  18.620  0.00  0.00    +0.000 A 
ENDBRANCH  25  27
ENDBRANCH   1  25
TORSDOF 6
ENDMDL
MODEL 6
REMARK VINA RESULT:      -9.4      1.643      4.411
REMARK  Name = 
REMARK  6 active torsions:
REMARK  status: ('A' for Active; 'I' for Inactive)
REMARK    1  A    between atoms: C_2  and  C_3
REMARK    2  A    between atoms: C_2  and  C_26
REMARK    3  A    between atoms: C_3  and  C_18
REMARK    4  A    between atoms: C_4  and  N_5
REMARK    5  A    between atoms: N_5  and  C_6
REMARK    6  A    between atoms: C_18  and  C_20
REMARK                            x       y       z     vdW  Elec       q    Type
REMARK                         _______ _______ _______ _____ _____    ______ ____
ROOT
ATOM      1  C   UNL     1       2.575   6.218  18.762  0.00  0.00    +0.000 C 
ATOM      2  C   UNL     1       2.070   6.716  19.913  0.00  0.00    +0.000 C 
ENDROOT
BRANCH   1   4
ATOM      3  O   UNL     1       3.507   8.130  17.653  0.00  0.00    +0.000 OA
ATOM      4  C   UNL     1       3.622   6.962  17.951  0.00  0.00    +0.000 C 
BRANCH   4   5
ATOM      5  C   UNL     1       4.838   6.245  17.445  0.00  0.00    +0.000 A 
ATOM      6  C   UNL     1       5.056   6.051  16.072  0.00  0.00    +0.000 A 
ATOM      7  C   UNL     1       6.182   5.339  15.648  0.00  0.00    +0.000 A 
ATOM      8  C   UNL     1       7.093   4.839  16.577  0.00  0.00    +0.000 A 
ATOM      9  C   UNL     1       6.889   5.050  17.939  0.00  0.00    +0.000 A 
ATOM     10  C   UNL     1       5.754   5.721  18.365  0.00  0.00    +0.000 A 
ENDBRANCH   4   5
ENDBRANCH   1   4
BRANCH   2  11
ATOM     11  N   UNL     1       2.134   7.964  20.485  0.00  0.00    +0.000 N 
ATOM     12  H   UNL     1       3.042   8.290  20.826  0.00  0.00    +0.000 HD
BRANCH  11  13
ATOM     13  C   UNL     1       1.174   8.955  20.551  0.00  0.00    +0.000 A 
ATOM     14  C   UNL     1       0.352   9.319  19.557  0.00  0.00    +0.000 A 
ATOM     15  C   UNL     1      -0.574  10.401  19.705  0.00  0.00    +0.000 A 
ATOM     16  C   UNL     1      -0.602  11.089  20.853  0.00  0.00    +0.000 A 
ATOM     17  O   UNL     1       0.214  10.726  21.951  0.00  0.00    +0.000 OA
ATOM     18  C   UNL     1       1.059   9.655  21.877  0.00  0.00    +0.000 A 
ATOM     19  O   UNL     1       1.732   9.281  22.834  0.00  0.00    +0.000 OA
ATOM     20  C   UNL     1      -1.452  12.303  21.096  0.00  0.00    +0.000 C 
ATOM     21  C   UNL     1      -1.998  12.879  19.790  0.00  0.00    +0.000 C 
ATOM     22  C   UNL     1      -2.587  11.777  18.922  0.00  0.00    +0.000 C 
ATOM     23  C   UNL     1      -1.511  10.765  18.593  0.00  0.00    +0.000 C 
ATOM     24  O   UNL     1      -1.442  10.219  17.510  0.00  0.00    +0.000 OA
ENDBRANCH  11  13
ENDBRANCH   2  11
BRANCH   1  25
ATOM     25  C   UNL     1       2.080   4.861  18.264  0.00  0.00    +0.000 C 
ATOM     26  O   UNL     1       1.091   4.744  17.576  0.00  0.00    +0.000 OA
BRANCH  25  27
ATOM     27  C   UNL     1       2.806   3.597  18.647  0.00  0.00    +0.000 A 
ATOM     28  C   UNL     1       2.947   2.570  17.710  0.00  0.00    +0.000 A 
ATOM     29  C   UNL     1       3.650   1.413  18.006  0.00  0.00    +0.000 A 
ATOM     30  C   UNL     1       4.255   1.277  19.251  0.00  0.00    +0.000 A 
ATOM     31  C   UNL     1       4.113   2.278  20.212  0.00  0.00    +0.000 A 
ATOM     32  C   UNL     1       3.382   3.437  19.921  0.00  0.00    +0.000 A 
ENDBRANCH  25  27
ENDBRANCH   1  25
TORSDOF 6
ENDMDL
MODEL 7
REMARK VINA RESULT:      -9.3      1.156      4.420
REMARK  Name = 
REMARK  6 active torsions:
REMARK  status: ('A' for Active; 'I' for Inactive)
REMARK    1  A    between atoms: C_2  and  C_3
REMARK    2  A    between atoms: C_2  and  C_26
REMARK    3  A    between atoms: C_3  and  C_18
REMARK    4  A    between atoms: C_4  and  N_5
REMARK    5  A    between atoms: N_5  and  C_6
REMARK    6  A    between atoms: C_18  and  C_20
REMARK                            x       y       z     vdW  Elec       q    Type
REMARK                         _______ _______ _______ _____ _____    ______ ____
ROOT
ATOM      1  C   UNL     1       3.483   6.051  17.494  0.00  0.00    +0.000 C 
ATOM      2  C   UNL     1       2.523   6.859  17.997  0.00  0.00    +0.000 C 
ENDROOT
BRANCH   1   4
ATOM      3  O   UNL     1       4.772   6.949  15.681  0.00  0.00    +0.000 OA
ATOM      4  C   UNL     1       4.739   6.599  16.840  0.00  0.00    +0.000 C 
BRANCH   4   5
ATOM      5  C   UNL     1       6.020   6.686  17.615  0.00  0.00    +0.000 A 
ATOM      6  C   UNL     1       6.940   7.724  17.398  0.00  0.00    +0.000 A 
ATOM      7  C   UNL     1       8.141   7.740  18.113  0.00  0.00    +0.000 A 
ATOM      8  C   UNL     1       8.420   6.744  19.048  0.00  0.00    +0.000 A 
ATOM      9  C   UNL     1       7.499   5.726  19.280  0.00  0.00    +0.000 A 
ATOM     10  C   UNL     1       6.325   5.684  18.545  0.00  0.00    +0.000 A 
ENDBRANCH   4   5
ENDBRANCH   1   4
BRANCH   2  11
ATOM     11  N   UNL     1       2.290   8.207  17.865  0.00  0.00    +0.000 N 
ATOM     12  H   UNL     1       2.452   8.636  16.951  0.00  0.00    +0.000 HD
BRANCH  11  13
ATOM     13  C   UNL     1       1.711   9.093  18.752  0.00  0.00    +0.000 A 
ATOM     14  C   UNL     1       1.015   8.763  19.850  0.00  0.00    +0.000 A 
ATOM     15  C   UNL     1       0.403   9.757  20.679  0.00  0.00    +0.000 A 
ATOM     16  C   UNL     1       0.498  11.047  20.337  0.00  0.00    +0.000 A 
ATOM     17  O   UNL     1       1.253  11.460  19.213  0.00  0.00    +0.000 OA
ATOM     18  C   UNL     1       1.914  10.549  18.436  0.00  0.00    +0.000 A 
ATOM     19  O   UNL     1       2.625  10.883  17.493  0.00  0.00    +0.000 OA
ATOM     20  C   UNL     1      -0.182  12.172  21.064  0.00  0.00    +0.000 C 
ATOM     21  C   UNL     1      -1.276  11.659  21.998  0.00  0.00    +0.000 C 
ATOM     22  C   UNL     1      -0.764  10.496  22.836  0.00  0.00    +0.000 C 
ATOM     23  C   UNL     1      -0.338   9.366  21.922  0.00  0.00    +0.000 C 
ATOM     24  O   UNL     1      -0.520   8.199  22.204  0.00  0.00    +0.000 OA
ENDBRANCH  11  13
ENDBRANCH   2  11
BRANCH   1  25
ATOM     25  C   UNL     1       3.299   4.537  17.591  0.00  0.00    +0.000 C 
ATOM     26  O   UNL     1       3.702   3.779  16.738  0.00  0.00    +0.000 OA
BRANCH  25  27
ATOM     27  C   UNL     1       2.570   3.931  18.762  0.00  0.00    +0.000 A 
ATOM     28  C   UNL     1       3.146   3.980  20.035  0.00  0.00    +0.000 A 
ATOM     29  C   UNL     1       2.487   3.479  21.146  0.00  0.00    +0.000 A 
ATOM     30  C   UNL     1       1.212   2.941  21.003  0.00  0.00    +0.000 A 
ATOM     31  C   UNL     1       0.623   2.861  19.742  0.00  0.00    +0.000 A 
ATOM     32  C   UNL     1       1.299   3.346  18.615  0.00  0.00    +0.000 A 
ENDBRANCH  25  27
ENDBRANCH   1  25
TORSDOF 6
ENDMDL
MODEL 8
REMARK VINA RESULT:      -9.3      2.270      8.801
REMARK  Name = 
REMARK  6 active torsions:
REMARK  status: ('A' for Active; 'I' for Inactive)
REMARK    1  A    between atoms: C_2  and  C_3
REMARK    2  A    between atoms: C_2  and  C_26
REMARK    3  A    between atoms: C_3  and  C_18
REMARK    4  A    between atoms: C_4  and  N_5
REMARK    5  A    between atoms: N_5  and  C_6
REMARK    6  A    between atoms: C_18  and  C_20
REMARK                            x       y       z     vdW  Elec       q    Type
REMARK                         _______ _______ _______ _____ _____    ______ ____
ROOT
ATOM      1  C   UNL     1       0.715  10.261  19.778  0.00  0.00    +0.000 C 
ATOM      2  C   UNL     1       1.321   9.186  19.225  0.00  0.00    +0.000 C 
ENDROOT
BRANCH   1   4
ATOM      3  O   UNL     1       1.465   9.921  22.031  0.00  0.00    +0.000 OA
ATOM      4  C   UNL     1       0.727  10.514  21.274  0.00  0.00    +0.000 C 
BRANCH   4   5
ATOM      5  C   UNL     1      -0.225  11.499  21.884  0.00  0.00    +0.000 A 
ATOM      6  C   UNL     1       0.003  12.882  21.811  0.00  0.00    +0.000 A 
ATOM      7  C   UNL     1      -0.889  13.761  22.431  0.00  0.00    +0.000 A 
ATOM      8  C   UNL     1      -2.009  13.273  23.103  0.00  0.00    +0.000 A 
ATOM      9  C   UNL     1      -2.249  11.902  23.157  0.00  0.00    +0.000 A 
ATOM     10  C   UNL     1      -1.345  11.026  22.578  0.00  0.00    +0.000 A 
ENDBRANCH   4   5
ENDBRANCH   1   4
BRANCH   2  11
ATOM     11  N   UNL     1       1.832   8.033  19.772  0.00  0.00    +0.000 N 
ATOM     12  H   UNL     1       1.568   7.798  20.733  0.00  0.00    +0.000 HD
BRANCH  11  13
ATOM     13  C   UNL     1       2.553   7.018  19.176  0.00  0.00    +0.000 A 
ATOM     14  C   UNL     1       3.351   7.145  18.105  0.00  0.00    +0.000 A 
ATOM     15  C   UNL     1       4.014   6.018  17.523  0.00  0.00    +0.000 A 
ATOM     16  C   UNL     1       3.812   4.799  18.037  0.00  0.00    +0.000 A 
ATOM     17  O   UNL     1       3.014   4.607  19.190  0.00  0.00    +0.000 OA
ATOM     18  C   UNL     1       2.422   5.665  19.821  0.00  0.00    +0.000 A 
ATOM     19  O   UNL     1       1.775   5.535  20.856  0.00  0.00    +0.000 OA
ATOM     20  C   UNL     1       4.367   3.530  17.458  0.00  0.00    +0.000 C 
ATOM     21  C   UNL     1       4.873   3.735  16.031  0.00  0.00    +0.000 C 
ATOM     22  C   UNL     1       5.743   4.980  15.944  0.00  0.00    +0.000 C 
ATOM     23  C   UNL     1       4.931   6.192  16.349  0.00  0.00    +0.000 C 
ATOM     24  O   UNL     1       5.058   7.271  15.806  0.00  0.00    +0.000 OA
ENDBRANCH  11  13
ENDBRANCH   2  11
BRANCH   1  25
ATOM     25  C   UNL     1      -0.002  11.254  18.864  0.00  0.00    +0.000 C 
ATOM     26  O   UNL     1       0.529  12.263  18.459  0.00  0.00    +0.000 OA
BRANCH  25  27
ATOM     27  C   UNL     1      -1.433  11.016  18.453  0.00  0.00    +0.000 A 
ATOM     28  C   UNL     1      -2.446  11.823  18.978  0.00  0.00    +0.000 A 
ATOM     29  C   UNL     1      -3.767  11.669  18.588  0.00  0.00    +0.000 A 
ATOM     30  C   UNL     1      -4.094  10.711  17.634  0.00  0.00    +0.000 A 
ATOM     31  C   UNL     1      -3.106   9.879  17.111  0.00  0.00    +0.000 A 
ATOM     32  C   UNL     1      -1.774  10.018  17.522  0.00  0.00    +0.000 A 
ENDBRANCH  25  27
ENDBRANCH   1  25
TORSDOF 6
ENDMDL
MODEL 9
REMARK VINA RESULT:      -9.2      2.257      8.738
REMARK  Name = 
REMARK  6 active torsions:
REMARK  status: ('A' for Active; 'I' for Inactive)
REMARK    1  A    between atoms: C_2  and  C_3
REMARK    2  A    between atoms: C_2  and  C_26
REMARK    3  A    between atoms: C_3  and  C_18
REMARK    4  A    between atoms: C_4  and  N_5
REMARK    5  A    between atoms: N_5  and  C_6
REMARK    6  A    between atoms: C_18  and  C_20
REMARK                            x       y       z     vdW  Elec       q    Type
REMARK                         _______ _______ _______ _____ _____    ______ ____
ROOT
ATOM      1  C   UNL     1       0.801  10.190  19.817  0.00  0.00    +0.000 C 
ATOM      2  C   UNL     1       1.402   9.126  19.240  0.00  0.00    +0.000 C 
ENDROOT
BRANCH   1   4
ATOM      3  O   UNL     1       1.478   9.749  22.076  0.00  0.00    +0.000 OA
ATOM      4  C   UNL     1       0.770  10.381  21.323  0.00  0.00    +0.000 C 
BRANCH   4   5
ATOM      5  C   UNL     1      -0.190  11.351  21.944  0.00  0.00    +0.000 A 
ATOM      6  C   UNL     1      -1.323  10.914  22.648  0.00  0.00    +0.000 A 
ATOM      7  C   UNL     1      -2.214  11.855  23.173  0.00  0.00    +0.000 A 
ATOM      8  C   UNL     1      -1.973  13.219  23.016  0.00  0.00    +0.000 A 
ATOM      9  C   UNL     1      -0.838  13.655  22.337  0.00  0.00    +0.000 A 
ATOM     10  C   UNL     1       0.026  12.725  21.782  0.00  0.00    +0.000 A 
ENDBRANCH   4   5
ENDBRANCH   1   4
BRANCH   2  11
ATOM     11  N   UNL     1       1.869   7.940  19.754  0.00  0.00    +0.000 N 
ATOM     12  H   UNL     1       1.561   7.666  20.690  0.00  0.00    +0.000 HD
BRANCH  11  13
ATOM     13  C   UNL     1       2.600   6.940  19.142  0.00  0.00    +0.000 A 
ATOM     14  C   UNL     1       3.389   7.090  18.067  0.00  0.00    +0.000 A 
ATOM     15  C   UNL     1       4.063   5.977  17.469  0.00  0.00    +0.000 A 
ATOM     16  C   UNL     1       3.880   4.751  17.971  0.00  0.00    +0.000 A 
ATOM     17  O   UNL     1       3.091   4.536  19.127  0.00  0.00    +0.000 OA
ATOM     18  C   UNL     1       2.490   5.579  19.773  0.00  0.00    +0.000 A 
ATOM     19  O   UNL     1       1.851   5.430  20.811  0.00  0.00    +0.000 OA
ATOM     20  C   UNL     1       4.447   3.495  17.375  0.00  0.00    +0.000 C 
ATOM     21  C   UNL     1       4.941   3.721  15.947  0.00  0.00    +0.000 C 
ATOM     22  C   UNL     1       5.795   4.978  15.868  0.00  0.00    +0.000 C 
ATOM     23  C   UNL     1       4.970   6.175  16.292  0.00  0.00    +0.000 C 
ATOM     24  O   UNL     1       5.080   7.261  15.759  0.00  0.00    +0.000 OA
ENDBRANCH  11  13
ENDBRANCH   2  11
BRANCH   1  25
ATOM     25  C   UNL     1       0.135  11.236  18.924  0.00  0.00    +0.000 C 
ATOM     26  O   UNL     1       0.714  12.230  18.548  0.00  0.00    +0.000 OA
BRANCH  25  27
ATOM     27  C   UNL     1      -1.301  11.073  18.499  0.00  0.00    +0.000 A 
ATOM     28  C   UNL     1      -1.643  10.068  17.589  0.00  0.00    +0.000 A 
ATOM     29  C   UNL     1      -2.958   9.853  17.211  0.00  0.00    +0.000 A 
ATOM     30  C   UNL     1      -3.968  10.630  17.766  0.00  0.00    +0.000 A 
ATOM     31  C   UNL     1      -3.653  11.653  18.660  0.00  0.00    +0.000 A 
ATOM     32  C   UNL     1      -2.321  11.886  19.025  0.00  0.00    +0.000 A 
ENDBRANCH  25  27
ENDBRANCH   1  25
TORSDOF 6
ENDMDL
