MODEL 1
REMARK VINA RESULT:      -7.4      0.000      0.000
REMARK  Name = 
REMARK  6 active torsions:
REMARK  status: ('A' for Active; 'I' for Inactive)
REMARK    1  A    between atoms: N_1  and  S_2
REMARK    2  A    between atoms: S_2  and  C_5
REMARK    3  A    between atoms: C_8  and  C_9
REMARK    4  A    between atoms: C_9  and  N_10
REMARK    5  A    between atoms: C_19  and  O_20
REMARK    6  A    between atoms: C_19  and  C_21
REMARK                            x       y       z     vdW  Elec       q    Type
REMARK                         _______ _______ _______ _____ _____    ______ ____
ROOT
ATOM      1  N   UNL     1       0.839  12.133  19.110  0.00  0.00    +0.000 N 
ATOM      2  C   UNL     1       2.072  12.591  18.676  0.00  0.00    +0.000 C 
ATOM      3  O   UNL     1       2.812  12.119  17.835  0.00  0.00    +0.000 OA
ATOM      4  C   UNL     1       2.392  13.772  19.477  0.00  0.00    +0.000 A 
ATOM      5  C   UNL     1       3.453  14.645  19.319  0.00  0.00    +0.000 A 
ATOM      6  C   UNL     1       3.545  15.701  20.219  0.00  0.00    +0.000 A 
ATOM      7  C   UNL     1       2.614  15.823  21.268  0.00  0.00    +0.000 A 
ATOM      8  C   UNL     1       1.517  14.954  21.375  0.00  0.00    +0.000 A 
ATOM      9  C   UNL     1       1.383  13.943  20.433  0.00  0.00    +0.000 A 
ATOM     10  C   UNL     1       0.195  13.102  19.993  0.00  0.00    +0.000 C 
ENDROOT
BRANCH  10  11
ATOM     11  C   UNL     1      -0.853  12.614  20.992  0.00  0.00    +0.000 A 
ATOM     12  C   UNL     1      -2.178  13.111  20.862  0.00  0.00    +0.000 A 
ATOM     13  C   UNL     1      -3.140  12.932  21.867  0.00  0.00    +0.000 A 
ATOM     14  C   UNL     1      -2.806  12.228  23.012  0.00  0.00    +0.000 A 
ATOM     15 CL   UNL     1      -3.937  12.109  24.299  0.00  0.00    +0.000 Cl
ATOM     16  C   UNL     1      -1.541  11.653  23.131  0.00  0.00    +0.000 A 
ATOM     17  C   UNL     1      -0.573  11.827  22.121  0.00  0.00    +0.000 A 
ENDBRANCH  10  11
BRANCH  10  18
ATOM     18  O   UNL     1      -0.538  13.987  19.125  0.00  0.00    +0.000 OA
ATOM     19  H   UNL     1      -0.654  13.549  18.267  0.00  0.00    +0.000 HD
ENDBRANCH  10  18
BRANCH   1  20
ATOM     20  C   UNL     1       0.288  10.883  18.617  0.00  0.00    +0.000 C 
BRANCH  20  24
ATOM     21  C   UNL     1       2.281   7.117  19.358  0.00  0.00    +0.000 A 
ATOM     22  C   UNL     1       1.713   7.801  20.431  0.00  0.00    +0.000 A 
ATOM     23  C   UNL     1       1.104   9.041  20.219  0.00  0.00    +0.000 A 
ATOM     24  C   UNL     1       1.056   9.610  18.940  0.00  0.00    +0.000 A 
ATOM     25  C   UNL     1       1.710   8.940  17.885  0.00  0.00    +0.000 A 
ATOM     26  C   UNL     1       2.318   7.694  18.089  0.00  0.00    +0.000 A 
BRANCH  21  27
ATOM     27  S   UNL     1       2.913   5.485  19.596  0.00  0.00    +0.000 S 
ATOM     28  O   UNL     1       4.349   5.548  19.668  0.00  0.00    +0.000 OA
ATOM     29  O   UNL     1       2.236   4.585  18.690  0.00  0.00    +0.000 OA
BRANCH  27  30
ATOM     30  N   UNL     1       2.391   5.147  21.154  0.00  0.00    +0.000 NA
ATOM     31  H   UNL     1       1.511   5.636  21.334  0.00  0.00    +0.000 HD
ATOM     32  H   UNL     1       2.309   4.146  21.345  0.00  0.00    +0.000 HD
ENDBRANCH  27  30
ENDBRANCH  21  27
ENDBRANCH  20  24
ENDBRANCH   1  20
TORSDOF 6
ENDMDL
MODEL 2
REMARK VINA RESULT:      -7.3      4.063      7.375
REMARK  Name = 
REMARK  6 active torsions:
REMARK  status: ('A' for Active; 'I' for Inactive)
REMARK    1  A    between atoms: N_1  and  S_2
REMARK    2  A    between atoms: S_2  and  C_5
REMARK    3  A    between atoms: C_8  and  C_9
REMARK    4  A    between atoms: C_9  and  N_10
REMARK    5  A    between atoms: C_19  and  O_20
REMARK    6  A    between atoms: C_19  and  C_21
REMARK                            x       y       z     vdW  Elec       q    Type
REMARK                         _______ _______ _______ _____ _____    ______ ____
ROOT
ATOM      1  N   UNL     1      -0.746  12.077  20.089  0.00  0.00    +0.000 N 
ATOM      2  C   UNL     1      -2.026  12.602  20.019  0.00  0.00    +0.000 C 
ATOM      3  O   UNL     1      -2.512  13.522  20.647  0.00  0.00    +0.000 OA
ATOM      4  C   UNL     1      -2.766  11.789  19.054  0.00  0.00    +0.000 A 
ATOM      5  C   UNL     1      -4.037  12.010  18.554  0.00  0.00    +0.000 A 
ATOM      6  C   UNL     1      -4.528  11.083  17.641  0.00  0.00    +0.000 A 
ATOM      7  C   UNL     1      -3.765   9.951  17.296  0.00  0.00    +0.000 A 
ATOM      8  C   UNL     1      -2.457   9.779  17.778  0.00  0.00    +0.000 A 
ATOM      9  C   UNL     1      -1.938  10.742  18.632  0.00  0.00    +0.000 A 
ATOM     10  C   UNL     1      -0.514  11.104  19.024  0.00  0.00    +0.000 C 
ENDROOT
BRANCH  10  11
ATOM     11  C   UNL     1       0.559  10.034  19.217  0.00  0.00    +0.000 A 
ATOM     12  C   UNL     1       1.330   9.654  18.085  0.00  0.00    +0.000 A 
ATOM     13  C   UNL     1       2.150   8.515  18.094  0.00  0.00    +0.000 A 
ATOM     14  C   UNL     1       2.238   7.749  19.244  0.00  0.00    +0.000 A 
ATOM     15 CL   UNL     1       3.141   6.287  19.226  0.00  0.00    +0.000 Cl
ATOM     16  C   UNL     1       1.562   8.144  20.398  0.00  0.00    +0.000 A 
ATOM     17  C   UNL     1       0.741   9.291  20.394  0.00  0.00    +0.000 A 
ENDBRANCH  10  11
BRANCH  10  18
ATOM     18  O   UNL     1      -0.043  11.870  17.899  0.00  0.00    +0.000 OA
ATOM     19  H   UNL     1       0.111  12.782  18.191  0.00  0.00    +0.000 HD
ENDBRANCH  10  18
BRANCH   1  20
ATOM     20  C   UNL     1       0.212  12.563  21.066  0.00  0.00    +0.000 C 
BRANCH  20  24
ATOM     21  C   UNL     1       3.005  15.435  19.437  0.00  0.00    +0.000 A 
ATOM     22  C   UNL     1       3.498  14.358  20.170  0.00  0.00    +0.000 A 
ATOM     23  C   UNL     1       2.609  13.444  20.742  0.00  0.00    +0.000 A 
ATOM     24  C   UNL     1       1.224  13.595  20.591  0.00  0.00    +0.000 A 
ATOM     25  C   UNL     1       0.746  14.738  19.917  0.00  0.00    +0.000 A 
ATOM     26  C   UNL     1       1.631  15.656  19.336  0.00  0.00    +0.000 A 
BRANCH  21  27
ATOM     27  S   UNL     1       4.127  16.502  18.587  0.00  0.00    +0.000 S 
ATOM     28  O   UNL     1       3.402  17.238  17.586  0.00  0.00    +0.000 OA
ATOM     29  O   UNL     1       5.325  15.760  18.266  0.00  0.00    +0.000 OA
BRANCH  27  30
ATOM     30  N   UNL     1       4.508  17.613  19.786  0.00  0.00    +0.000 NA
ATOM     31  H   UNL     1       4.916  18.449  19.361  0.00  0.00    +0.000 HD
ATOM     32  H   UNL     1       3.714  17.847  20.387  0.00  0.00    +0.000 HD
ENDBRANCH  27  30
ENDBRANCH  21  27
ENDBRANCH  20  24
ENDBRANCH   1  20
TORSDOF 6
ENDMDL
MODEL 3
REMARK VINA RESULT:      -7.2      2.865      4.398
REMARK  Name = 
REMARK  6 active torsions:
REMARK  status: ('A' for Active; 'I' for Inactive)
REMARK    1  A    between atoms: N_1  and  S_2
REMARK    2  A    between atoms: S_2  and  C_5
REMARK    3  A    between atoms: C_8  and  C_9
REMARK    4  A    between atoms: C_9  and  N_10
REMARK    5  A    between atoms: C_19  and  O_20
REMARK    6  A    between atoms: C_19  and  C_21
REMARK                            x       y       z     vdW  Elec       q    Type
REMARK                         _______ _______ _______ _____ _____    ______ ____
ROOT
ATOM      1  N   UNL     1      -0.229  11.772  19.726  0.00  0.00    +0.000 N 
ATOM      2  C   UNL     1       0.128  12.082  21.028  0.00  0.00    +0.000 C 
ATOM      3  O   UNL     1       1.222  12.031  21.555  0.00  0.00    +0.000 OA
ATOM      4  C   UNL     1      -1.102  12.446  21.730  0.00  0.00    +0.000 A 
ATOM      5  C   UNL     1      -1.232  12.957  23.009  0.00  0.00    +0.000 A 
ATOM      6  C   UNL     1      -2.521  13.222  23.458  0.00  0.00    +0.000 A 
ATOM      7  C   UNL     1      -3.632  12.926  22.645  0.00  0.00    +0.000 A 
ATOM      8  C   UNL     1      -3.469  12.457  21.331  0.00  0.00    +0.000 A 
ATOM      9  C   UNL     1      -2.180  12.262  20.856  0.00  0.00    +0.000 A 
ATOM     10  C   UNL     1      -1.611  12.157  19.450  0.00  0.00    +0.000 C 
ENDROOT
BRANCH  10  11
ATOM     11  C   UNL     1      -2.370  11.447  18.330  0.00  0.00    +0.000 A 
ATOM     12  C   UNL     1      -1.692  10.425  17.612  0.00  0.00    +0.000 A 
ATOM     13  C   UNL     1      -2.199   9.898  16.414  0.00  0.00    +0.000 A 
ATOM     14  C   UNL     1      -3.408  10.362  15.925  0.00  0.00    +0.000 A 
ATOM     15 CL   UNL     1      -3.976   9.813  14.399  0.00  0.00    +0.000 Cl
ATOM     16  C   UNL     1      -4.140  11.301  16.651  0.00  0.00    +0.000 A 
ATOM     17  C   UNL     1      -3.635  11.829  17.857  0.00  0.00    +0.000 A 
ENDBRANCH  10  11
BRANCH  10  18
ATOM     18  O   UNL     1      -1.548  13.528  19.012  0.00  0.00    +0.000 OA
ATOM     19  H   UNL     1      -2.154  13.638  18.263  0.00  0.00    +0.000 HD
ENDBRANCH  10  18
BRANCH   1  20
ATOM     20  C   UNL     1       0.740  11.228  18.792  0.00  0.00    +0.000 C 
BRANCH  20  24
ATOM     21  C   UNL     1       2.148   7.189  19.434  0.00  0.00    +0.000 A 
ATOM     22  C   UNL     1       1.486   7.845  20.470  0.00  0.00    +0.000 A 
ATOM     23  C   UNL     1       1.063   9.165  20.298  0.00  0.00    +0.000 A 
ATOM     24  C   UNL     1       1.297   9.845  19.094  0.00  0.00    +0.000 A 
ATOM     25  C   UNL     1       2.042   9.191  18.092  0.00  0.00    +0.000 A 
ATOM     26  C   UNL     1       2.464   7.865  18.255  0.00  0.00    +0.000 A 
BRANCH  21  27
ATOM     27  S   UNL     1       2.546   5.476  19.594  0.00  0.00    +0.000 S 
ATOM     28  O   UNL     1       2.244   4.810  18.355  0.00  0.00    +0.000 OA
ATOM     29  O   UNL     1       2.039   4.995  20.859  0.00  0.00    +0.000 OA
BRANCH  27  30
ATOM     30  N   UNL     1       4.221   5.528  19.690  0.00  0.00    +0.000 NA
ATOM     31  H   UNL     1       4.574   6.278  19.091  0.00  0.00    +0.000 HD
ATOM     32  H   UNL     1       4.568   5.618  20.647  0.00  0.00    +0.000 HD
ENDBRANCH  27  30
ENDBRANCH  21  27
ENDBRANCH  20  24
ENDBRANCH   1  20
TORSDOF 6
ENDMDL
MODEL 4
REMARK VINA RESULT:      -7.2      2.353      2.871
REMARK  Name = 
REMARK  6 active torsions:
REMARK  status: ('A' for Active; 'I' for Inactive)
REMARK    1  A    between atoms: N_1  and  S_2
REMARK    2  A    between atoms: S_2  and  C_5
REMARK    3  A    between atoms: C_8  and  C_9
REMARK    4  A    between atoms: C_9  and  N_10
REMARK    5  A    between atoms: C_19  and  O_20
REMARK    6  A    between atoms: C_19  and  C_21
REMARK                            x       y       z     vdW  Elec       q    Type
REMARK                         _______ _______ _______ _____ _____    ______ ____
ROOT
ATOM      1  N   UNL     1       0.330  12.040  20.244  0.00  0.00    +0.000 N 
ATOM      2  C   UNL     1       1.422  12.838  20.545  0.00  0.00    +0.000 C 
ATOM      3  O   UNL     1       2.394  12.581  21.228  0.00  0.00    +0.000 OA
ATOM      4  C   UNL     1       1.182  14.139  19.921  0.00  0.00    +0.000 A 
ATOM      5  C   UNL     1       2.049  15.212  19.833  0.00  0.00    +0.000 A 
ATOM      6  C   UNL     1       1.582  16.352  19.187  0.00  0.00    +0.000 A 
ATOM      7  C   UNL     1       0.263  16.404  18.700  0.00  0.00    +0.000 A 
ATOM      8  C   UNL     1      -0.579  15.281  18.756  0.00  0.00    +0.000 A 
ATOM      9  C   UNL     1      -0.089  14.118  19.334  0.00  0.00    +0.000 A 
ATOM     10  C   UNL     1      -0.518  12.663  19.231  0.00  0.00    +0.000 C 
ENDROOT
BRANCH  10  11
ATOM     11  C   UNL     1      -1.991  12.266  19.150  0.00  0.00    +0.000 A 
ATOM     12  C   UNL     1      -2.426  11.553  18.000  0.00  0.00    +0.000 A 
ATOM     13  C   UNL     1      -3.787  11.372  17.709  0.00  0.00    +0.000 A 
ATOM     14  C   UNL     1      -4.741  11.875  18.578  0.00  0.00    +0.000 A 
ATOM     15 CL   UNL     1      -6.406  11.766  18.168  0.00  0.00    +0.000 Cl
ATOM     16  C   UNL     1      -4.346  12.503  19.758  0.00  0.00    +0.000 A 
ATOM     17  C   UNL     1      -2.980  12.683  20.056  0.00  0.00    +0.000 A 
ENDBRANCH  10  11
BRANCH  10  18
ATOM     18  O   UNL     1       0.025  12.244  17.964  0.00  0.00    +0.000 OA
ATOM     19  H   UNL     1      -0.385  12.776  17.264  0.00  0.00    +0.000 HD
ENDBRANCH  10  18
BRANCH   1  20
ATOM     20  C   UNL     1       0.180  10.721  20.834  0.00  0.00    +0.000 C 
BRANCH  20  24
ATOM     21  C   UNL     1       2.341   7.467  18.979  0.00  0.00    +0.000 A 
ATOM     22  C   UNL     1       1.954   8.551  18.195  0.00  0.00    +0.000 A 
ATOM     23  C   UNL     1       1.216   9.592  18.765  0.00  0.00    +0.000 A 
ATOM     24  C   UNL     1       0.856   9.561  20.120  0.00  0.00    +0.000 A 
ATOM     25  C   UNL     1       1.187   8.415  20.873  0.00  0.00    +0.000 A 
ATOM     26  C   UNL     1       1.932   7.370  20.309  0.00  0.00    +0.000 A 
BRANCH  21  27
ATOM     27  S   UNL     1       3.402   6.228  18.299  0.00  0.00    +0.000 S 
ATOM     28  O   UNL     1       4.448   6.871  17.550  0.00  0.00    +0.000 OA
ATOM     29  O   UNL     1       2.588   5.181  17.724  0.00  0.00    +0.000 OA
BRANCH  27  30
ATOM     30  N   UNL     1       4.134   5.619  19.680  0.00  0.00    +0.000 NA
ATOM     31  H   UNL     1       5.148   5.739  19.611  0.00  0.00    +0.000 HD
ATOM     32  H   UNL     1       3.768   6.024  20.545  0.00  0.00    +0.000 HD
ENDBRANCH  27  30
ENDBRANCH  21  27
ENDBRANCH  20  24
ENDBRANCH   1  20
TORSDOF 6
ENDMDL
MODEL 5
REMARK VINA RESULT:      -7.1      2.831      4.491
REMARK  Name = 
REMARK  6 active torsions:
REMARK  status: ('A' for Active; 'I' for Inactive)
REMARK    1  A    between atoms: N_1  and  S_2
REMARK    2  A    between atoms: S_2  and  C_5
REMARK    3  A    between atoms: C_8  and  C_9
REMARK    4  A    between atoms: C_9  and  N_10
REMARK    5  A    between atoms: C_19  and  O_20
REMARK    6  A    between atoms: C_19  and  C_21
REMARK                            x       y       z     vdW  Elec       q    Type
REMARK                         _______ _______ _______ _____ _____    ______ ____
ROOT
ATOM      1  N   UNL     1      -0.226  11.885  19.748  0.00  0.00    +0.000 N 
ATOM      2  C   UNL     1       0.136  12.190  21.050  0.00  0.00    +0.000 C 
ATOM      3  O   UNL     1       1.238  12.176  21.562  0.00  0.00    +0.000 OA
ATOM      4  C   UNL     1      -1.098  12.496  21.773  0.00  0.00    +0.000 A 
ATOM      5  C   UNL     1      -1.231  12.983  23.060  0.00  0.00    +0.000 A 
ATOM      6  C   UNL     1      -2.524  13.190  23.529  0.00  0.00    +0.000 A 
ATOM      7  C   UNL     1      -3.633  12.862  22.726  0.00  0.00    +0.000 A 
ATOM      8  C   UNL     1      -3.469  12.419  21.403  0.00  0.00    +0.000 A 
ATOM      9  C   UNL     1      -2.180  12.281  20.909  0.00  0.00    +0.000 A 
ATOM     10  C   UNL     1      -1.625  12.219  19.495  0.00  0.00    +0.000 C 
ENDROOT
BRANCH  10  11
ATOM     11  C   UNL     1      -2.370  11.495  18.374  0.00  0.00    +0.000 A 
ATOM     12  C   UNL     1      -1.686  10.460  17.681  0.00  0.00    +0.000 A 
ATOM     13  C   UNL     1      -2.177   9.918  16.483  0.00  0.00    +0.000 A 
ATOM     14  C   UNL     1      -3.377  10.379  15.969  0.00  0.00    +0.000 A 
ATOM     15 CL   UNL     1      -3.924   9.810  14.443  0.00  0.00    +0.000 Cl
ATOM     16  C   UNL     1      -4.115  11.331  16.671  0.00  0.00    +0.000 A 
ATOM     17  C   UNL     1      -3.627  11.876  17.877  0.00  0.00    +0.000 A 
ENDBRANCH  10  11
BRANCH  10  18
ATOM     18  O   UNL     1      -1.622  13.597  19.076  0.00  0.00    +0.000 OA
ATOM     19  H   UNL     1      -0.919  14.062  19.556  0.00  0.00    +0.000 HD
ENDBRANCH  10  18
BRANCH   1  20
ATOM     20  C   UNL     1       0.752  11.393  18.793  0.00  0.00    +0.000 C 
BRANCH  20  24
ATOM     21  C   UNL     1       2.114   7.323  19.321  0.00  0.00    +0.000 A 
ATOM     22  C   UNL     1       2.242   7.919  18.068  0.00  0.00    +0.000 A 
ATOM     23  C   UNL     1       1.767   9.217  17.866  0.00  0.00    +0.000 A 
ATOM     24  C   UNL     1       1.160   9.932  18.907  0.00  0.00    +0.000 A 
ATOM     25  C   UNL     1       0.967   9.279  20.142  0.00  0.00    +0.000 A 
ATOM     26  C   UNL     1       1.445   7.979  20.354  0.00  0.00    +0.000 A 
BRANCH  21  27
ATOM     27  S   UNL     1       2.849   5.744  19.620  0.00  0.00    +0.000 S 
ATOM     28  O   UNL     1       2.277   5.183  20.814  0.00  0.00    +0.000 OA
ATOM     29  O   UNL     1       4.279   5.854  19.440  0.00  0.00    +0.000 OA
BRANCH  27  30
ATOM     30  N   UNL     1       2.232   4.841  18.347  0.00  0.00    +0.000 NA
ATOM     31  H   UNL     1       2.170   5.427  17.511  0.00  0.00    +0.000 HD
ATOM     32  H   UNL     1       2.760   3.984  18.166  0.00  0.00    +0.000 HD
ENDBRANCH  27  30
ENDBRANCH  21  27
ENDBRANCH  20  24
ENDBRANCH   1  20
TORSDOF 6
ENDMDL
MODEL 6
REMARK VINA RESULT:      -7.1      4.528      7.791
REMARK  Name = 
REMARK  6 active torsions:
REMARK  status: ('A' for Active; 'I' for Inactive)
REMARK    1  A    between atoms: N_1  and  S_2
REMARK    2  A    between atoms: S_2  and  C_5
REMARK    3  A    between atoms: C_8  and  C_9
REMARK    4  A    between atoms: C_9  and  N_10
REMARK    5  A    between atoms: C_19  and  O_20
REMARK    6  A    between atoms: C_19  and  C_21
REMARK                            x       y       z     vdW  Elec       q    Type
REMARK                         _______ _______ _______ _____ _____    ______ ____
ROOT
ATOM      1  N   UNL     1      -0.547  11.888  21.860  0.00  0.00    +0.000 N 
ATOM      2  C   UNL     1      -0.378  10.639  22.434  0.00  0.00    +0.000 C 
ATOM      3  O   UNL     1      -0.675  10.264  23.551  0.00  0.00    +0.000 OA
ATOM      4  C   UNL     1       0.308   9.807  21.446  0.00  0.00    +0.000 A 
ATOM      5  C   UNL     1       0.573   8.452  21.514  0.00  0.00    +0.000 A 
ATOM      6  C   UNL     1       1.249   7.884  20.440  0.00  0.00    +0.000 A 
ATOM      7  C   UNL     1       1.679   8.686  19.366  0.00  0.00    +0.000 A 
ATOM      8  C   UNL     1       1.351  10.050  19.298  0.00  0.00    +0.000 A 
ATOM      9  C   UNL     1       0.613  10.602  20.335  0.00  0.00    +0.000 A 
ATOM     10  C   UNL     1      -0.234  11.862  20.433  0.00  0.00    +0.000 C 
ENDROOT
BRANCH  10  11
ATOM     11  C   UNL     1       0.179  13.159  19.740  0.00  0.00    +0.000 A 
ATOM     12  C   UNL     1       1.538  13.565  19.842  0.00  0.00    +0.000 A 
ATOM     13  C   UNL     1       1.959  14.851  19.470  0.00  0.00    +0.000 A 
ATOM     14  C   UNL     1       1.035  15.748  18.960  0.00  0.00    +0.000 A 
ATOM     15 CL   UNL     1       1.516  17.362  18.618  0.00  0.00    +0.000 Cl
ATOM     16  C   UNL     1      -0.287  15.351  18.766  0.00  0.00    +0.000 A 
ATOM     17  C   UNL     1      -0.713  14.059  19.135  0.00  0.00    +0.000 A 
ENDBRANCH  10  11
BRANCH  10  18
ATOM     18  O   UNL     1      -1.460  11.492  19.776  0.00  0.00    +0.000 OA
ATOM     19  H   UNL     1      -1.474  10.527  19.672  0.00  0.00    +0.000 HD
ENDBRANCH  10  18
BRANCH   1  20
ATOM     20  C   UNL     1      -1.071  13.003  22.629  0.00  0.00    +0.000 C 
BRANCH  20  24
ATOM     21  C   UNL     1      -5.359  12.930  23.181  0.00  0.00    +0.000 A 
ATOM     22  C   UNL     1      -4.847  13.276  21.933  0.00  0.00    +0.000 A 
ATOM     23  C   UNL     1      -3.464  13.350  21.746  0.00  0.00    +0.000 A 
ATOM     24  C   UNL     1      -2.580  13.080  22.800  0.00  0.00    +0.000 A 
ATOM     25  C   UNL     1      -3.122  12.814  24.075  0.00  0.00    +0.000 A 
ATOM     26  C   UNL     1      -4.507  12.733  24.268  0.00  0.00    +0.000 A 
BRANCH  21  27
ATOM     27  S   UNL     1      -7.098  12.688  23.378  0.00  0.00    +0.000 S 
ATOM     28  O   UNL     1      -7.326  11.381  23.932  0.00  0.00    +0.000 OA
ATOM     29  O   UNL     1      -7.770  13.135  22.179  0.00  0.00    +0.000 OA
BRANCH  27  30
ATOM     30  N   UNL     1      -7.450  13.775  24.608  0.00  0.00    +0.000 NA
ATOM     31  H   UNL     1      -7.196  14.720  24.312  0.00  0.00    +0.000 HD
ATOM     32  H   UNL     1      -8.422  13.729  24.922  0.00  0.00    +0.000 HD
ENDBRANCH  27  30
ENDBRANCH  21  27
ENDBRANCH  20  24
ENDBRANCH   1  20
TORSDOF 6
ENDMDL
MODEL 7
REMARK VINA RESULT:      -7.1      4.073      7.614
REMARK  Name = 
REMARK  6 active torsions:
REMARK  status: ('A' for Active; 'I' for Inactive)
REMARK    1  A    between atoms: N_1  and  S_2
REMARK    2  A    between atoms: S_2  and  C_5
REMARK    3  A    between atoms: C_8  and  C_9
REMARK    4  A    between atoms: C_9  and  N_10
REMARK    5  A    between atoms: C_19  and  O_20
REMARK    6  A    between atoms: C_19  and  C_21
REMARK                            x       y       z     vdW  Elec       q    Type
REMARK                         _______ _______ _______ _____ _____    ______ ____
ROOT
ATOM      1  N   UNL     1      -0.533  11.801  20.141  0.00  0.00    +0.000 N 
ATOM      2  C   UNL     1      -1.805  12.345  20.072  0.00  0.00    +0.000 C 
ATOM      3  O   UNL     1      -2.314  13.196  20.775  0.00  0.00    +0.000 OA
ATOM      4  C   UNL     1      -2.505  11.652  18.990  0.00  0.00    +0.000 A 
ATOM      5  C   UNL     1      -3.749  11.941  18.461  0.00  0.00    +0.000 A 
ATOM      6  C   UNL     1      -4.203  11.126  17.429  0.00  0.00    +0.000 A 
ATOM      7  C   UNL     1      -3.433  10.030  16.997  0.00  0.00    +0.000 A 
ATOM      8  C   UNL     1      -2.150   9.791  17.516  0.00  0.00    +0.000 A 
ATOM      9  C   UNL     1      -1.665  10.648  18.494  0.00  0.00    +0.000 A 
ATOM     10  C   UNL     1      -0.258  10.948  18.987  0.00  0.00    +0.000 C 
ENDROOT
BRANCH  10  11
ATOM     11  C   UNL     1       0.798   9.851  19.110  0.00  0.00    +0.000 A 
ATOM     12  C   UNL     1       1.572   9.541  17.959  0.00  0.00    +0.000 A 
ATOM     13  C   UNL     1       2.375   8.392  17.891  0.00  0.00    +0.000 A 
ATOM     14  C   UNL     1       2.443   7.545  18.984  0.00  0.00    +0.000 A 
ATOM     15 CL   UNL     1       3.324   6.075  18.867  0.00  0.00    +0.000 Cl
ATOM     16  C   UNL     1       1.765   7.867  20.159  0.00  0.00    +0.000 A 
ATOM     17  C   UNL     1       0.960   9.023  20.232  0.00  0.00    +0.000 A 
ENDBRANCH  10  11
BRANCH  10  18
ATOM     18  O   UNL     1       0.270  11.828  17.976  0.00  0.00    +0.000 OA
ATOM     19  H   UNL     1      -0.102  11.567  17.119  0.00  0.00    +0.000 HD
ENDBRANCH  10  18
BRANCH   1  20
ATOM     20  C   UNL     1       0.381  12.166  21.209  0.00  0.00    +0.000 C 
BRANCH  20  24
ATOM     21  C   UNL     1       2.699  15.727  20.402  0.00  0.00    +0.000 A 
ATOM     22  C   UNL     1       3.110  14.516  19.849  0.00  0.00    +0.000 A 
ATOM     23  C   UNL     1       2.401  13.346  20.134  0.00  0.00    +0.000 A 
ATOM     24  C   UNL     1       1.278  13.372  20.972  0.00  0.00    +0.000 A 
ATOM     25  C   UNL     1       0.930  14.593  21.586  0.00  0.00    +0.000 A 
ATOM     26  C   UNL     1       1.634  15.771  21.301  0.00  0.00    +0.000 A 
BRANCH  21  27
ATOM     27  S   UNL     1       3.501  17.226  19.921  0.00  0.00    +0.000 S 
ATOM     28  O   UNL     1       4.081  17.047  18.617  0.00  0.00    +0.000 OA
ATOM     29  O   UNL     1       4.275  17.720  21.037  0.00  0.00    +0.000 OA
BRANCH  27  30
ATOM     30  N   UNL     1       2.190  18.251  19.702  0.00  0.00    +0.000 NA
ATOM     31  H   UNL     1       2.026  18.388  18.702  0.00  0.00    +0.000 HD
ATOM     32  H   UNL     1       1.344  17.934  20.181  0.00  0.00    +0.000 HD
ENDBRANCH  27  30
ENDBRANCH  21  27
ENDBRANCH  20  24
ENDBRANCH   1  20
TORSDOF 6
ENDMDL
MODEL 8
REMARK VINA RESULT:      -7.0      4.493      7.230
REMARK  Name = 
REMARK  6 active torsions:
REMARK  status: ('A' for Active; 'I' for Inactive)
REMARK    1  A    between atoms: N_1  and  S_2
REMARK    2  A    between atoms: S_2  and  C_5
REMARK    3  A    between atoms: C_8  and  C_9
REMARK    4  A    between atoms: C_9  and  N_10
REMARK    5  A    between atoms: C_19  and  O_20
REMARK    6  A    between atoms: C_19  and  C_21
REMARK                            x       y       z     vdW  Elec       q    Type
REMARK                         _______ _______ _______ _____ _____    ______ ____
ROOT
ATOM      1  N   UNL     1      -0.460  13.328  22.089  0.00  0.00    +0.000 N 
ATOM      2  C   UNL     1      -0.245  14.519  22.763  0.00  0.00    +0.000 C 
ATOM      3  O   UNL     1      -0.607  14.845  23.877  0.00  0.00    +0.000 OA
ATOM      4  C   UNL     1       0.480  15.400  21.848  0.00  0.00    +0.000 A 
ATOM      5  C   UNL     1       1.030  16.640  22.118  0.00  0.00    +0.000 A 
ATOM      6  C   UNL     1       1.672  17.290  21.071  0.00  0.00    +0.000 A 
ATOM      7  C   UNL     1       1.703  16.713  19.787  0.00  0.00    +0.000 A 
ATOM      8  C   UNL     1       1.183  15.429  19.553  0.00  0.00    +0.000 A 
ATOM      9  C   UNL     1       0.606  14.748  20.615  0.00  0.00    +0.000 A 
ATOM     10  C   UNL     1       0.312  13.275  20.849  0.00  0.00    +0.000 C 
ENDROOT
BRANCH  10  11
ATOM     11  C   UNL     1      -0.163  12.364  19.718  0.00  0.00    +0.000 A 
ATOM     12  C   UNL     1      -1.197  12.843  18.868  0.00  0.00    +0.000 A 
ATOM     13  C   UNL     1      -1.876  11.999  17.976  0.00  0.00    +0.000 A 
ATOM     14  C   UNL     1      -1.516  10.664  17.896  0.00  0.00    +0.000 A 
ATOM     15 CL   UNL     1      -2.422   9.598  16.898  0.00  0.00    +0.000 Cl
ATOM     16  C   UNL     1      -0.448  10.183  18.653  0.00  0.00    +0.000 A 
ATOM     17  C   UNL     1       0.239  11.030  19.547  0.00  0.00    +0.000 A 
ENDBRANCH  10  11
BRANCH  10  18
ATOM     18  O   UNL     1       1.594  12.732  21.217  0.00  0.00    +0.000 OA
ATOM     19  H   UNL     1       1.449  11.969  21.799  0.00  0.00    +0.000 HD
ENDBRANCH  10  18
BRANCH   1  20
ATOM     20  C   UNL     1      -1.283  12.279  22.663  0.00  0.00    +0.000 C 
BRANCH  20  24
ATOM     21  C   UNL     1      -5.549  12.797  23.147  0.00  0.00    +0.000 A 
ATOM     22  C   UNL     1      -5.000  12.894  21.871  0.00  0.00    +0.000 A 
ATOM     23  C   UNL     1      -3.618  12.774  21.699  0.00  0.00    +0.000 A 
ATOM     24  C   UNL     1      -2.773  12.559  22.796  0.00  0.00    +0.000 A 
ATOM     25  C   UNL     1      -3.342  12.548  24.086  0.00  0.00    +0.000 A 
ATOM     26  C   UNL     1      -4.727  12.661  24.266  0.00  0.00    +0.000 A 
BRANCH  21  27
ATOM     27  S   UNL     1      -7.305  12.795  23.347  0.00  0.00    +0.000 S 
ATOM     28  O   UNL     1      -7.722  11.490  23.785  0.00  0.00    +0.000 OA
ATOM     29  O   UNL     1      -7.906  13.442  22.203  0.00  0.00    +0.000 OA
BRANCH  27  30
ATOM     30  N   UNL     1      -7.492  13.805  24.674  0.00  0.00    +0.000 NA
ATOM     31  H   UNL     1      -7.580  14.773  24.357  0.00  0.00    +0.000 HD
ATOM     32  H   UNL     1      -8.270  13.536  25.280  0.00  0.00    +0.000 HD
ENDBRANCH  27  30
ENDBRANCH  21  27
ENDBRANCH  20  24
ENDBRANCH   1  20
TORSDOF 6
ENDMDL
MODEL 9
REMARK VINA RESULT:      -7.0      2.404      2.836
REMARK  Name = 
REMARK  6 active torsions:
REMARK  status: ('A' for Active; 'I' for Inactive)
REMARK    1  A    between atoms: N_1  and  S_2
REMARK    2  A    between atoms: S_2  and  C_5
REMARK    3  A    between atoms: C_8  and  C_9
REMARK    4  A    between atoms: C_9  and  N_10
REMARK    5  A    between atoms: C_19  and  O_20
REMARK    6  A    between atoms: C_19  and  C_21
REMARK                            x       y       z     vdW  Elec       q    Type
REMARK                         _______ _______ _______ _____ _____    ______ ____
ROOT
ATOM      1  N   UNL     1      -0.077  11.853  20.025  0.00  0.00    +0.000 N 
ATOM      2  C   UNL     1       0.989  12.549  20.570  0.00  0.00    +0.000 C 
ATOM      3  O   UNL     1       1.862  12.150  21.316  0.00  0.00    +0.000 OA
ATOM      4  C   UNL     1       0.859  13.937  20.130  0.00  0.00    +0.000 A 
ATOM      5  C   UNL     1       1.756  14.974  20.311  0.00  0.00    +0.000 A 
ATOM      6  C   UNL     1       1.401  16.217  19.799  0.00  0.00    +0.000 A 
ATOM      7  C   UNL     1       0.153  16.397  19.174  0.00  0.00    +0.000 A 
ATOM      8  C   UNL     1      -0.717  15.316  18.957  0.00  0.00    +0.000 A 
ATOM      9  C   UNL     1      -0.331  14.060  19.403  0.00  0.00    +0.000 A 
ATOM     10  C   UNL     1      -0.779  12.656  19.027  0.00  0.00    +0.000 C 
ENDROOT
BRANCH  10  11
ATOM     11  C   UNL     1      -2.240  12.340  18.713  0.00  0.00    +0.000 A 
ATOM     12  C   UNL     1      -3.221  12.705  19.676  0.00  0.00    +0.000 A 
ATOM     13  C   UNL     1      -4.541  12.234  19.606  0.00  0.00    +0.000 A 
ATOM     14  C   UNL     1      -4.915  11.412  18.557  0.00  0.00    +0.000 A 
ATOM     15 CL   UNL     1      -6.493  10.732  18.530  0.00  0.00    +0.000 Cl
ATOM     16  C   UNL     1      -4.000  11.106  17.550  0.00  0.00    +0.000 A 
ATOM     17  C   UNL     1      -2.674  11.581  17.615  0.00  0.00    +0.000 A 
ENDBRANCH  10  11
BRANCH  10  18
ATOM     18  O   UNL     1      -0.096  12.409  17.783  0.00  0.00    +0.000 OA
ATOM     19  H   UNL     1       0.788  12.806  17.835  0.00  0.00    +0.000 HD
ENDBRANCH  10  18
BRANCH   1  20
ATOM     20  C   UNL     1      -0.331  10.468  20.382  0.00  0.00    +0.000 C 
BRANCH  20  24
ATOM     21  C   UNL     1       2.390   7.433  18.937  0.00  0.00    +0.000 A 
ATOM     22  C   UNL     1       2.017   7.420  20.279  0.00  0.00    +0.000 A 
ATOM     23  C   UNL     1       1.175   8.418  20.776  0.00  0.00    +0.000 A 
ATOM     24  C   UNL     1       0.698   9.438  19.941  0.00  0.00    +0.000 A 
ATOM     25  C   UNL     1       1.155   9.478  18.608  0.00  0.00    +0.000 A 
ATOM     26  C   UNL     1       1.995   8.478  18.101  0.00  0.00    +0.000 A 
BRANCH  21  27
ATOM     27  S   UNL     1       3.328   6.091  18.275  0.00  0.00    +0.000 S 
ATOM     28  O   UNL     1       4.319   6.615  17.374  0.00  0.00    +0.000 OA
ATOM     29  O   UNL     1       2.421   5.038  17.878  0.00  0.00    +0.000 OA
BRANCH  27  30
ATOM     30  N   UNL     1       4.170   5.569  19.630  0.00  0.00    +0.000 NA
ATOM     31  H   UNL     1       5.153   5.839  19.546  0.00  0.00    +0.000 HD
ATOM     32  H   UNL     1       3.765   5.898  20.509  0.00  0.00    +0.000 HD
ENDBRANCH  27  30
ENDBRANCH  21  27
ENDBRANCH  20  24
ENDBRANCH   1  20
TORSDOF 6
ENDMDL
