MODEL 1
REMARK VINA RESULT:      -7.2      0.000      0.000
REMARK  Name = 
REMARK  4 active torsions:
REMARK  status: ('A' for Active; 'I' for Inactive)
REMARK    1  A    between atoms: S_2  and  N_4
REMARK    2  A    between atoms: S_2  and  C_17
REMARK    3  A    between atoms: C_9  and  C_10
REMARK    4  A    between atoms: C_20  and  C_21
REMARK                            x       y       z     vdW  Elec       q    Type
REMARK                         _______ _______ _______ _____ _____    ______ ____
ROOT
ATOM      1  N   UNL     1       7.507   4.868  16.944  0.00  0.00    +0.000 N 
ATOM      2  C   UNL     1       6.923   4.658  15.687  0.00  0.00    +0.000 A 
ATOM      3  N   UNL     1       7.538   5.061  14.578  0.00  0.00    +0.000 NA
ATOM      4  O   UNL     1       6.735   4.611  13.540  0.00  0.00    +0.000 OA
ATOM      5  N   UNL     1       5.633   3.922  14.018  0.00  0.00    +0.000 NA
ATOM      6  C   UNL     1       5.721   3.967  15.356  0.00  0.00    +0.000 A 
ATOM      7  H   UNL     1       7.376   4.103  17.606  0.00  0.00    +0.000 HD
ENDROOT
BRANCH   6   8
ATOM      8  C   UNL     1       4.662   3.397  16.196  0.00  0.00    +0.000 A 
ATOM      9  C   UNL     1       3.375   3.958  16.189  0.00  0.00    +0.000 A 
ATOM     10  C   UNL     1       2.386   3.497  17.073  0.00  0.00    +0.000 A 
ATOM     11  C   UNL     1       2.672   2.466  17.961  0.00  0.00    +0.000 A 
ATOM     12 CL   UNL     1       1.487   1.938  19.087  0.00  0.00    +0.000 Cl
ATOM     13  C   UNL     1       3.931   1.880  17.964  0.00  0.00    +0.000 A 
ATOM     14  C   UNL     1       4.917   2.348  17.089  0.00  0.00    +0.000 A 
ENDBRANCH   6   8
BRANCH   1  16
ATOM     15  O   UNL     1       8.015   6.544  18.824  0.00  0.00    +0.000 OA
ATOM     16  S   UNL     1       7.084   6.289  17.749  0.00  0.00    +0.000 S 
ATOM     17  O   UNL     1       6.898   7.265  16.697  0.00  0.00    +0.000 OA
BRANCH  16  18
ATOM     18  C   UNL     1       5.507   5.925  18.447  0.00  0.00    +0.000 A 
ATOM     19  C   UNL     1       5.417   4.948  19.441  0.00  0.00    +0.000 A 
ATOM     20  C   UNL     1       4.204   4.747  20.099  0.00  0.00    +0.000 A 
ATOM     21  C   UNL     1       3.082   5.525  19.775  0.00  0.00    +0.000 A 
ATOM     22  C   UNL     1       3.190   6.499  18.765  0.00  0.00    +0.000 A 
ATOM     23  C   UNL     1       4.401   6.706  18.105  0.00  0.00    +0.000 A 
BRANCH  21  24
ATOM     24  C   UNL     1       1.774   5.347  20.508  0.00  0.00    +0.000 C 
ATOM     25  F   UNL     1       0.802   4.766  19.752  0.00  0.00    +0.000 F 
ATOM     26  F   UNL     1       1.907   4.561  21.615  0.00  0.00    +0.000 F 
ATOM     27  F   UNL     1       1.258   6.527  20.945  0.00  0.00    +0.000 F 
ENDBRANCH  21  24
ENDBRANCH  16  18
ENDBRANCH   1  16
TORSDOF 4
ENDMDL
MODEL 2
REMARK VINA RESULT:      -7.1      0.273      1.367
REMARK  Name = 
REMARK  4 active torsions:
REMARK  status: ('A' for Active; 'I' for Inactive)
REMARK    1  A    between atoms: S_2  and  N_4
REMARK    2  A    between atoms: S_2  and  C_17
REMARK    3  A    between atoms: C_9  and  C_10
REMARK    4  A    between atoms: C_20  and  C_21
REMARK                            x       y       z     vdW  Elec       q    Type
REMARK                         _______ _______ _______ _____ _____    ______ ____
ROOT
ATOM      1  N   UNL     1       7.467   5.012  17.042  0.00  0.00    +0.000 N 
ATOM      2  C   UNL     1       6.907   4.693  15.798  0.00  0.00    +0.000 A 
ATOM      3  N   UNL     1       7.553   4.980  14.670  0.00  0.00    +0.000 NA
ATOM      4  O   UNL     1       6.765   4.447  13.661  0.00  0.00    +0.000 OA
ATOM      5  N   UNL     1       5.640   3.824  14.175  0.00  0.00    +0.000 NA
ATOM      6  C   UNL     1       5.700   3.994  15.506  0.00  0.00    +0.000 A 
ATOM      7  H   UNL     1       7.309   4.315  17.770  0.00  0.00    +0.000 HD
ENDROOT
BRANCH   6   8
ATOM      8  C   UNL     1       4.613   3.523  16.371  0.00  0.00    +0.000 A 
ATOM      9  C   UNL     1       4.830   2.462  17.265  0.00  0.00    +0.000 A 
ATOM     10  C   UNL     1       3.769   1.927  18.013  0.00  0.00    +0.000 A 
ATOM     11  C   UNL     1       2.489   2.452  17.882  0.00  0.00    +0.000 A 
ATOM     12 CL   UNL     1       1.176   1.763  18.747  0.00  0.00    +0.000 Cl
ATOM     13  C   UNL     1       2.260   3.519  17.023  0.00  0.00    +0.000 A 
ATOM     14  C   UNL     1       3.317   4.046  16.272  0.00  0.00    +0.000 A 
ENDBRANCH   6   8
BRANCH   1  16
ATOM     15  O   UNL     1       8.062   6.931  18.645  0.00  0.00    +0.000 OA
ATOM     16  S   UNL     1       7.053   6.509  17.701  0.00  0.00    +0.000 S 
ATOM     17  O   UNL     1       6.733   7.336  16.557  0.00  0.00    +0.000 OA
BRANCH  16  18
ATOM     18  C   UNL     1       5.561   6.185  18.581  0.00  0.00    +0.000 A 
ATOM     19  C   UNL     1       4.412   6.909  18.253  0.00  0.00    +0.000 A 
ATOM     20  C   UNL     1       3.195   6.568  18.840  0.00  0.00    +0.000 A 
ATOM     21  C   UNL     1       3.118   5.500  19.748  0.00  0.00    +0.000 A 
ATOM     22  C   UNL     1       4.287   4.788  20.072  0.00  0.00    +0.000 A 
ATOM     23  C   UNL     1       5.507   5.123  19.486  0.00  0.00    +0.000 A 
BRANCH  21  24
ATOM     24  C   UNL     1       1.798   5.094  20.360  0.00  0.00    +0.000 C 
ATOM     25  F   UNL     1       0.866   4.715  19.442  0.00  0.00    +0.000 F 
ATOM     26  F   UNL     1       1.930   4.040  21.215  0.00  0.00    +0.000 F 
ATOM     27  F   UNL     1       1.230   6.095  21.083  0.00  0.00    +0.000 F 
ENDBRANCH  21  24
ENDBRANCH  16  18
ENDBRANCH   1  16
TORSDOF 4
ENDMDL
MODEL 3
REMARK VINA RESULT:      -7.1      1.654      2.052
REMARK  Name = 
REMARK  4 active torsions:
REMARK  status: ('A' for Active; 'I' for Inactive)
REMARK    1  A    between atoms: S_2  and  N_4
REMARK    2  A    between atoms: S_2  and  C_17
REMARK    3  A    between atoms: C_9  and  C_10
REMARK    4  A    between atoms: C_20  and  C_21
REMARK                            x       y       z     vdW  Elec       q    Type
REMARK                         _______ _______ _______ _____ _____    ______ ____
ROOT
ATOM      1  N   UNL     1       7.357   4.193  17.770  0.00  0.00    +0.000 N 
ATOM      2  C   UNL     1       6.730   4.261  16.519  0.00  0.00    +0.000 A 
ATOM      3  N   UNL     1       7.412   4.632  15.438  0.00  0.00    +0.000 NA
ATOM      4  O   UNL     1       6.518   4.495  14.386  0.00  0.00    +0.000 OA
ATOM      5  N   UNL     1       5.291   4.026  14.825  0.00  0.00    +0.000 NA
ATOM      6  C   UNL     1       5.398   3.903  16.158  0.00  0.00    +0.000 A 
ATOM      7  H   UNL     1       7.060   3.410  18.352  0.00  0.00    +0.000 HD
ENDROOT
BRANCH   6   8
ATOM      8  C   UNL     1       4.244   3.500  16.968  0.00  0.00    +0.000 A 
ATOM      9  C   UNL     1       2.975   4.043  16.710  0.00  0.00    +0.000 A 
ATOM     10  C   UNL     1       1.888   3.756  17.550  0.00  0.00    +0.000 A 
ATOM     11  C   UNL     1       2.057   2.918  18.647  0.00  0.00    +0.000 A 
ATOM     12 CL   UNL     1       0.747   2.611  19.714  0.00  0.00    +0.000 Cl
ATOM     13  C   UNL     1       3.297   2.350  18.903  0.00  0.00    +0.000 A 
ATOM     14  C   UNL     1       4.382   2.644  18.069  0.00  0.00    +0.000 A 
ENDBRANCH   6   8
BRANCH   1  16
ATOM     15  O   UNL     1       7.391   5.214  20.128  0.00  0.00    +0.000 OA
ATOM     16  S   UNL     1       7.280   5.576  18.734  0.00  0.00    +0.000 S 
ATOM     17  O   UNL     1       8.231   6.490  18.139  0.00  0.00    +0.000 OA
BRANCH  16  18
ATOM     18  C   UNL     1       5.658   6.202  18.444  0.00  0.00    +0.000 A 
ATOM     19  C   UNL     1       4.656   5.944  19.382  0.00  0.00    +0.000 A 
ATOM     20  C   UNL     1       3.409   6.549  19.238  0.00  0.00    +0.000 A 
ATOM     21  C   UNL     1       3.159   7.417  18.164  0.00  0.00    +0.000 A 
ATOM     22  C   UNL     1       4.177   7.657  17.223  0.00  0.00    +0.000 A 
ATOM     23  C   UNL     1       5.429   7.057  17.364  0.00  0.00    +0.000 A 
BRANCH  21  24
ATOM     24  C   UNL     1       1.825   8.110  18.018  0.00  0.00    +0.000 C 
ATOM     25  F   UNL     1       0.895   7.366  17.358  0.00  0.00    +0.000 F 
ATOM     26  F   UNL     1       1.269   8.418  19.224  0.00  0.00    +0.000 F 
ATOM     27  F   UNL     1       1.921   9.284  17.338  0.00  0.00    +0.000 F 
ENDBRANCH  21  24
ENDBRANCH  16  18
ENDBRANCH   1  16
TORSDOF 4
ENDMDL
MODEL 4
REMARK VINA RESULT:      -7.0      4.682      5.956
REMARK  Name = 
REMARK  4 active torsions:
REMARK  status: ('A' for Active; 'I' for Inactive)
REMARK    1  A    between atoms: S_2  and  N_4
REMARK    2  A    between atoms: S_2  and  C_17
REMARK    3  A    between atoms: C_9  and  C_10
REMARK    4  A    between atoms: C_20  and  C_21
REMARK                            x       y       z     vdW  Elec       q    Type
REMARK                         _______ _______ _______ _____ _____    ______ ____
ROOT
ATOM      1  N   UNL     1       6.055   4.547  19.400  0.00  0.00    +0.000 N 
ATOM      2  C   UNL     1       4.850   3.839  19.295  0.00  0.00    +0.000 A 
ATOM      3  N   UNL     1       4.832   2.512  19.396  0.00  0.00    +0.000 NA
ATOM      4  O   UNL     1       3.489   2.168  19.343  0.00  0.00    +0.000 OA
ATOM      5  N   UNL     1       2.686   3.289  19.221  0.00  0.00    +0.000 NA
ATOM      6  C   UNL     1       3.522   4.338  19.161  0.00  0.00    +0.000 A 
ATOM      7  H   UNL     1       5.986   5.432  19.901  0.00  0.00    +0.000 HD
ENDROOT
BRANCH   6   8
ATOM      8  C   UNL     1       3.007   5.695  18.948  0.00  0.00    +0.000 A 
ATOM      9  C   UNL     1       3.288   6.378  17.754  0.00  0.00    +0.000 A 
ATOM     10  C   UNL     1       2.900   7.717  17.586  0.00  0.00    +0.000 A 
ATOM     11  C   UNL     1       2.223   8.379  18.603  0.00  0.00    +0.000 A 
ATOM     12 CL   UNL     1       1.800  10.035  18.429  0.00  0.00    +0.000 Cl
ATOM     13  C   UNL     1       1.912   7.712  19.780  0.00  0.00    +0.000 A 
ATOM     14  C   UNL     1       2.307   6.380  19.949  0.00  0.00    +0.000 A 
ENDBRANCH   6   8
BRANCH   1  16
ATOM     15  O   UNL     1       8.075   4.060  17.886  0.00  0.00    +0.000 OA
ATOM     16  S   UNL     1       6.877   4.864  17.960  0.00  0.00    +0.000 S 
ATOM     17  O   UNL     1       5.865   4.762  16.931  0.00  0.00    +0.000 OA
BRANCH  16  18
ATOM     18  C   UNL     1       7.344   6.557  18.106  0.00  0.00    +0.000 A 
ATOM     19  C   UNL     1       8.338   6.907  19.024  0.00  0.00    +0.000 A 
ATOM     20  C   UNL     1       8.816   8.216  19.053  0.00  0.00    +0.000 A 
ATOM     21  C   UNL     1       8.312   9.177  18.162  0.00  0.00    +0.000 A 
ATOM     22  C   UNL     1       7.306   8.808  17.251  0.00  0.00    +0.000 A 
ATOM     23  C   UNL     1       6.826   7.499  17.216  0.00  0.00    +0.000 A 
BRANCH  21  24
ATOM     24  C   UNL     1       8.850  10.588  18.154  0.00  0.00    +0.000 C 
ATOM     25  F   UNL     1      10.071  10.701  17.561  0.00  0.00    +0.000 F 
ATOM     26  F   UNL     1       8.029  11.448  17.487  0.00  0.00    +0.000 F 
ATOM     27  F   UNL     1       8.990  11.098  19.407  0.00  0.00    +0.000 F 
ENDBRANCH  21  24
ENDBRANCH  16  18
ENDBRANCH   1  16
TORSDOF 4
ENDMDL
MODEL 5
REMARK VINA RESULT:      -6.9      4.667      5.896
REMARK  Name = 
REMARK  4 active torsions:
REMARK  status: ('A' for Active; 'I' for Inactive)
REMARK    1  A    between atoms: S_2  and  N_4
REMARK    2  A    between atoms: S_2  and  C_17
REMARK    3  A    between atoms: C_9  and  C_10
REMARK    4  A    between atoms: C_20  and  C_21
REMARK                            x       y       z     vdW  Elec       q    Type
REMARK                         _______ _______ _______ _____ _____    ______ ____
ROOT
ATOM      1  N   UNL     1       5.982   4.418  18.989  0.00  0.00    +0.000 N 
ATOM      2  C   UNL     1       4.709   3.855  18.821  0.00  0.00    +0.000 A 
ATOM      3  N   UNL     1       4.559   2.536  18.725  0.00  0.00    +0.000 NA
ATOM      4  O   UNL     1       3.188   2.336  18.666  0.00  0.00    +0.000 OA
ATOM      5  N   UNL     1       2.499   3.536  18.738  0.00  0.00    +0.000 NA
ATOM      6  C   UNL     1       3.436   4.495  18.806  0.00  0.00    +0.000 A 
ATOM      7  H   UNL     1       6.011   5.221  19.617  0.00  0.00    +0.000 HD
ENDROOT
BRANCH   6   8
ATOM      8  C   UNL     1       3.057   5.912  18.812  0.00  0.00    +0.000 A 
ATOM      9  C   UNL     1       2.358   6.452  19.904  0.00  0.00    +0.000 A 
ATOM     10  C   UNL     1       1.889   7.775  19.871  0.00  0.00    +0.000 A 
ATOM     11  C   UNL     1       2.124   8.571  18.755  0.00  0.00    +0.000 A 
ATOM     12 CL   UNL     1       1.501  10.169  18.683  0.00  0.00    +0.000 Cl
ATOM     13  C   UNL     1       2.837   8.063  17.677  0.00  0.00    +0.000 A 
ATOM     14  C   UNL     1       3.296   6.741  17.709  0.00  0.00    +0.000 A 
ENDBRANCH   6   8
BRANCH   1  16
ATOM     15  O   UNL     1       7.990   4.056  17.427  0.00  0.00    +0.000 OA
ATOM     16  S   UNL     1       6.805   4.867  17.586  0.00  0.00    +0.000 S 
ATOM     17  O   UNL     1       5.789   4.885  16.555  0.00  0.00    +0.000 OA
BRANCH  16  18
ATOM     18  C   UNL     1       7.300   6.529  17.900  0.00  0.00    +0.000 A 
ATOM     19  C   UNL     1       8.249   6.775  18.895  0.00  0.00    +0.000 A 
ATOM     20  C   UNL     1       8.752   8.064  19.061  0.00  0.00    +0.000 A 
ATOM     21  C   UNL     1       8.318   9.109  18.230  0.00  0.00    +0.000 A 
ATOM     22  C   UNL     1       7.355   8.844  17.240  0.00  0.00    +0.000 A 
ATOM     23  C   UNL     1       6.850   7.555  17.068  0.00  0.00    +0.000 A 
BRANCH  21  24
ATOM     24  C   UNL     1       8.886  10.501  18.371  0.00  0.00    +0.000 C 
ATOM     25  F   UNL     1       8.178  11.448  17.695  0.00  0.00    +0.000 F 
ATOM     26  F   UNL     1       8.917  10.916  19.670  0.00  0.00    +0.000 F 
ATOM     27  F   UNL     1      10.165  10.590  17.918  0.00  0.00    +0.000 F 
ENDBRANCH  21  24
ENDBRANCH  16  18
ENDBRANCH   1  16
TORSDOF 4
ENDMDL
MODEL 6
REMARK VINA RESULT:      -6.9      0.233      1.228
REMARK  Name = 
REMARK  4 active torsions:
REMARK  status: ('A' for Active; 'I' for Inactive)
REMARK    1  A    between atoms: S_2  and  N_4
REMARK    2  A    between atoms: S_2  and  C_17
REMARK    3  A    between atoms: C_9  and  C_10
REMARK    4  A    between atoms: C_20  and  C_21
REMARK                            x       y       z     vdW  Elec       q    Type
REMARK                         _______ _______ _______ _____ _____    ______ ____
ROOT
ATOM      1  N   UNL     1       7.549   4.957  16.940  0.00  0.00    +0.000 N 
ATOM      2  C   UNL     1       6.921   4.715  15.711  0.00  0.00    +0.000 A 
ATOM      3  N   UNL     1       7.503   5.077  14.569  0.00  0.00    +0.000 NA
ATOM      4  O   UNL     1       6.661   4.604  13.573  0.00  0.00    +0.000 OA
ATOM      5  N   UNL     1       5.569   3.942  14.109  0.00  0.00    +0.000 NA
ATOM      6  C   UNL     1       5.702   4.027  15.442  0.00  0.00    +0.000 A 
ATOM      7  H   UNL     1       7.434   4.215  17.629  0.00  0.00    +0.000 HD
ENDROOT
BRANCH   6   8
ATOM      8  C   UNL     1       4.667   3.495  16.334  0.00  0.00    +0.000 A 
ATOM      9  C   UNL     1       4.926   2.361  17.121  0.00  0.00    +0.000 A 
ATOM     10  C   UNL     1       3.908   1.774  17.890  0.00  0.00    +0.000 A 
ATOM     11  C   UNL     1       2.630   2.320  17.887  0.00  0.00    +0.000 A 
ATOM     12 CL   UNL     1       1.365   1.572  18.777  0.00  0.00    +0.000 Cl
ATOM     13  C   UNL     1       2.361   3.457  17.137  0.00  0.00    +0.000 A 
ATOM     14  C   UNL     1       3.375   4.036  16.364  0.00  0.00    +0.000 A 
ENDBRANCH   6   8
BRANCH   1  16
ATOM     15  O   UNL     1       8.098   6.651  18.793  0.00  0.00    +0.000 OA
ATOM     16  S   UNL     1       7.169   6.407  17.714  0.00  0.00    +0.000 S 
ATOM     17  O   UNL     1       7.026   7.369  16.642  0.00  0.00    +0.000 OA
BRANCH  16  18
ATOM     18  C   UNL     1       5.573   6.110  18.403  0.00  0.00    +0.000 A 
ATOM     19  C   UNL     1       5.428   5.107  19.364  0.00  0.00    +0.000 A 
ATOM     20  C   UNL     1       4.206   4.955  20.018  0.00  0.00    +0.000 A 
ATOM     21  C   UNL     1       3.130   5.806  19.722  0.00  0.00    +0.000 A 
ATOM     22  C   UNL     1       3.292   6.804  18.744  0.00  0.00    +0.000 A 
ATOM     23  C   UNL     1       4.514   6.964  18.089  0.00  0.00    +0.000 A 
BRANCH  21  24
ATOM     24  C   UNL     1       1.814   5.678  20.451  0.00  0.00    +0.000 C 
ATOM     25  F   UNL     1       1.904   4.979  21.617  0.00  0.00    +0.000 F 
ATOM     26  F   UNL     1       1.289   6.892  20.784  0.00  0.00    +0.000 F 
ATOM     27  F   UNL     1       0.865   5.050  19.707  0.00  0.00    +0.000 F 
ENDBRANCH  21  24
ENDBRANCH  16  18
ENDBRANCH   1  16
TORSDOF 4
ENDMDL
MODEL 7
REMARK VINA RESULT:      -6.9      3.312      4.726
REMARK  Name = 
REMARK  4 active torsions:
REMARK  status: ('A' for Active; 'I' for Inactive)
REMARK    1  A    between atoms: S_2  and  N_4
REMARK    2  A    between atoms: S_2  and  C_17
REMARK    3  A    between atoms: C_9  and  C_10
REMARK    4  A    between atoms: C_20  and  C_21
REMARK                            x       y       z     vdW  Elec       q    Type
REMARK                         _______ _______ _______ _____ _____    ______ ____
ROOT
ATOM      1  N   UNL     1       4.400   2.796  18.458  0.00  0.00    +0.000 N 
ATOM      2  C   UNL     1       5.250   3.883  18.702  0.00  0.00    +0.000 A 
ATOM      3  N   UNL     1       5.426   4.341  19.939  0.00  0.00    +0.000 NA
ATOM      4  O   UNL     1       6.386   5.336  19.819  0.00  0.00    +0.000 OA
ATOM      5  N   UNL     1       6.804   5.476  18.506  0.00  0.00    +0.000 NA
ATOM      6  C   UNL     1       6.084   4.596  17.793  0.00  0.00    +0.000 A 
ATOM      7  H   UNL     1       4.732   2.150  17.742  0.00  0.00    +0.000 HD
ENDROOT
BRANCH   6   8
ATOM      8  C   UNL     1       6.214   4.530  16.333  0.00  0.00    +0.000 A 
ATOM      9  C   UNL     1       5.433   3.627  15.594  0.00  0.00    +0.000 A 
ATOM     10  C   UNL     1       5.631   3.472  14.212  0.00  0.00    +0.000 A 
ATOM     11  C   UNL     1       6.601   4.224  13.559  0.00  0.00    +0.000 A 
ATOM     12 CL   UNL     1       6.890   3.996  11.881  0.00  0.00    +0.000 Cl
ATOM     13  C   UNL     1       7.364   5.142  14.267  0.00  0.00    +0.000 A 
ATOM     14  C   UNL     1       7.171   5.288  15.646  0.00  0.00    +0.000 A 
ENDBRANCH   6   8
BRANCH   1  16
ATOM     15  O   UNL     1       2.660   3.403  16.666  0.00  0.00    +0.000 OA
ATOM     16  S   UNL     1       2.795   3.157  18.083  0.00  0.00    +0.000 S 
ATOM     17  O   UNL     1       2.026   2.108  18.718  0.00  0.00    +0.000 OA
BRANCH  16  18
ATOM     18  C   UNL     1       2.489   4.663  18.946  0.00  0.00    +0.000 A 
ATOM     19  C   UNL     1       2.642   5.874  18.267  0.00  0.00    +0.000 A 
ATOM     20  C   UNL     1       2.270   7.063  18.892  0.00  0.00    +0.000 A 
ATOM     21  C   UNL     1       1.737   7.048  20.191  0.00  0.00    +0.000 A 
ATOM     22  C   UNL     1       1.598   5.819  20.862  0.00  0.00    +0.000 A 
ATOM     23  C   UNL     1       1.966   4.626  20.241  0.00  0.00    +0.000 A 
BRANCH  21  24
ATOM     24  C   UNL     1       1.292   8.325  20.864  0.00  0.00    +0.000 C 
ATOM     25  F   UNL     1       2.021   8.639  21.970  0.00  0.00    +0.000 F 
ATOM     26  F   UNL     1       1.386   9.404  20.036  0.00  0.00    +0.000 F 
ATOM     27  F   UNL     1      -0.006   8.274  21.269  0.00  0.00    +0.000 F 
ENDBRANCH  21  24
ENDBRANCH  16  18
ENDBRANCH   1  16
TORSDOF 4
ENDMDL
MODEL 8
REMARK VINA RESULT:      -6.9      1.626      2.287
REMARK  Name = 
REMARK  4 active torsions:
REMARK  status: ('A' for Active; 'I' for Inactive)
REMARK    1  A    between atoms: S_2  and  N_4
REMARK    2  A    between atoms: S_2  and  C_17
REMARK    3  A    between atoms: C_9  and  C_10
REMARK    4  A    between atoms: C_20  and  C_21
REMARK                            x       y       z     vdW  Elec       q    Type
REMARK                         _______ _______ _______ _____ _____    ______ ____
ROOT
ATOM      1  N   UNL     1       7.375   4.216  17.754  0.00  0.00    +0.000 N 
ATOM      2  C   UNL     1       6.764   4.289  16.496  0.00  0.00    +0.000 A 
ATOM      3  N   UNL     1       7.462   4.657  15.424  0.00  0.00    +0.000 NA
ATOM      4  O   UNL     1       6.580   4.525  14.361  0.00  0.00    +0.000 OA
ATOM      5  N   UNL     1       5.345   4.065  14.784  0.00  0.00    +0.000 NA
ATOM      6  C   UNL     1       5.435   3.940  16.118  0.00  0.00    +0.000 A 
ATOM      7  H   UNL     1       7.065   3.435  18.332  0.00  0.00    +0.000 HD
ENDROOT
BRANCH   6   8
ATOM      8  C   UNL     1       4.268   3.545  16.914  0.00  0.00    +0.000 A 
ATOM      9  C   UNL     1       4.362   2.483  17.829  0.00  0.00    +0.000 A 
ATOM     10  C   UNL     1       3.225   2.021  18.510  0.00  0.00    +0.000 A 
ATOM     11  C   UNL     1       1.990   2.620  18.291  0.00  0.00    +0.000 A 
ATOM     12 CL   UNL     1       0.584   2.020  19.074  0.00  0.00    +0.000 Cl
ATOM     13  C   UNL     1       1.881   3.688  17.411  0.00  0.00    +0.000 A 
ATOM     14  C   UNL     1       3.015   4.142  16.726  0.00  0.00    +0.000 A 
ENDBRANCH   6   8
BRANCH   1  16
ATOM     15  O   UNL     1       7.407   5.237  20.113  0.00  0.00    +0.000 OA
ATOM     16  S   UNL     1       7.295   5.598  18.719  0.00  0.00    +0.000 S 
ATOM     17  O   UNL     1       8.244   6.515  18.124  0.00  0.00    +0.000 OA
BRANCH  16  18
ATOM     18  C   UNL     1       5.672   6.221  18.429  0.00  0.00    +0.000 A 
ATOM     19  C   UNL     1       4.663   5.934  19.351  0.00  0.00    +0.000 A 
ATOM     20  C   UNL     1       3.413   6.534  19.210  0.00  0.00    +0.000 A 
ATOM     21  C   UNL     1       3.167   7.426  18.155  0.00  0.00    +0.000 A 
ATOM     22  C   UNL     1       4.193   7.696  17.231  0.00  0.00    +0.000 A 
ATOM     23  C   UNL     1       5.447   7.102  17.369  0.00  0.00    +0.000 A 
BRANCH  21  24
ATOM     24  C   UNL     1       1.830   8.114  18.014  0.00  0.00    +0.000 C 
ATOM     25  F   UNL     1       1.892   9.286  17.323  0.00  0.00    +0.000 F 
ATOM     26  F   UNL     1       0.920   7.341  17.356  0.00  0.00    +0.000 F 
ATOM     27  F   UNL     1       1.270   8.414  19.216  0.00  0.00    +0.000 F 
ENDBRANCH  21  24
ENDBRANCH  16  18
ENDBRANCH   1  16
TORSDOF 4
ENDMDL
MODEL 9
REMARK VINA RESULT:      -6.7      4.386      6.179
REMARK  Name = 
REMARK  4 active torsions:
REMARK  status: ('A' for Active; 'I' for Inactive)
REMARK    1  A    between atoms: S_2  and  N_4
REMARK    2  A    between atoms: S_2  and  C_17
REMARK    3  A    between atoms: C_9  and  C_10
REMARK    4  A    between atoms: C_20  and  C_21
REMARK                            x       y       z     vdW  Elec       q    Type
REMARK                         _______ _______ _______ _____ _____    ______ ____
ROOT
ATOM      1  N   UNL     1       5.440   5.338  19.097  0.00  0.00    +0.000 N 
ATOM      2  C   UNL     1       4.242   4.805  18.602  0.00  0.00    +0.000 A 
ATOM      3  N   UNL     1       4.195   3.558  18.139  0.00  0.00    +0.000 NA
ATOM      4  O   UNL     1       2.860   3.341  17.830  0.00  0.00    +0.000 OA
ATOM      5  N   UNL     1       2.089   4.455  18.117  0.00  0.00    +0.000 NA
ATOM      6  C   UNL     1       2.941   5.387  18.572  0.00  0.00    +0.000 A 
ATOM      7  H   UNL     1       5.332   5.940  19.913  0.00  0.00    +0.000 HD
ENDROOT
BRANCH   6   8
ATOM      8  C   UNL     1       2.470   6.737  18.899  0.00  0.00    +0.000 A 
ATOM      9  C   UNL     1       2.016   7.033  20.195  0.00  0.00    +0.000 A 
ATOM     10  C   UNL     1       1.455   8.286  20.489  0.00  0.00    +0.000 A 
ATOM     11  C   UNL     1       1.354   9.255  19.496  0.00  0.00    +0.000 A 
ATOM     12 CL   UNL     1       0.614  10.767  19.833  0.00  0.00    +0.000 Cl
ATOM     13  C   UNL     1       1.823   8.991  18.217  0.00  0.00    +0.000 A 
ATOM     14  C   UNL     1       2.373   7.738  17.923  0.00  0.00    +0.000 A 
ENDBRANCH   6   8
BRANCH   1  16
ATOM     15  O   UNL     1       5.950   7.539  17.871  0.00  0.00    +0.000 OA
ATOM     16  S   UNL     1       6.409   6.175  17.998  0.00  0.00    +0.000 S 
ATOM     17  O   UNL     1       7.765   5.898  18.422  0.00  0.00    +0.000 OA
BRANCH  16  18
ATOM     18  C   UNL     1       6.130   5.342  16.470  0.00  0.00    +0.000 A 
ATOM     19  C   UNL     1       5.256   5.912  15.540  0.00  0.00    +0.000 A 
ATOM     20  C   UNL     1       5.132   5.340  14.275  0.00  0.00    +0.000 A 
ATOM     21  C   UNL     1       5.885   4.206  13.930  0.00  0.00    +0.000 A 
ATOM     22  C   UNL     1       6.753   3.642  14.882  0.00  0.00    +0.000 A 
ATOM     23  C   UNL     1       6.883   4.211  16.149  0.00  0.00    +0.000 A 
BRANCH  21  24
ATOM     24  C   UNL     1       5.791   3.602  12.549  0.00  0.00    +0.000 C 
ATOM     25  F   UNL     1       6.703   4.104  11.672  0.00  0.00    +0.000 F 
ATOM     26  F   UNL     1       5.990   2.253  12.563  0.00  0.00    +0.000 F 
ATOM     27  F   UNL     1       4.572   3.795  11.978  0.00  0.00    +0.000 F 
ENDBRANCH  21  24
ENDBRANCH  16  18
ENDBRANCH   1  16
TORSDOF 4
ENDMDL
