MODEL 1
REMARK VINA RESULT:      -7.2      0.000      0.000
REMARK  Name = 
REMARK  4 active torsions:
REMARK  status: ('A' for Active; 'I' for Inactive)
REMARK    1  A    between atoms: C_6  and  C_7
REMARK    2  A    between atoms: C_7  and  C_8
REMARK    3  A    between atoms: N_10  and  C_11
REMARK    4  A    between atoms: C_11  and  C_12
REMARK                            x       y       z     vdW  Elec       q    Type
REMARK                         _______ _______ _______ _____ _____    ______ ____
ROOT
ATOM      1  C   UNL     1       3.650   7.046  17.630  0.00  0.00    +0.000 C 
ATOM      2  O   UNL     1       2.848   7.964  17.503  0.00  0.00    +0.000 OA
ATOM      3  N   UNL     1       3.645   6.169  18.685  0.00  0.00    +0.000 N 
ATOM      4  H   UNL     1       4.187   5.316  18.644  0.00  0.00    +0.000 HD
ENDROOT
BRANCH   1   5
ATOM      5  C   UNL     1       4.756   6.820  16.631  0.00  0.00    +0.000 C 
BRANCH   5  11
ATOM      6  N   UNL     1       6.472   3.731  13.860  0.00  0.00    +0.000 N 
ATOM      7  C   UNL     1       6.473   4.418  15.026  0.00  0.00    +0.000 C 
ATOM      8  N   UNL     1       7.385   5.236  15.401  0.00  0.00    +0.000 NA
ATOM      9  C   UNL     1       7.080   5.832  16.609  0.00  0.00    +0.000 C 
ATOM     10  O   UNL     1       7.891   6.455  17.285  0.00  0.00    +0.000 OA
ATOM     11  C   UNL     1       5.628   5.649  17.039  0.00  0.00    +0.000 C 
ATOM     12  S   UNL     1       5.110   4.175  16.082  0.00  0.00    +0.000 S 
ATOM     13  H   UNL     1       7.354   3.696  13.366  0.00  0.00    +0.000 HD
ATOM     14  H   UNL     1       5.878   2.916  13.785  0.00  0.00    +0.000 HD
ENDBRANCH   5  11
ENDBRANCH   1   5
BRANCH   3  15
ATOM     15  C   UNL     1       2.637   6.283  19.714  0.00  0.00    +0.000 C 
BRANCH  15  16
ATOM     16  C   UNL     1       2.108   4.926  20.092  0.00  0.00    +0.000 A 
ATOM     17  C   UNL     1       2.370   4.408  21.368  0.00  0.00    +0.000 A 
ATOM     18  C   UNL     1       1.913   3.138  21.723  0.00  0.00    +0.000 A 
ATOM     19  C   UNL     1       1.195   2.375  20.804  0.00  0.00    +0.000 A 
ATOM     20  C   UNL     1       0.931   2.882  19.532  0.00  0.00    +0.000 A 
ATOM     21  C   UNL     1       1.390   4.149  19.174  0.00  0.00    +0.000 A 
ENDBRANCH  15  16
ENDBRANCH   3  15
TORSDOF 4
ENDMDL
MODEL 2
REMARK VINA RESULT:      -7.1      2.543      3.217
REMARK  Name = 
REMARK  4 active torsions:
REMARK  status: ('A' for Active; 'I' for Inactive)
REMARK    1  A    between atoms: C_6  and  C_7
REMARK    2  A    between atoms: C_7  and  C_8
REMARK    3  A    between atoms: N_10  and  C_11
REMARK    4  A    between atoms: C_11  and  C_12
REMARK                            x       y       z     vdW  Elec       q    Type
REMARK                         _______ _______ _______ _____ _____    ______ ____
ROOT
ATOM      1  C   UNL     1       4.356   3.854  17.068  0.00  0.00    +0.000 C 
ATOM      2  O   UNL     1       3.251   4.285  16.757  0.00  0.00    +0.000 OA
ATOM      3  N   UNL     1       4.559   2.639  17.670  0.00  0.00    +0.000 N 
ATOM      4  H   UNL     1       5.488   2.241  17.719  0.00  0.00    +0.000 HD
ENDROOT
BRANCH   1   5
ATOM      5  C   UNL     1       5.609   4.660  16.839  0.00  0.00    +0.000 C 
BRANCH   5  11
ATOM      6  N   UNL     1       8.372   5.245  20.331  0.00  0.00    +0.000 N 
ATOM      7  C   UNL     1       7.559   5.724  19.362  0.00  0.00    +0.000 C 
ATOM      8  N   UNL     1       7.935   6.443  18.371  0.00  0.00    +0.000 NA
ATOM      9  C   UNL     1       6.890   6.730  17.513  0.00  0.00    +0.000 C 
ATOM     10  O   UNL     1       6.942   7.588  16.640  0.00  0.00    +0.000 OA
ATOM     11  C   UNL     1       5.649   5.874  17.746  0.00  0.00    +0.000 C 
ATOM     12  S   UNL     1       5.872   5.307  19.473  0.00  0.00    +0.000 S 
ATOM     13  H   UNL     1       9.288   5.670  20.392  0.00  0.00    +0.000 HD
ATOM     14  H   UNL     1       7.953   4.942  21.201  0.00  0.00    +0.000 HD
ENDBRANCH   5  11
ENDBRANCH   1   5
BRANCH   3  15
ATOM     15  C   UNL     1       3.437   1.773  17.948  0.00  0.00    +0.000 C 
BRANCH  15  16
ATOM     16  C   UNL     1       2.673   2.262  19.149  0.00  0.00    +0.000 A 
ATOM     17  C   UNL     1       3.324   2.386  20.385  0.00  0.00    +0.000 A 
ATOM     18  C   UNL     1       2.623   2.807  21.514  0.00  0.00    +0.000 A 
ATOM     19  C   UNL     1       1.264   3.103  21.419  0.00  0.00    +0.000 A 
ATOM     20  C   UNL     1       0.608   2.982  20.195  0.00  0.00    +0.000 A 
ATOM     21  C   UNL     1       1.306   2.557  19.065  0.00  0.00    +0.000 A 
ENDBRANCH  15  16
ENDBRANCH   3  15
TORSDOF 4
ENDMDL
MODEL 3
REMARK VINA RESULT:      -7.0      1.463      1.490
REMARK  Name = 
REMARK  4 active torsions:
REMARK  status: ('A' for Active; 'I' for Inactive)
REMARK    1  A    between atoms: C_6  and  C_7
REMARK    2  A    between atoms: C_7  and  C_8
REMARK    3  A    between atoms: N_10  and  C_11
REMARK    4  A    between atoms: C_11  and  C_12
REMARK                            x       y       z     vdW  Elec       q    Type
REMARK                         _______ _______ _______ _____ _____    ______ ____
ROOT
ATOM      1  C   UNL     1       4.688   5.870  18.701  0.00  0.00    +0.000 C 
ATOM      2  O   UNL     1       5.089   5.370  19.746  0.00  0.00    +0.000 OA
ATOM      3  N   UNL     1       3.404   6.313  18.511  0.00  0.00    +0.000 N 
ATOM      4  H   UNL     1       3.176   6.897  17.717  0.00  0.00    +0.000 HD
ENDROOT
BRANCH   1   5
ATOM      5  C   UNL     1       5.585   6.009  17.499  0.00  0.00    +0.000 C 
BRANCH   5  11
ATOM      6  N   UNL     1       7.154   5.198  13.369  0.00  0.00    +0.000 N 
ATOM      7  C   UNL     1       7.004   4.868  14.673  0.00  0.00    +0.000 C 
ATOM      8  N   UNL     1       7.952   4.797  15.531  0.00  0.00    +0.000 NA
ATOM      9  C   UNL     1       7.483   4.497  16.796  0.00  0.00    +0.000 C 
ATOM     10  O   UNL     1       8.202   4.140  17.721  0.00  0.00    +0.000 OA
ATOM     11  C   UNL     1       5.973   4.651  16.947  0.00  0.00    +0.000 C 
ATOM     12  S   UNL     1       5.383   4.534  15.217  0.00  0.00    +0.000 S 
ATOM     13  H   UNL     1       8.099   5.164  13.010  0.00  0.00    +0.000 HD
ATOM     14  H   UNL     1       6.415   4.950  12.725  0.00  0.00    +0.000 HD
ENDBRANCH   5  11
ENDBRANCH   1   5
BRANCH   3  15
ATOM     15  C   UNL     1       2.444   6.230  19.587  0.00  0.00    +0.000 C 
BRANCH  15  16
ATOM     16  C   UNL     1       1.890   4.836  19.699  0.00  0.00    +0.000 A 
ATOM     17  C   UNL     1       1.782   4.228  20.958  0.00  0.00    +0.000 A 
ATOM     18  C   UNL     1       1.300   2.924  21.075  0.00  0.00    +0.000 A 
ATOM     19  C   UNL     1       0.927   2.216  19.935  0.00  0.00    +0.000 A 
ATOM     20  C   UNL     1       1.032   2.810  18.678  0.00  0.00    +0.000 A 
ATOM     21  C   UNL     1       1.517   4.113  18.558  0.00  0.00    +0.000 A 
ENDBRANCH  15  16
ENDBRANCH   3  15
TORSDOF 4
ENDMDL
MODEL 4
REMARK VINA RESULT:      -6.9      2.697      6.940
REMARK  Name = 
REMARK  4 active torsions:
REMARK  status: ('A' for Active; 'I' for Inactive)
REMARK    1  A    between atoms: C_6  and  C_7
REMARK    2  A    between atoms: C_7  and  C_8
REMARK    3  A    between atoms: N_10  and  C_11
REMARK    4  A    between atoms: C_11  and  C_12
REMARK                            x       y       z     vdW  Elec       q    Type
REMARK                         _______ _______ _______ _____ _____    ______ ____
ROOT
ATOM      1  C   UNL     1       5.515   4.906  18.021  0.00  0.00    +0.000 C 
ATOM      2  O   UNL     1       6.475   4.481  18.654  0.00  0.00    +0.000 OA
ATOM      3  N   UNL     1       5.600   5.397  16.743  0.00  0.00    +0.000 N 
ATOM      4  H   UNL     1       4.764   5.543  16.194  0.00  0.00    +0.000 HD
ENDROOT
BRANCH   1   5
ATOM      5  C   UNL     1       4.135   4.958  18.623  0.00  0.00    +0.000 C 
BRANCH   5  11
ATOM      6  N   UNL     1       1.843   2.873  21.875  0.00  0.00    +0.000 N 
ATOM      7  C   UNL     1       2.127   3.093  20.570  0.00  0.00    +0.000 C 
ATOM      8  N   UNL     1       1.322   3.601  19.713  0.00  0.00    +0.000 NA
ATOM      9  C   UNL     1       1.916   3.759  18.476  0.00  0.00    +0.000 C 
ATOM     10  O   UNL     1       1.293   3.993  17.447  0.00  0.00    +0.000 OA
ATOM     11  C   UNL     1       3.435   3.618  18.497  0.00  0.00    +0.000 C 
ATOM     12  S   UNL     1       3.727   2.661  20.031  0.00  0.00    +0.000 S 
ATOM     13  H   UNL     1       0.863   2.906  22.126  0.00  0.00    +0.000 HD
ATOM     14  H   UNL     1       2.421   2.220  22.387  0.00  0.00    +0.000 HD
ENDBRANCH   5  11
ENDBRANCH   1   5
BRANCH   3  15
ATOM     15  C   UNL     1       6.871   5.407  16.056  0.00  0.00    +0.000 C 
BRANCH  15  16
ATOM     16  C   UNL     1       6.725   4.868  14.660  0.00  0.00    +0.000 A 
ATOM     17  C   UNL     1       5.681   3.982  14.361  0.00  0.00    +0.000 A 
ATOM     18  C   UNL     1       5.550   3.449  13.078  0.00  0.00    +0.000 A 
ATOM     19  C   UNL     1       6.465   3.794  12.085  0.00  0.00    +0.000 A 
ATOM     20  C   UNL     1       7.508   4.673  12.373  0.00  0.00    +0.000 A 
ATOM     21  C   UNL     1       7.643   5.205  13.655  0.00  0.00    +0.000 A 
ENDBRANCH  15  16
ENDBRANCH   3  15
TORSDOF 4
ENDMDL
MODEL 5
REMARK VINA RESULT:      -6.9      1.908      2.360
REMARK  Name = 
REMARK  4 active torsions:
REMARK  status: ('A' for Active; 'I' for Inactive)
REMARK    1  A    between atoms: C_6  and  C_7
REMARK    2  A    between atoms: C_7  and  C_8
REMARK    3  A    between atoms: N_10  and  C_11
REMARK    4  A    between atoms: C_11  and  C_12
REMARK                            x       y       z     vdW  Elec       q    Type
REMARK                         _______ _______ _______ _____ _____    ______ ____
ROOT
ATOM      1  C   UNL     1       4.631   4.865  17.185  0.00  0.00    +0.000 C 
ATOM      2  O   UNL     1       4.243   5.866  17.775  0.00  0.00    +0.000 OA
ATOM      3  N   UNL     1       4.908   3.673  17.804  0.00  0.00    +0.000 N 
ATOM      4  H   UNL     1       5.026   2.828  17.261  0.00  0.00    +0.000 HD
ENDROOT
BRANCH   1   5
ATOM      5  C   UNL     1       4.876   4.871  15.698  0.00  0.00    +0.000 C 
BRANCH   5  11
ATOM      6  N   UNL     1       7.822   5.655  12.400  0.00  0.00    +0.000 N 
ATOM      7  C   UNL     1       7.470   5.074  13.570  0.00  0.00    +0.000 C 
ATOM      8  N   UNL     1       7.999   5.327  14.710  0.00  0.00    +0.000 NA
ATOM      9  C   UNL     1       7.389   4.623  15.731  0.00  0.00    +0.000 C 
ATOM     10  O   UNL     1       7.862   4.509  16.855  0.00  0.00    +0.000 OA
ATOM     11  C   UNL     1       6.058   3.993  15.336  0.00  0.00    +0.000 C 
ATOM     12  S   UNL     1       6.181   3.904  13.511  0.00  0.00    +0.000 S 
ATOM     13  H   UNL     1       8.705   6.149  12.399  0.00  0.00    +0.000 HD
ATOM     14  H   UNL     1       7.559   5.194  11.539  0.00  0.00    +0.000 HD
ENDBRANCH   5  11
ENDBRANCH   1   5
BRANCH   3  15
ATOM     15  C   UNL     1       4.720   3.539  19.231  0.00  0.00    +0.000 C 
BRANCH  15  16
ATOM     16  C   UNL     1       3.263   3.357  19.559  0.00  0.00    +0.000 A 
ATOM     17  C   UNL     1       2.491   2.447  18.823  0.00  0.00    +0.000 A 
ATOM     18  C   UNL     1       1.132   2.289  19.095  0.00  0.00    +0.000 A 
ATOM     19  C   UNL     1       0.533   3.043  20.102  0.00  0.00    +0.000 A 
ATOM     20  C   UNL     1       1.291   3.951  20.839  0.00  0.00    +0.000 A 
ATOM     21  C   UNL     1       2.649   4.113  20.566  0.00  0.00    +0.000 A 
ENDBRANCH  15  16
ENDBRANCH   3  15
TORSDOF 4
ENDMDL
MODEL 6
REMARK VINA RESULT:      -6.9      1.069      1.559
REMARK  Name = 
REMARK  4 active torsions:
REMARK  status: ('A' for Active; 'I' for Inactive)
REMARK    1  A    between atoms: C_6  and  C_7
REMARK    2  A    between atoms: C_7  and  C_8
REMARK    3  A    between atoms: N_10  and  C_11
REMARK    4  A    between atoms: C_11  and  C_12
REMARK                            x       y       z     vdW  Elec       q    Type
REMARK                         _______ _______ _______ _____ _____    ______ ____
ROOT
ATOM      1  C   UNL     1       4.241   5.978  18.153  0.00  0.00    +0.000 C 
ATOM      2  O   UNL     1       4.919   5.684  19.131  0.00  0.00    +0.000 OA
ATOM      3  N   UNL     1       2.915   6.325  18.218  0.00  0.00    +0.000 N 
ATOM      4  H   UNL     1       2.458   6.752  17.424  0.00  0.00    +0.000 HD
ENDROOT
BRANCH   1   5
ATOM      5  C   UNL     1       4.813   5.947  16.759  0.00  0.00    +0.000 C 
BRANCH   5  11
ATOM      6  N   UNL     1       6.332   3.608  13.238  0.00  0.00    +0.000 N 
ATOM      7  C   UNL     1       6.524   4.261  14.408  0.00  0.00    +0.000 C 
ATOM      8  N   UNL     1       7.198   5.341  14.549  0.00  0.00    +0.000 NA
ATOM      9  C   UNL     1       7.166   5.805  15.850  0.00  0.00    +0.000 C 
ATOM     10  O   UNL     1       7.919   6.668  16.284  0.00  0.00    +0.000 OA
ATOM     11  C   UNL     1       6.098   5.142  16.715  0.00  0.00    +0.000 C 
ATOM     12  S   UNL     1       5.775   3.576  15.823  0.00  0.00    +0.000 S 
ATOM     13  H   UNL     1       6.945   3.871  12.478  0.00  0.00    +0.000 HD
ATOM     14  H   UNL     1       6.041   2.640  13.273  0.00  0.00    +0.000 HD
ENDBRANCH   5  11
ENDBRANCH   1   5
BRANCH   3  15
ATOM     15  C   UNL     1       2.247   6.386  19.498  0.00  0.00    +0.000 C 
BRANCH  15  16
ATOM     16  C   UNL     1       1.945   5.003  20.007  0.00  0.00    +0.000 A 
ATOM     17  C   UNL     1       1.227   4.106  19.202  0.00  0.00    +0.000 A 
ATOM     18  C   UNL     1       0.912   2.831  19.672  0.00  0.00    +0.000 A 
ATOM     19  C   UNL     1       1.307   2.443  20.951  0.00  0.00    +0.000 A 
ATOM     20  C   UNL     1       2.020   3.328  21.759  0.00  0.00    +0.000 A 
ATOM     21  C   UNL     1       2.334   4.605  21.293  0.00  0.00    +0.000 A 
ENDBRANCH  15  16
ENDBRANCH   3  15
TORSDOF 4
ENDMDL
MODEL 7
REMARK VINA RESULT:      -6.9      2.497      3.239
REMARK  Name = 
REMARK  4 active torsions:
REMARK  status: ('A' for Active; 'I' for Inactive)
REMARK    1  A    between atoms: C_6  and  C_7
REMARK    2  A    between atoms: C_7  and  C_8
REMARK    3  A    between atoms: N_10  and  C_11
REMARK    4  A    between atoms: C_11  and  C_12
REMARK                            x       y       z     vdW  Elec       q    Type
REMARK                         _______ _______ _______ _____ _____    ______ ____
ROOT
ATOM      1  C   UNL     1       5.357   4.322  16.454  0.00  0.00    +0.000 C 
ATOM      2  O   UNL     1       5.679   3.234  15.993  0.00  0.00    +0.000 OA
ATOM      3  N   UNL     1       4.149   4.571  17.053  0.00  0.00    +0.000 N 
ATOM      4  H   UNL     1       4.009   5.413  17.595  0.00  0.00    +0.000 HD
ENDROOT
BRANCH   1   5
ATOM      5  C   UNL     1       6.273   5.517  16.369  0.00  0.00    +0.000 C 
BRANCH   5  11
ATOM      6  N   UNL     1       8.541   5.232  20.235  0.00  0.00    +0.000 N 
ATOM      7  C   UNL     1       7.809   5.923  19.331  0.00  0.00    +0.000 C 
ATOM      8  N   UNL     1       8.235   6.912  18.637  0.00  0.00    +0.000 NA
ATOM      9  C   UNL     1       7.277   7.375  17.754  0.00  0.00    +0.000 C 
ATOM     10  O   UNL     1       7.355   8.446  17.166  0.00  0.00    +0.000 OA
ATOM     11  C   UNL     1       6.097   6.425  17.570  0.00  0.00    +0.000 C 
ATOM     12  S   UNL     1       6.164   5.404  19.089  0.00  0.00    +0.000 S 
ATOM     13  H   UNL     1       9.401   5.670  20.536  0.00  0.00    +0.000 HD
ATOM     14  H   UNL     1       8.051   4.674  20.922  0.00  0.00    +0.000 HD
ENDBRANCH   5  11
ENDBRANCH   1   5
BRANCH   3  15
ATOM     15  C   UNL     1       3.180   3.508  17.192  0.00  0.00    +0.000 C 
BRANCH  15  16
ATOM     16  C   UNL     1       2.641   3.460  18.596  0.00  0.00    +0.000 A 
ATOM     17  C   UNL     1       3.363   2.795  19.597  0.00  0.00    +0.000 A 
ATOM     18  C   UNL     1       2.861   2.715  20.896  0.00  0.00    +0.000 A 
ATOM     19  C   UNL     1       1.632   3.295  21.204  0.00  0.00    +0.000 A 
ATOM     20  C   UNL     1       0.906   3.958  20.216  0.00  0.00    +0.000 A 
ATOM     21  C   UNL     1       1.404   4.036  18.915  0.00  0.00    +0.000 A 
ENDBRANCH  15  16
ENDBRANCH   3  15
TORSDOF 4
ENDMDL
MODEL 8
REMARK VINA RESULT:      -6.9      2.526      3.380
REMARK  Name = 
REMARK  4 active torsions:
REMARK  status: ('A' for Active; 'I' for Inactive)
REMARK    1  A    between atoms: C_6  and  C_7
REMARK    2  A    between atoms: C_7  and  C_8
REMARK    3  A    between atoms: N_10  and  C_11
REMARK    4  A    between atoms: C_11  and  C_12
REMARK                            x       y       z     vdW  Elec       q    Type
REMARK                         _______ _______ _______ _____ _____    ______ ____
ROOT
ATOM      1  C   UNL     1       5.402   4.258  16.385  0.00  0.00    +0.000 C 
ATOM      2  O   UNL     1       5.626   3.204  15.800  0.00  0.00    +0.000 OA
ATOM      3  N   UNL     1       4.237   4.525  17.058  0.00  0.00    +0.000 N 
ATOM      4  H   UNL     1       4.180   5.313  17.689  0.00  0.00    +0.000 HD
ENDROOT
BRANCH   1   5
ATOM      5  C   UNL     1       6.399   5.388  16.382  0.00  0.00    +0.000 C 
BRANCH   5  11
ATOM      6  N   UNL     1       8.545   5.248  20.325  0.00  0.00    +0.000 N 
ATOM      7  C   UNL     1       7.829   5.901  19.380  0.00  0.00    +0.000 C 
ATOM      8  N   UNL     1       8.258   6.881  18.674  0.00  0.00    +0.000 NA
ATOM      9  C   UNL     1       7.320   7.301  17.750  0.00  0.00    +0.000 C 
ATOM     10  O   UNL     1       7.396   8.358  17.137  0.00  0.00    +0.000 OA
ATOM     11  C   UNL     1       6.166   6.322  17.553  0.00  0.00    +0.000 C 
ATOM     12  S   UNL     1       6.204   5.342  19.100  0.00  0.00    +0.000 S 
ATOM     13  H   UNL     1       9.386   5.711  20.642  0.00  0.00    +0.000 HD
ATOM     14  H   UNL     1       8.044   4.698  21.010  0.00  0.00    +0.000 HD
ENDBRANCH   5  11
ENDBRANCH   1   5
BRANCH   3  15
ATOM     15  C   UNL     1       3.198   3.523  17.130  0.00  0.00    +0.000 C 
BRANCH  15  16
ATOM     16  C   UNL     1       2.653   3.422  18.528  0.00  0.00    +0.000 A 
ATOM     17  C   UNL     1       1.423   4.020  18.841  0.00  0.00    +0.000 A 
ATOM     18  C   UNL     1       0.918   3.962  20.140  0.00  0.00    +0.000 A 
ATOM     19  C   UNL     1       1.641   3.310  21.138  0.00  0.00    +0.000 A 
ATOM     20  C   UNL     1       2.865   2.714  20.837  0.00  0.00    +0.000 A 
ATOM     21  C   UNL     1       3.373   2.774  19.540  0.00  0.00    +0.000 A 
ENDBRANCH  15  16
ENDBRANCH   3  15
TORSDOF 4
ENDMDL
MODEL 9
REMARK VINA RESULT:      -6.9      2.841      6.748
REMARK  Name = 
REMARK  4 active torsions:
REMARK  status: ('A' for Active; 'I' for Inactive)
REMARK    1  A    between atoms: C_6  and  C_7
REMARK    2  A    between atoms: C_7  and  C_8
REMARK    3  A    between atoms: N_10  and  C_11
REMARK    4  A    between atoms: C_11  and  C_12
REMARK                            x       y       z     vdW  Elec       q    Type
REMARK                         _______ _______ _______ _____ _____    ______ ____
ROOT
ATOM      1  C   UNL     1       4.686   5.514  16.966  0.00  0.00    +0.000 C 
ATOM      2  O   UNL     1       4.728   6.682  16.597  0.00  0.00    +0.000 OA
ATOM      3  N   UNL     1       5.707   4.617  16.780  0.00  0.00    +0.000 N 
ATOM      4  H   UNL     1       5.711   3.736  17.276  0.00  0.00    +0.000 HD
ENDROOT
BRANCH   1   5
ATOM      5  C   UNL     1       3.465   4.944  17.641  0.00  0.00    +0.000 C 
BRANCH   5  11
ATOM      6  N   UNL     1       0.618   3.084  20.574  0.00  0.00    +0.000 N 
ATOM      7  C   UNL     1       1.850   3.516  20.220  0.00  0.00    +0.000 C 
ATOM      8  N   UNL     1       2.878   2.768  20.062  0.00  0.00    +0.000 NA
ATOM      9  C   UNL     1       3.980   3.487  19.639  0.00  0.00    +0.000 C 
ATOM     10  O   UNL     1       5.124   3.049  19.652  0.00  0.00    +0.000 OA
ATOM     11  C   UNL     1       3.648   4.892  19.146  0.00  0.00    +0.000 C 
ATOM     12  S   UNL     1       2.034   5.226  19.942  0.00  0.00    +0.000 S 
ATOM     13  H   UNL     1       0.569   2.147  20.952  0.00  0.00    +0.000 HD
ATOM     14  H   UNL     1      -0.037   3.758  20.947  0.00  0.00    +0.000 HD
ENDBRANCH   5  11
ENDBRANCH   1   5
BRANCH   3  15
ATOM     15  C   UNL     1       6.931   5.039  16.139  0.00  0.00    +0.000 C 
BRANCH  15  16
ATOM     16  C   UNL     1       6.891   4.739  14.666  0.00  0.00    +0.000 A 
ATOM     17  C   UNL     1       6.009   3.765  14.177  0.00  0.00    +0.000 A 
ATOM     18  C   UNL     1       5.982   3.453  12.818  0.00  0.00    +0.000 A 
ATOM     19  C   UNL     1       6.840   4.109  11.936  0.00  0.00    +0.000 A 
ATOM     20  C   UNL     1       7.721   5.078  12.412  0.00  0.00    +0.000 A 
ATOM     21  C   UNL     1       7.753   5.389  13.772  0.00  0.00    +0.000 A 
ENDBRANCH  15  16
ENDBRANCH   3  15
TORSDOF 4
ENDMDL
