MODEL 1
REMARK VINA RESULT:      -7.6      0.000      0.000
REMARK  Name = 
REMARK  5 active torsions:
REMARK  status: ('A' for Active; 'I' for Inactive)
REMARK    1  A    between atoms: C_1  and  C_2
REMARK    2  A    between atoms: N_6  and  C_7
REMARK    3  A    between atoms: C_7  and  C_8
REMARK    4  A    between atoms: C_8  and  N_9
REMARK    5  A    between atoms: C_11  and  C_12
REMARK                            x       y       z     vdW  Elec       q    Type
REMARK                         _______ _______ _______ _____ _____    ______ ____
ROOT
ATOM      1  C   UNL     1       2.523   6.030  17.819  0.00  0.00    +0.000 C 
ENDROOT
BRANCH   1   7
ATOM      2  C   UNL     1       1.342   2.371  22.042  0.00  0.00    +0.000 C 
ATOM      3  C   UNL     1       1.622   3.259  20.867  0.00  0.00    +0.000 A 
ATOM      4  C   UNL     1       1.736   2.807  19.618  0.00  0.00    +0.000 A 
ATOM      5  C   UNL     1       2.016   3.751  18.517  0.00  0.00    +0.000 A 
ATOM      6  O   UNL     1       2.062   3.324  17.366  0.00  0.00    +0.000 OA
ATOM      7  N   UNL     1       2.203   5.075  18.874  0.00  0.00    +0.000 N 
ATOM      8  C   UNL     1       2.038   5.544  20.165  0.00  0.00    +0.000 A 
ATOM      9  O   UNL     1       2.119   6.727  20.491  0.00  0.00    +0.000 OA
ATOM     10  N   UNL     1       1.762   4.596  21.115  0.00  0.00    +0.000 N 
ATOM     11  H   UNL     1       1.665   4.958  22.058  0.00  0.00    +0.000 HD
ENDBRANCH   1   7
BRANCH   1  12
ATOM     12  C   UNL     1       3.996   6.482  17.861  0.00  0.00    +0.000 C 
BRANCH  12  13
ATOM     13  N   UNL     1       4.757   5.979  16.710  0.00  0.00    +0.000 NA
ATOM     14  C   UNL     1       6.114   6.589  16.626  0.00  0.00    +0.000 C 
ATOM     15  C   UNL     1       6.656   5.187  16.237  0.00  0.00    +0.000 C 
ATOM     16  C   UNL     1       5.419   4.682  17.031  0.00  0.00    +0.000 C 
BRANCH  15  17
ATOM     17  C   UNL     1       6.765   4.794  14.710  0.00  0.00    +0.000 A 
ATOM     18  C   UNL     1       5.978   3.838  14.061  0.00  0.00    +0.000 A 
ATOM     19  C   UNL     1       6.181   3.570  12.710  0.00  0.00    +0.000 A 
ATOM     20  C   UNL     1       7.170   4.256  12.025  0.00  0.00    +0.000 A 
ATOM     21  C   UNL     1       7.915   5.188  12.725  0.00  0.00    +0.000 A 
ATOM     22  N   UNL     1       7.735   5.468  14.037  0.00  0.00    +0.000 NA
ENDBRANCH  15  17
ENDBRANCH  12  13
ENDBRANCH   1  12
TORSDOF 4
ENDMDL
MODEL 2
REMARK VINA RESULT:      -7.4      3.137      6.991
REMARK  Name = 
REMARK  5 active torsions:
REMARK  status: ('A' for Active; 'I' for Inactive)
REMARK    1  A    between atoms: C_1  and  C_2
REMARK    2  A    between atoms: N_6  and  C_7
REMARK    3  A    between atoms: C_7  and  C_8
REMARK    4  A    between atoms: C_8  and  N_9
REMARK    5  A    between atoms: C_11  and  C_12
REMARK                            x       y       z     vdW  Elec       q    Type
REMARK                         _______ _______ _______ _____ _____    ______ ____
ROOT
ATOM      1  C   UNL     1       5.786   4.329  16.716  0.00  0.00    +0.000 C 
ENDROOT
BRANCH   1   7
ATOM      2  C   UNL     1       8.392   9.229  18.063  0.00  0.00    +0.000 C 
ATOM      3  C   UNL     1       7.743   7.905  17.798  0.00  0.00    +0.000 A 
ATOM      4  C   UNL     1       8.055   6.790  18.460  0.00  0.00    +0.000 A 
ATOM      5  C   UNL     1       7.366   5.525  18.135  0.00  0.00    +0.000 A 
ATOM      6  O   UNL     1       7.627   4.521  18.794  0.00  0.00    +0.000 OA
ATOM      7  N   UNL     1       6.455   5.569  17.095  0.00  0.00    +0.000 N 
ATOM      8  C   UNL     1       6.102   6.737  16.443  0.00  0.00    +0.000 A 
ATOM      9  O   UNL     1       5.238   6.815  15.572  0.00  0.00    +0.000 OA
ATOM     10  N   UNL     1       6.783   7.864  16.826  0.00  0.00    +0.000 N 
ATOM     11  H   UNL     1       6.523   8.706  16.322  0.00  0.00    +0.000 HD
ENDBRANCH   1   7
BRANCH   1  12
ATOM     12  C   UNL     1       4.613   3.984  17.654  0.00  0.00    +0.000 C 
BRANCH  12  13
ATOM     13  N   UNL     1       3.823   5.173  18.005  0.00  0.00    +0.000 NA
ATOM     14  C   UNL     1       2.402   4.834  18.297  0.00  0.00    +0.000 C 
ATOM     15  C   UNL     1       2.464   5.847  19.472  0.00  0.00    +0.000 C 
ATOM     16  C   UNL     1       3.982   5.515  19.448  0.00  0.00    +0.000 C 
BRANCH  15  17
ATOM     17  C   UNL     1       2.032   7.347  19.228  0.00  0.00    +0.000 A 
ATOM     18  C   UNL     1       2.180   8.049  18.028  0.00  0.00    +0.000 A 
ATOM     19  C   UNL     1       1.772   9.377  17.942  0.00  0.00    +0.000 A 
ATOM     20  C   UNL     1       1.224   9.989  19.058  0.00  0.00    +0.000 A 
ATOM     21  C   UNL     1       1.106   9.241  20.214  0.00  0.00    +0.000 A 
ATOM     22  N   UNL     1       1.493   7.949  20.322  0.00  0.00    +0.000 NA
ENDBRANCH  15  17
ENDBRANCH  12  13
ENDBRANCH   1  12
TORSDOF 4
ENDMDL
MODEL 3
REMARK VINA RESULT:      -7.2      1.341      1.931
REMARK  Name = 
REMARK  5 active torsions:
REMARK  status: ('A' for Active; 'I' for Inactive)
REMARK    1  A    between atoms: C_1  and  C_2
REMARK    2  A    between atoms: N_6  and  C_7
REMARK    3  A    between atoms: C_7  and  C_8
REMARK    4  A    between atoms: C_8  and  N_9
REMARK    5  A    between atoms: C_11  and  C_12
REMARK                            x       y       z     vdW  Elec       q    Type
REMARK                         _______ _______ _______ _____ _____    ______ ____
ROOT
ATOM      1  C   UNL     1       4.677   5.712  18.911  0.00  0.00    +0.000 C 
ENDROOT
BRANCH   1   7
ATOM      2  C   UNL     1       1.166   2.338  21.895  0.00  0.00    +0.000 C 
ATOM      3  C   UNL     1       2.034   3.304  21.148  0.00  0.00    +0.000 A 
ATOM      4  C   UNL     1       1.699   4.576  20.932  0.00  0.00    +0.000 A 
ATOM      5  C   UNL     1       2.614   5.461  20.183  0.00  0.00    +0.000 A 
ATOM      6  O   UNL     1       2.313   6.644  20.043  0.00  0.00    +0.000 OA
ATOM      7  N   UNL     1       3.769   4.879  19.691  0.00  0.00    +0.000 N 
ATOM      8  C   UNL     1       4.133   3.571  19.958  0.00  0.00    +0.000 A 
ATOM      9  O   UNL     1       5.191   3.056  19.601  0.00  0.00    +0.000 OA
ATOM     10  N   UNL     1       3.228   2.833  20.675  0.00  0.00    +0.000 N 
ATOM     11  H   UNL     1       3.505   1.871  20.843  0.00  0.00    +0.000 HD
ENDBRANCH   1   7
BRANCH   1  12
ATOM     12  C   UNL     1       4.047   6.189  17.588  0.00  0.00    +0.000 C 
BRANCH  12  13
ATOM     13  N   UNL     1       4.831   5.760  16.421  0.00  0.00    +0.000 NA
ATOM     14  C   UNL     1       6.267   6.136  16.543  0.00  0.00    +0.000 C 
ATOM     15  C   UNL     1       6.620   4.746  15.948  0.00  0.00    +0.000 C 
ATOM     16  C   UNL     1       5.248   4.334  16.552  0.00  0.00    +0.000 C 
BRANCH  15  17
ATOM     17  C   UNL     1       6.816   4.596  14.388  0.00  0.00    +0.000 A 
ATOM     18  C   UNL     1       6.142   3.684  13.569  0.00  0.00    +0.000 A 
ATOM     19  C   UNL     1       6.414   3.638  12.205  0.00  0.00    +0.000 A 
ATOM     20  C   UNL     1       7.359   4.502  11.675  0.00  0.00    +0.000 A 
ATOM     21  C   UNL     1       7.990   5.378  12.537  0.00  0.00    +0.000 A 
ATOM     22  N   UNL     1       7.742   5.444  13.865  0.00  0.00    +0.000 NA
ENDBRANCH  15  17
ENDBRANCH  12  13
ENDBRANCH   1  12
TORSDOF 4
ENDMDL
MODEL 4
REMARK VINA RESULT:      -7.1      2.106      3.189
REMARK  Name = 
REMARK  5 active torsions:
REMARK  status: ('A' for Active; 'I' for Inactive)
REMARK    1  A    between atoms: C_1  and  C_2
REMARK    2  A    between atoms: N_6  and  C_7
REMARK    3  A    between atoms: C_7  and  C_8
REMARK    4  A    between atoms: C_8  and  N_9
REMARK    5  A    between atoms: C_11  and  C_12
REMARK                            x       y       z     vdW  Elec       q    Type
REMARK                         _______ _______ _______ _____ _____    ______ ____
ROOT
ATOM      1  C   UNL     1       2.848   5.894  18.374  0.00  0.00    +0.000 C 
ENDROOT
BRANCH   1   7
ATOM      2  C   UNL     1       0.545  10.316  21.160  0.00  0.00    +0.000 C 
ATOM      3  C   UNL     1       1.107   9.094  20.500  0.00  0.00    +0.000 A 
ATOM      4  C   UNL     1       1.183   7.905  21.099  0.00  0.00    +0.000 A 
ATOM      5  C   UNL     1       1.754   6.751  20.376  0.00  0.00    +0.000 A 
ATOM      6  O   UNL     1       1.763   5.652  20.925  0.00  0.00    +0.000 OA
ATOM      7  N   UNL     1       2.239   7.000  19.104  0.00  0.00    +0.000 N 
ATOM      8  C   UNL     1       2.115   8.224  18.470  0.00  0.00    +0.000 A 
ATOM      9  O   UNL     1       2.465   8.447  17.313  0.00  0.00    +0.000 OA
ATOM     10  N   UNL     1       1.557   9.230  19.215  0.00  0.00    +0.000 N 
ATOM     11  H   UNL     1       1.494  10.123  18.739  0.00  0.00    +0.000 HD
ENDBRANCH   1   7
BRANCH   1  12
ATOM     12  C   UNL     1       4.384   5.888  18.490  0.00  0.00    +0.000 C 
BRANCH  12  13
ATOM     13  N   UNL     1       5.029   5.551  17.214  0.00  0.00    +0.000 NA
ATOM     14  C   UNL     1       5.969   6.616  16.763  0.00  0.00    +0.000 C 
ATOM     15  C   UNL     1       6.943   5.489  16.325  0.00  0.00    +0.000 C 
ATOM     16  C   UNL     1       6.215   4.671  17.428  0.00  0.00    +0.000 C 
BRANCH  15  17
ATOM     17  C   UNL     1       6.886   4.946  14.843  0.00  0.00    +0.000 A 
ATOM     18  C   UNL     1       5.998   3.975  14.368  0.00  0.00    +0.000 A 
ATOM     19  C   UNL     1       6.056   3.567  13.038  0.00  0.00    +0.000 A 
ATOM     20  C   UNL     1       7.003   4.132  12.199  0.00  0.00    +0.000 A 
ATOM     21  C   UNL     1       7.852   5.086  12.730  0.00  0.00    +0.000 A 
ATOM     22  N   UNL     1       7.813   5.500  14.018  0.00  0.00    +0.000 NA
ENDBRANCH  15  17
ENDBRANCH  12  13
ENDBRANCH   1  12
TORSDOF 4
ENDMDL
MODEL 5
REMARK VINA RESULT:      -7.1      0.649      1.787
REMARK  Name = 
REMARK  5 active torsions:
REMARK  status: ('A' for Active; 'I' for Inactive)
REMARK    1  A    between atoms: C_1  and  C_2
REMARK    2  A    between atoms: N_6  and  C_7
REMARK    3  A    between atoms: C_7  and  C_8
REMARK    4  A    between atoms: C_8  and  N_9
REMARK    5  A    between atoms: C_11  and  C_12
REMARK                            x       y       z     vdW  Elec       q    Type
REMARK                         _______ _______ _______ _____ _____    ______ ____
ROOT
ATOM      1  C   UNL     1       2.542   6.013  17.589  0.00  0.00    +0.000 C 
ENDROOT
BRANCH   1   7
ATOM      2  C   UNL     1       1.321   2.470  21.898  0.00  0.00    +0.000 C 
ATOM      3  C   UNL     1       1.678   3.466  20.837  0.00  0.00    +0.000 A 
ATOM      4  C   UNL     1       1.943   4.747  21.094  0.00  0.00    +0.000 A 
ATOM      5  C   UNL     1       2.284   5.663  19.987  0.00  0.00    +0.000 A 
ATOM      6  O   UNL     1       2.580   6.826  20.249  0.00  0.00    +0.000 OA
ATOM      7  N   UNL     1       2.251   5.128  18.711  0.00  0.00    +0.000 N 
ATOM      8  C   UNL     1       2.021   3.788  18.456  0.00  0.00    +0.000 A 
ATOM      9  O   UNL     1       2.066   3.274  17.340  0.00  0.00    +0.000 OA
ATOM     10  N   UNL     1       1.730   3.012  19.548  0.00  0.00    +0.000 N 
ATOM     11  H   UNL     1       1.544   2.037  19.337  0.00  0.00    +0.000 HD
ENDBRANCH   1   7
BRANCH   1  12
ATOM     12  C   UNL     1       3.992   6.533  17.610  0.00  0.00    +0.000 C 
BRANCH  12  13
ATOM     13  N   UNL     1       4.775   6.021  16.477  0.00  0.00    +0.000 NA
ATOM     14  C   UNL     1       6.237   6.236  16.665  0.00  0.00    +0.000 C 
ATOM     15  C   UNL     1       6.461   4.815  16.079  0.00  0.00    +0.000 C 
ATOM     16  C   UNL     1       5.026   4.557  16.618  0.00  0.00    +0.000 C 
BRANCH  15  17
ATOM     17  C   UNL     1       6.710   4.646  14.528  0.00  0.00    +0.000 A 
ATOM     18  C   UNL     1       6.060   3.727  13.698  0.00  0.00    +0.000 A 
ATOM     19  C   UNL     1       6.378   3.664  12.344  0.00  0.00    +0.000 A 
ATOM     20  C   UNL     1       7.344   4.518  11.837  0.00  0.00    +0.000 A 
ATOM     21  C   UNL     1       7.950   5.402  12.710  0.00  0.00    +0.000 A 
ATOM     22  N   UNL     1       7.657   5.484  14.028  0.00  0.00    +0.000 NA
ENDBRANCH  15  17
ENDBRANCH  12  13
ENDBRANCH   1  12
TORSDOF 4
ENDMDL
MODEL 6
REMARK VINA RESULT:      -6.9      3.492      7.101
REMARK  Name = 
REMARK  5 active torsions:
REMARK  status: ('A' for Active; 'I' for Inactive)
REMARK    1  A    between atoms: C_1  and  C_2
REMARK    2  A    between atoms: N_6  and  C_7
REMARK    3  A    between atoms: C_7  and  C_8
REMARK    4  A    between atoms: C_8  and  N_9
REMARK    5  A    between atoms: C_11  and  C_12
REMARK                            x       y       z     vdW  Elec       q    Type
REMARK                         _______ _______ _______ _____ _____    ______ ____
ROOT
ATOM      1  C   UNL     1       6.454   4.550  17.890  0.00  0.00    +0.000 C 
ENDROOT
BRANCH   1   7
ATOM      2  C   UNL     1       8.909   9.664  18.556  0.00  0.00    +0.000 C 
ATOM      3  C   UNL     1       8.240   8.350  18.286  0.00  0.00    +0.000 A 
ATOM      4  C   UNL     1       7.404   8.150  17.267  0.00  0.00    +0.000 A 
ATOM      5  C   UNL     1       6.785   6.823  17.074  0.00  0.00    +0.000 A 
ATOM      6  O   UNL     1       6.062   6.642  16.098  0.00  0.00    +0.000 OA
ATOM      7  N   UNL     1       7.080   5.862  18.024  0.00  0.00    +0.000 N 
ATOM      8  C   UNL     1       7.984   6.062  19.052  0.00  0.00    +0.000 A 
ATOM      9  O   UNL     1       8.322   5.199  19.860  0.00  0.00    +0.000 OA
ATOM     10  N   UNL     1       8.520   7.320  19.140  0.00  0.00    +0.000 N 
ATOM     11  H   UNL     1       9.165   7.452  19.912  0.00  0.00    +0.000 HD
ENDBRANCH   1   7
BRANCH   1  12
ATOM     12  C   UNL     1       5.355   4.313  18.944  0.00  0.00    +0.000 C 
BRANCH  12  13
ATOM     13  N   UNL     1       4.384   5.416  18.983  0.00  0.00    +0.000 NA
ATOM     14  C   UNL     1       3.375   5.312  17.892  0.00  0.00    +0.000 C 
ATOM     15  C   UNL     1       2.302   5.752  18.923  0.00  0.00    +0.000 C 
ATOM     16  C   UNL     1       3.287   5.130  19.952  0.00  0.00    +0.000 C 
BRANCH  15  17
ATOM     17  C   UNL     1       1.949   7.285  19.071  0.00  0.00    +0.000 A 
ATOM     18  C   UNL     1       1.575   7.921  20.259  0.00  0.00    +0.000 A 
ATOM     19  C   UNL     1       1.274   9.280  20.258  0.00  0.00    +0.000 A 
ATOM     20  C   UNL     1       1.346   9.987  19.069  0.00  0.00    +0.000 A 
ATOM     21  C   UNL     1       1.722   9.300  17.929  0.00  0.00    +0.000 A 
ATOM     22  N   UNL     1       2.022   7.981  17.905  0.00  0.00    +0.000 NA
ENDBRANCH  15  17
ENDBRANCH  12  13
ENDBRANCH   1  12
TORSDOF 4
ENDMDL
MODEL 7
REMARK VINA RESULT:      -6.9      1.481      2.215
REMARK  Name = 
REMARK  5 active torsions:
REMARK  status: ('A' for Active; 'I' for Inactive)
REMARK    1  A    between atoms: C_1  and  C_2
REMARK    2  A    between atoms: N_6  and  C_7
REMARK    3  A    between atoms: C_7  and  C_8
REMARK    4  A    between atoms: C_8  and  N_9
REMARK    5  A    between atoms: C_11  and  C_12
REMARK                            x       y       z     vdW  Elec       q    Type
REMARK                         _______ _______ _______ _____ _____    ______ ____
ROOT
ATOM      1  C   UNL     1       4.673   5.945  18.780  0.00  0.00    +0.000 C 
ENDROOT
BRANCH   1   7
ATOM      2  C   UNL     1       1.180   2.524  21.731  0.00  0.00    +0.000 C 
ATOM      3  C   UNL     1       2.045   3.502  20.996  0.00  0.00    +0.000 A 
ATOM      4  C   UNL     1       1.717   4.782  20.819  0.00  0.00    +0.000 A 
ATOM      5  C   UNL     1       2.628   5.678  20.078  0.00  0.00    +0.000 A 
ATOM      6  O   UNL     1       2.336   6.867  19.974  0.00  0.00    +0.000 OA
ATOM      7  N   UNL     1       3.770   5.100  19.553  0.00  0.00    +0.000 N 
ATOM      8  C   UNL     1       4.127   3.782  19.780  0.00  0.00    +0.000 A 
ATOM      9  O   UNL     1       5.174   3.268  19.392  0.00  0.00    +0.000 OA
ATOM     10  N   UNL     1       3.227   3.033  20.492  0.00  0.00    +0.000 N 
ATOM     11  H   UNL     1       3.498   2.065  20.630  0.00  0.00    +0.000 HD
ENDBRANCH   1   7
BRANCH   1  12
ATOM     12  C   UNL     1       4.071   6.365  17.425  0.00  0.00    +0.000 C 
BRANCH  12  13
ATOM     13  N   UNL     1       4.873   5.878  16.294  0.00  0.00    +0.000 NA
ATOM     14  C   UNL     1       6.292   5.634  16.679  0.00  0.00    +0.000 C 
ATOM     15  C   UNL     1       6.243   4.347  15.812  0.00  0.00    +0.000 C 
ATOM     16  C   UNL     1       4.722   4.404  16.125  0.00  0.00    +0.000 C 
BRANCH  15  17
ATOM     17  C   UNL     1       6.690   4.412  14.298  0.00  0.00    +0.000 A 
ATOM     18  C   UNL     1       7.604   5.324  13.761  0.00  0.00    +0.000 A 
ATOM     19  C   UNL     1       7.906   5.290  12.402  0.00  0.00    +0.000 A 
ATOM     20  C   UNL     1       7.288   4.347  11.596  0.00  0.00    +0.000 A 
ATOM     21  C   UNL     1       6.393   3.476  12.188  0.00  0.00    +0.000 A 
ATOM     22  N   UNL     1       6.085   3.487  13.506  0.00  0.00    +0.000 NA
ENDBRANCH  15  17
ENDBRANCH  12  13
ENDBRANCH   1  12
TORSDOF 4
ENDMDL
MODEL 8
REMARK VINA RESULT:      -6.9      2.000      2.943
REMARK  Name = 
REMARK  5 active torsions:
REMARK  status: ('A' for Active; 'I' for Inactive)
REMARK    1  A    between atoms: C_1  and  C_2
REMARK    2  A    between atoms: N_6  and  C_7
REMARK    3  A    between atoms: C_7  and  C_8
REMARK    4  A    between atoms: C_8  and  N_9
REMARK    5  A    between atoms: C_11  and  C_12
REMARK                            x       y       z     vdW  Elec       q    Type
REMARK                         _______ _______ _______ _____ _____    ______ ____
ROOT
ATOM      1  C   UNL     1       3.130   5.775  18.093  0.00  0.00    +0.000 C 
ENDROOT
BRANCH   1   7
ATOM      2  C   UNL     1       0.399   9.351  21.610  0.00  0.00    +0.000 C 
ATOM      3  C   UNL     1       1.141   8.494  20.630  0.00  0.00    +0.000 A 
ATOM      4  C   UNL     1       1.487   8.907  19.411  0.00  0.00    +0.000 A 
ATOM      5  C   UNL     1       2.216   7.996  18.505  0.00  0.00    +0.000 A 
ATOM      6  O   UNL     1       2.575   8.414  17.407  0.00  0.00    +0.000 OA
ATOM      7  N   UNL     1       2.449   6.717  18.976  0.00  0.00    +0.000 N 
ATOM      8  C   UNL     1       2.129   6.309  20.259  0.00  0.00    +0.000 A 
ATOM      9  O   UNL     1       2.399   5.204  20.726  0.00  0.00    +0.000 OA
ATOM     10  N   UNL     1       1.470   7.229  21.031  0.00  0.00    +0.000 N 
ATOM     11  H   UNL     1       1.226   6.904  21.961  0.00  0.00    +0.000 HD
ENDBRANCH   1   7
BRANCH   1  12
ATOM     12  C   UNL     1       4.660   5.960  18.104  0.00  0.00    +0.000 C 
BRANCH  12  13
ATOM     13  N   UNL     1       5.270   5.553  16.830  0.00  0.00    +0.000 NA
ATOM     14  C   UNL     1       6.634   4.986  17.020  0.00  0.00    +0.000 C 
ATOM     15  C   UNL     1       6.271   3.913  15.958  0.00  0.00    +0.000 C 
ATOM     16  C   UNL     1       4.817   4.190  16.430  0.00  0.00    +0.000 C 
BRANCH  15  17
ATOM     17  C   UNL     1       6.617   4.175  14.439  0.00  0.00    +0.000 A 
ATOM     18  C   UNL     1       6.105   3.456  13.354  0.00  0.00    +0.000 A 
ATOM     19  C   UNL     1       6.500   3.775  12.058  0.00  0.00    +0.000 A 
ATOM     20  C   UNL     1       7.403   4.807  11.861  0.00  0.00    +0.000 A 
ATOM     21  C   UNL     1       7.873   5.478  12.974  0.00  0.00    +0.000 A 
ATOM     22  N   UNL     1       7.503   5.189  14.243  0.00  0.00    +0.000 NA
ENDBRANCH  15  17
ENDBRANCH  12  13
ENDBRANCH   1  12
TORSDOF 4
ENDMDL
MODEL 9
REMARK VINA RESULT:      -6.9      3.150      6.969
REMARK  Name = 
REMARK  5 active torsions:
REMARK  status: ('A' for Active; 'I' for Inactive)
REMARK    1  A    between atoms: C_1  and  C_2
REMARK    2  A    between atoms: N_6  and  C_7
REMARK    3  A    between atoms: C_7  and  C_8
REMARK    4  A    between atoms: C_8  and  N_9
REMARK    5  A    between atoms: C_11  and  C_12
REMARK                            x       y       z     vdW  Elec       q    Type
REMARK                         _______ _______ _______ _____ _____    ______ ____
ROOT
ATOM      1  C   UNL     1       5.810   4.232  16.875  0.00  0.00    +0.000 C 
ENDROOT
BRANCH   1   7
ATOM      2  C   UNL     1       8.463   9.097  18.257  0.00  0.00    +0.000 C 
ATOM      3  C   UNL     1       7.730   7.869  17.811  0.00  0.00    +0.000 A 
ATOM      4  C   UNL     1       6.752   7.887  16.905  0.00  0.00    +0.000 A 
ATOM      5  C   UNL     1       6.079   6.629  16.525  0.00  0.00    +0.000 A 
ATOM      6  O   UNL     1       5.219   6.658  15.648  0.00  0.00    +0.000 OA
ATOM      7  N   UNL     1       6.482   5.487  17.194  0.00  0.00    +0.000 N 
ATOM      8  C   UNL     1       7.528   5.467  18.099  0.00  0.00    +0.000 A 
ATOM      9  O   UNL     1       7.956   4.453  18.646  0.00  0.00    +0.000 OA
ATOM     10  N   UNL     1       8.103   6.681  18.376  0.00  0.00    +0.000 N 
ATOM     11  H   UNL     1       8.854   6.647  19.057  0.00  0.00    +0.000 HD
ENDBRANCH   1   7
BRANCH   1  12
ATOM     12  C   UNL     1       4.649   3.924  17.839  0.00  0.00    +0.000 C 
BRANCH  12  13
ATOM     13  N   UNL     1       3.856   5.123  18.144  0.00  0.00    +0.000 NA
ATOM     14  C   UNL     1       2.455   4.787  18.524  0.00  0.00    +0.000 C 
ATOM     15  C   UNL     1       2.554   5.879  19.622  0.00  0.00    +0.000 C 
ATOM     16  C   UNL     1       4.074   5.567  19.551  0.00  0.00    +0.000 C 
BRANCH  15  17
ATOM     17  C   UNL     1       2.086   7.353  19.296  0.00  0.00    +0.000 A 
ATOM     18  C   UNL     1       2.297   8.022  18.086  0.00  0.00    +0.000 A 
ATOM     19  C   UNL     1       1.847   9.330  17.925  0.00  0.00    +0.000 A 
ATOM     20  C   UNL     1       1.195   9.954  18.976  0.00  0.00    +0.000 A 
ATOM     21  C   UNL     1       1.019   9.239  20.146  0.00  0.00    +0.000 A 
ATOM     22  N   UNL     1       1.444   7.967  20.326  0.00  0.00    +0.000 NA
ENDBRANCH  15  17
ENDBRANCH  12  13
ENDBRANCH   1  12
TORSDOF 4
ENDMDL
