MODEL 1
REMARK VINA RESULT:      -7.8      0.000      0.000
REMARK  Name = 
REMARK  10 active torsions:
REMARK  status: ('A' for Active; 'I' for Inactive)
REMARK    1  A    between atoms: C_1  and  O_2
REMARK    2  A    between atoms: O_2  and  C_3
REMARK    3  A    between atoms: C_5  and  N_6
REMARK    4  A    between atoms: N_6  and  C_7
REMARK    5  A    between atoms: C_7  and  C_8
REMARK    6  A    between atoms: C_17  and  C_19
REMARK    7  A    between atoms: C_27  and  O_28
REMARK    8  A    between atoms: O_28  and  C_29
REMARK    9  A    between atoms: C_30  and  O_31
REMARK   10  A    between atoms: O_31  and  C_32
REMARK                            x       y       z     vdW  Elec       q    Type
REMARK                         _______ _______ _______ _____ _____    ______ ____
ROOT
ATOM      1  N   UNL     1       1.394   9.126  19.866  0.00  0.00    +0.000 N 
ATOM      2  C   UNL     1       1.116   9.337  21.242  0.00  0.00    +0.000 C 
ATOM      3  O   UNL     1       1.479   8.554  22.138  0.00  0.00    +0.000 OA
ENDROOT
BRANCH   2   4
ATOM      4  C   UNL     1       0.415  10.564  21.726  0.00  0.00    +0.000 A 
ATOM      5  C   UNL     1      -0.699  10.392  22.562  0.00  0.00    +0.000 A 
ATOM      6  C   UNL     1      -1.437  11.495  23.009  0.00  0.00    +0.000 A 
ATOM      7  C   UNL     1      -1.067  12.782  22.630  0.00  0.00    +0.000 A 
ATOM      8  C   UNL     1       0.018  12.960  21.774  0.00  0.00    +0.000 A 
ATOM      9 CL   UNL     1       0.467  14.548  21.288  0.00  0.00    +0.000 Cl
ATOM     10  C   UNL     1       0.737  11.860  21.294  0.00  0.00    +0.000 A 
ENDBRANCH   2   4
BRANCH   1  13
ATOM     11  C   UNL     1       3.372   6.637  17.986  0.00  0.00    +0.000 A 
ATOM     12  C   UNL     1       2.516   7.720  18.233  0.00  0.00    +0.000 A 
ATOM     13  C   UNL     1       1.876   7.840  19.464  0.00  0.00    +0.000 A 
ATOM     14  C   UNL     1       1.866   6.742  20.314  0.00  0.00    +0.000 A 
ATOM     15  C   UNL     1       2.554   5.565  19.978  0.00  0.00    +0.000 A 
ATOM     16  C   UNL     1       3.374   5.515  18.830  0.00  0.00    +0.000 A 
BRANCH  11  18
ATOM     17  C   UNL     1       5.608   7.004  17.428  0.00  0.00    +0.000 C 
ATOM     18  O   UNL     1       4.275   6.755  16.955  0.00  0.00    +0.000 OA
ENDBRANCH  11  18
BRANCH  15  19
ATOM     19  O   UNL     1       2.468   4.590  20.945  0.00  0.00    +0.000 OA
ATOM     20  C   UNL     1       1.362   3.699  20.836  0.00  0.00    +0.000 C 
ENDBRANCH  15  19
BRANCH  16  21
ATOM     21  O   UNL     1       4.141   4.391  18.702  0.00  0.00    +0.000 OA
ATOM     22  C   UNL     1       3.763   3.354  17.812  0.00  0.00    +0.000 C 
ENDBRANCH  16  21
ENDBRANCH   1  13
BRANCH   1  23
ATOM     23  C   UNL     1       0.879  10.057  18.843  0.00  0.00    +0.000 C 
BRANCH  23  24
ATOM     24  C   UNL     1      -0.529  10.043  18.314  0.00  0.00    +0.000 A 
ATOM     25  N   UNL     1      -0.855   9.598  17.111  0.00  0.00    +0.000 NA
ATOM     26  C   UNL     1      -2.096  10.111  16.832  0.00  0.00    +0.000 A 
ATOM     27  C   UNL     1      -2.876   9.994  15.671  0.00  0.00    +0.000 A 
ATOM     28  C   UNL     1      -4.110  10.653  15.615  0.00  0.00    +0.000 A 
ATOM     29  C   UNL     1      -4.548  11.432  16.688  0.00  0.00    +0.000 A 
ATOM     30  C   UNL     1      -3.784  11.561  17.857  0.00  0.00    +0.000 A 
ATOM     31  C   UNL     1      -2.566  10.872  17.894  0.00  0.00    +0.000 A 
ATOM     32  N   UNL     1      -1.587  10.753  18.852  0.00  0.00    +0.000 N 
ATOM     33  H   UNL     1      -1.628  11.149  19.778  0.00  0.00    +0.000 HD
ENDBRANCH  23  24
ENDBRANCH   1  23
TORSDOF 7
ENDMDL
MODEL 2
REMARK VINA RESULT:      -7.7      0.876      1.217
REMARK  Name = 
REMARK  10 active torsions:
REMARK  status: ('A' for Active; 'I' for Inactive)
REMARK    1  A    between atoms: C_1  and  O_2
REMARK    2  A    between atoms: O_2  and  C_3
REMARK    3  A    between atoms: C_5  and  N_6
REMARK    4  A    between atoms: N_6  and  C_7
REMARK    5  A    between atoms: C_7  and  C_8
REMARK    6  A    between atoms: C_17  and  C_19
REMARK    7  A    between atoms: C_27  and  O_28
REMARK    8  A    between atoms: O_28  and  C_29
REMARK    9  A    between atoms: C_30  and  O_31
REMARK   10  A    between atoms: O_31  and  C_32
REMARK                            x       y       z     vdW  Elec       q    Type
REMARK                         _______ _______ _______ _____ _____    ______ ____
ROOT
ATOM      1  N   UNL     1       1.358   9.081  19.765  0.00  0.00    +0.000 N 
ATOM      2  C   UNL     1       1.071   9.393  21.119  0.00  0.00    +0.000 C 
ATOM      3  O   UNL     1       1.415   8.671  22.073  0.00  0.00    +0.000 OA
ENDROOT
BRANCH   2   4
ATOM      4  C   UNL     1       0.383  10.660  21.509  0.00  0.00    +0.000 A 
ATOM      5  C   UNL     1       1.000  11.872  21.161  0.00  0.00    +0.000 A 
ATOM      6  C   UNL     1       0.441  13.097  21.541  0.00  0.00    +0.000 A 
ATOM      7  C   UNL     1      -0.743  13.127  22.272  0.00  0.00    +0.000 A 
ATOM      8  C   UNL     1      -1.346  11.928  22.651  0.00  0.00    +0.000 A 
ATOM      9 CL   UNL     1      -2.800  11.960  23.568  0.00  0.00    +0.000 Cl
ATOM     10  C   UNL     1      -0.772  10.700  22.305  0.00  0.00    +0.000 A 
ENDBRANCH   2   4
BRANCH   1  13
ATOM     11  C   UNL     1       3.301   6.437  18.070  0.00  0.00    +0.000 A 
ATOM     12  C   UNL     1       2.456   7.543  18.239  0.00  0.00    +0.000 A 
ATOM     13  C   UNL     1       1.825   7.764  19.459  0.00  0.00    +0.000 A 
ATOM     14  C   UNL     1       1.810   6.734  20.391  0.00  0.00    +0.000 A 
ATOM     15  C   UNL     1       2.485   5.527  20.142  0.00  0.00    +0.000 A 
ATOM     16  C   UNL     1       3.297   5.382  18.997  0.00  0.00    +0.000 A 
BRANCH  11  18
ATOM     17  C   UNL     1       5.488   6.948  17.438  0.00  0.00    +0.000 C 
ATOM     18  O   UNL     1       4.199   6.466  17.029  0.00  0.00    +0.000 OA
ENDBRANCH  11  18
BRANCH  15  19
ATOM     19  O   UNL     1       2.394   4.630  21.181  0.00  0.00    +0.000 OA
ATOM     20  C   UNL     1       1.423   3.598  21.033  0.00  0.00    +0.000 C 
ENDBRANCH  15  19
BRANCH  16  21
ATOM     21  O   UNL     1       4.052   4.244  18.951  0.00  0.00    +0.000 OA
ATOM     22  C   UNL     1       3.775   3.228  18.002  0.00  0.00    +0.000 C 
ENDBRANCH  16  21
ENDBRANCH   1  13
BRANCH   1  23
ATOM     23  C   UNL     1       0.864   9.944  18.674  0.00  0.00    +0.000 C 
BRANCH  23  24
ATOM     24  C   UNL     1      -0.561   9.975  18.195  0.00  0.00    +0.000 A 
ATOM     25  N   UNL     1      -0.944   9.541  17.004  0.00  0.00    +0.000 NA
ATOM     26  C   UNL     1      -2.177  10.095  16.769  0.00  0.00    +0.000 A 
ATOM     27  C   UNL     1      -3.000  10.003  15.636  0.00  0.00    +0.000 A 
ATOM     28  C   UNL     1      -4.214  10.701  15.624  0.00  0.00    +0.000 A 
ATOM     29  C   UNL     1      -4.588  11.494  16.711  0.00  0.00    +0.000 A 
ATOM     30  C   UNL     1      -3.780  11.597  17.852  0.00  0.00    +0.000 A 
ATOM     31  C   UNL     1      -2.585  10.869  17.846  0.00  0.00    +0.000 A 
ATOM     32  N   UNL     1      -1.576  10.718  18.769  0.00  0.00    +0.000 N 
ATOM     33  H   UNL     1      -1.572  11.116  19.696  0.00  0.00    +0.000 HD
ENDBRANCH  23  24
ENDBRANCH   1  23
TORSDOF 7
ENDMDL
MODEL 3
REMARK VINA RESULT:      -7.7      1.029      2.527
REMARK  Name = 
REMARK  10 active torsions:
REMARK  status: ('A' for Active; 'I' for Inactive)
REMARK    1  A    between atoms: C_1  and  O_2
REMARK    2  A    between atoms: O_2  and  C_3
REMARK    3  A    between atoms: C_5  and  N_6
REMARK    4  A    between atoms: N_6  and  C_7
REMARK    5  A    between atoms: C_7  and  C_8
REMARK    6  A    between atoms: C_17  and  C_19
REMARK    7  A    between atoms: C_27  and  O_28
REMARK    8  A    between atoms: O_28  and  C_29
REMARK    9  A    between atoms: C_30  and  O_31
REMARK   10  A    between atoms: O_31  and  C_32
REMARK                            x       y       z     vdW  Elec       q    Type
REMARK                         _______ _______ _______ _____ _____    ______ ____
ROOT
ATOM      1  N   UNL     1       1.475   9.121  19.934  0.00  0.00    +0.000 N 
ATOM      2  C   UNL     1       1.113   9.436  21.270  0.00  0.00    +0.000 C 
ATOM      3  O   UNL     1       1.453   8.747  22.248  0.00  0.00    +0.000 OA
ENDROOT
BRANCH   2   4
ATOM      4  C   UNL     1       0.345  10.671  21.609  0.00  0.00    +0.000 A 
ATOM      5  C   UNL     1       0.881  11.905  21.208  0.00  0.00    +0.000 A 
ATOM      6  C   UNL     1       0.243  13.106  21.540  0.00  0.00    +0.000 A 
ATOM      7  C   UNL     1      -0.940  13.089  22.273  0.00  0.00    +0.000 A 
ATOM      8  C   UNL     1      -1.462  11.870  22.704  0.00  0.00    +0.000 A 
ATOM      9 CL   UNL     1      -2.915  11.845  23.624  0.00  0.00    +0.000 Cl
ATOM     10  C   UNL     1      -0.811  10.669  22.407  0.00  0.00    +0.000 A 
ENDBRANCH   2   4
BRANCH   1  13
ATOM     11  C   UNL     1       1.778   5.441  20.020  0.00  0.00    +0.000 A 
ATOM     12  C   UNL     1       1.639   6.759  20.478  0.00  0.00    +0.000 A 
ATOM     13  C   UNL     1       2.023   7.826  19.670  0.00  0.00    +0.000 A 
ATOM     14  C   UNL     1       2.801   7.561  18.551  0.00  0.00    +0.000 A 
ATOM     15  C   UNL     1       3.127   6.242  18.196  0.00  0.00    +0.000 A 
ATOM     16  C   UNL     1       2.565   5.151  18.895  0.00  0.00    +0.000 A 
BRANCH  11  18
ATOM     17  C   UNL     1       1.844   3.657  21.523  0.00  0.00    +0.000 C 
ATOM     18  O   UNL     1       1.042   4.463  20.646  0.00  0.00    +0.000 OA
ENDBRANCH  11  18
BRANCH  15  19
ATOM     19  O   UNL     1       3.875   6.158  17.045  0.00  0.00    +0.000 OA
ATOM     20  C   UNL     1       5.167   6.755  17.095  0.00  0.00    +0.000 C 
ENDBRANCH  15  19
BRANCH  16  21
ATOM     21  O   UNL     1       2.798   3.920  18.349  0.00  0.00    +0.000 OA
ATOM     22  C   UNL     1       3.994   3.214  18.638  0.00  0.00    +0.000 C 
ENDBRANCH  16  21
ENDBRANCH   1  13
BRANCH   1  23
ATOM     23  C   UNL     1       0.985   9.942  18.809  0.00  0.00    +0.000 C 
BRANCH  23  24
ATOM     24  C   UNL     1      -0.436   9.947  18.317  0.00  0.00    +0.000 A 
ATOM     25  N   UNL     1      -0.804   9.475  17.137  0.00  0.00    +0.000 NA
ATOM     26  C   UNL     1      -2.040  10.010  16.874  0.00  0.00    +0.000 A 
ATOM     27  C   UNL     1      -2.853   9.878  15.738  0.00  0.00    +0.000 A 
ATOM     28  C   UNL     1      -4.072  10.566  15.695  0.00  0.00    +0.000 A 
ATOM     29  C   UNL     1      -4.463  11.386  16.755  0.00  0.00    +0.000 A 
ATOM     30  C   UNL     1      -3.666  11.530  17.899  0.00  0.00    +0.000 A 
ATOM     31  C   UNL     1      -2.464  10.813  17.925  0.00  0.00    +0.000 A 
ATOM     32  N   UNL     1      -1.462  10.698  18.860  0.00  0.00    +0.000 N 
ATOM     33  H   UNL     1      -1.470  11.122  19.775  0.00  0.00    +0.000 HD
ENDBRANCH  23  24
ENDBRANCH   1  23
TORSDOF 7
ENDMDL
MODEL 4
REMARK VINA RESULT:      -7.5      4.643      7.537
REMARK  Name = 
REMARK  10 active torsions:
REMARK  status: ('A' for Active; 'I' for Inactive)
REMARK    1  A    between atoms: C_1  and  O_2
REMARK    2  A    between atoms: O_2  and  C_3
REMARK    3  A    between atoms: C_5  and  N_6
REMARK    4  A    between atoms: N_6  and  C_7
REMARK    5  A    between atoms: C_7  and  C_8
REMARK    6  A    between atoms: C_17  and  C_19
REMARK    7  A    between atoms: C_27  and  O_28
REMARK    8  A    between atoms: O_28  and  C_29
REMARK    9  A    between atoms: C_30  and  O_31
REMARK   10  A    between atoms: O_31  and  C_32
REMARK                            x       y       z     vdW  Elec       q    Type
REMARK                         _______ _______ _______ _____ _____    ______ ____
ROOT
ATOM      1  N   UNL     1       0.073  13.475  19.955  0.00  0.00    +0.000 N 
ATOM      2  C   UNL     1       0.537  12.929  21.180  0.00  0.00    +0.000 C 
ATOM      3  O   UNL     1       1.194  13.582  22.011  0.00  0.00    +0.000 OA
ENDROOT
BRANCH   2   4
ATOM      4  C   UNL     1       0.210  11.532  21.596  0.00  0.00    +0.000 A 
ATOM      5  C   UNL     1      -0.738  11.360  22.617  0.00  0.00    +0.000 A 
ATOM      6  C   UNL     1      -1.054  10.083  23.095  0.00  0.00    +0.000 A 
ATOM      7  C   UNL     1      -0.428   8.962  22.557  0.00  0.00    +0.000 A 
ATOM      8  C   UNL     1       0.540   9.126  21.567  0.00  0.00    +0.000 A 
ATOM      9 CL   UNL     1       1.328   7.745  20.911  0.00  0.00    +0.000 Cl
ATOM     10  C   UNL     1       0.885  10.402  21.110  0.00  0.00    +0.000 A 
ENDBRANCH   2   4
BRANCH   1  13
ATOM     11  C   UNL     1       2.284  15.858  18.202  0.00  0.00    +0.000 A 
ATOM     12  C   UNL     1       1.890  14.784  19.012  0.00  0.00    +0.000 A 
ATOM     13  C   UNL     1       0.600  14.737  19.535  0.00  0.00    +0.000 A 
ATOM     14  C   UNL     1      -0.175  15.889  19.488  0.00  0.00    +0.000 A 
ATOM     15  C   UNL     1       0.299  17.050  18.855  0.00  0.00    +0.000 A 
ATOM     16  C   UNL     1       1.518  17.034  18.144  0.00  0.00    +0.000 A 
BRANCH  11  18
ATOM     17  C   UNL     1       4.392  14.874  18.019  0.00  0.00    +0.000 C 
ATOM     18  O   UNL     1       3.383  15.684  17.395  0.00  0.00    +0.000 OA
ENDBRANCH  11  18
BRANCH  15  19
ATOM     19  O   UNL     1      -0.607  18.085  18.871  0.00  0.00    +0.000 OA
ATOM     20  C   UNL     1      -0.909  18.631  20.152  0.00  0.00    +0.000 C 
ENDBRANCH  15  19
BRANCH  16  21
ATOM     21  O   UNL     1       1.788  18.157  17.413  0.00  0.00    +0.000 OA
ATOM     22  C   UNL     1       1.158  18.375  16.162  0.00  0.00    +0.000 C 
ENDBRANCH  16  21
ENDBRANCH   1  13
BRANCH   1  23
ATOM     23  C   UNL     1      -0.644  12.631  18.980  0.00  0.00    +0.000 C 
BRANCH  23  24
ATOM     24  C   UNL     1      -2.142  12.556  18.861  0.00  0.00    +0.000 A 
ATOM     25  N   UNL     1      -2.967  12.716  19.884  0.00  0.00    +0.000 NA
ATOM     26  C   UNL     1      -4.171  12.182  19.497  0.00  0.00    +0.000 A 
ATOM     27  C   UNL     1      -5.365  12.044  20.220  0.00  0.00    +0.000 A 
ATOM     28  C   UNL     1      -6.459  11.421  19.606  0.00  0.00    +0.000 A 
ATOM     29  C   UNL     1      -6.356  10.926  18.305  0.00  0.00    +0.000 A 
ATOM     30  C   UNL     1      -5.172  11.055  17.566  0.00  0.00    +0.000 A 
ATOM     31  C   UNL     1      -4.103  11.703  18.196  0.00  0.00    +0.000 A 
ATOM     32  N   UNL     1      -2.828  12.019  17.788  0.00  0.00    +0.000 N 
ATOM     33  H   UNL     1      -2.454  11.851  16.866  0.00  0.00    +0.000 HD
ENDBRANCH  23  24
ENDBRANCH   1  23
TORSDOF 7
ENDMDL
MODEL 5
REMARK VINA RESULT:      -7.5      3.892      7.491
REMARK  Name = 
REMARK  10 active torsions:
REMARK  status: ('A' for Active; 'I' for Inactive)
REMARK    1  A    between atoms: C_1  and  O_2
REMARK    2  A    between atoms: O_2  and  C_3
REMARK    3  A    between atoms: C_5  and  N_6
REMARK    4  A    between atoms: N_6  and  C_7
REMARK    5  A    between atoms: C_7  and  C_8
REMARK    6  A    between atoms: C_17  and  C_19
REMARK    7  A    between atoms: C_27  and  O_28
REMARK    8  A    between atoms: O_28  and  C_29
REMARK    9  A    between atoms: C_30  and  O_31
REMARK   10  A    between atoms: O_31  and  C_32
REMARK                            x       y       z     vdW  Elec       q    Type
REMARK                         _______ _______ _______ _____ _____    ______ ____
ROOT
ATOM      1  N   UNL     1       0.318  12.013  19.044  0.00  0.00    +0.000 N 
ATOM      2  C   UNL     1      -0.735  12.719  18.406  0.00  0.00    +0.000 C 
ATOM      3  O   UNL     1      -0.665  13.926  18.112  0.00  0.00    +0.000 OA
ENDROOT
BRANCH   2   4
ATOM      4  C   UNL     1      -1.994  12.040  17.975  0.00  0.00    +0.000 A 
ATOM      5  C   UNL     1      -3.065  12.015  18.882  0.00  0.00    +0.000 A 
ATOM      6  C   UNL     1      -4.256  11.350  18.566  0.00  0.00    +0.000 A 
ATOM      7  C   UNL     1      -4.391  10.704  17.341  0.00  0.00    +0.000 A 
ATOM      8  C   UNL     1      -3.320  10.695  16.448  0.00  0.00    +0.000 A 
ATOM      9 CL   UNL     1      -3.477   9.884  14.940  0.00  0.00    +0.000 Cl
ATOM     10  C   UNL     1      -2.116  11.328  16.772  0.00  0.00    +0.000 A 
ENDBRANCH   2   4
BRANCH   1  13
ATOM     11  C   UNL     1       3.377  14.080  19.148  0.00  0.00    +0.000 A 
ATOM     12  C   UNL     1       2.520  13.015  18.832  0.00  0.00    +0.000 A 
ATOM     13  C   UNL     1       1.393  12.768  19.610  0.00  0.00    +0.000 A 
ATOM     14  C   UNL     1       1.293  13.393  20.847  0.00  0.00    +0.000 A 
ATOM     15  C   UNL     1       2.266  14.314  21.269  0.00  0.00    +0.000 A 
ATOM     16  C   UNL     1       3.297  14.720  20.395  0.00  0.00    +0.000 A 
BRANCH  11  18
ATOM     17  C   UNL     1       3.577  15.471  17.286  0.00  0.00    +0.000 C 
ATOM     18  O   UNL     1       4.223  14.537  18.165  0.00  0.00    +0.000 OA
ENDBRANCH  11  18
BRANCH  15  19
ATOM     19  O   UNL     1       1.997  14.861  22.502  0.00  0.00    +0.000 OA
ATOM     20  C   UNL     1       0.877  15.739  22.565  0.00  0.00    +0.000 C 
ENDBRANCH  15  19
BRANCH  16  21
ATOM     21  O   UNL     1       4.072  15.755  20.839  0.00  0.00    +0.000 OA
ATOM     22  C   UNL     1       3.740  17.096  20.524  0.00  0.00    +0.000 C 
ENDBRANCH  16  21
ENDBRANCH   1  13
BRANCH   1  23
ATOM     23  C   UNL     1       0.149  10.597  19.427  0.00  0.00    +0.000 C 
BRANCH  23  24
ATOM     24  C   UNL     1       1.226   9.553  19.312  0.00  0.00    +0.000 A 
ATOM     25  N   UNL     1       1.945   9.359  18.219  0.00  0.00    +0.000 NA
ATOM     26  C   UNL     1       2.499   8.109  18.336  0.00  0.00    +0.000 A 
ATOM     27  C   UNL     1       3.302   7.395  17.434  0.00  0.00    +0.000 A 
ATOM     28  C   UNL     1       3.715   6.101  17.774  0.00  0.00    +0.000 A 
ATOM     29  C   UNL     1       3.318   5.523  18.982  0.00  0.00    +0.000 A 
ATOM     30  C   UNL     1       2.518   6.221  19.897  0.00  0.00    +0.000 A 
ATOM     31  C   UNL     1       2.139   7.521  19.541  0.00  0.00    +0.000 A 
ATOM     32  N   UNL     1       1.391   8.485  20.175  0.00  0.00    +0.000 N 
ATOM     33  H   UNL     1       1.005   8.404  21.104  0.00  0.00    +0.000 HD
ENDBRANCH  23  24
ENDBRANCH   1  23
TORSDOF 7
ENDMDL
MODEL 6
REMARK VINA RESULT:      -7.5      3.783      7.461
REMARK  Name = 
REMARK  10 active torsions:
REMARK  status: ('A' for Active; 'I' for Inactive)
REMARK    1  A    between atoms: C_1  and  O_2
REMARK    2  A    between atoms: O_2  and  C_3
REMARK    3  A    between atoms: C_5  and  N_6
REMARK    4  A    between atoms: N_6  and  C_7
REMARK    5  A    between atoms: C_7  and  C_8
REMARK    6  A    between atoms: C_17  and  C_19
REMARK    7  A    between atoms: C_27  and  O_28
REMARK    8  A    between atoms: O_28  and  C_29
REMARK    9  A    between atoms: C_30  and  O_31
REMARK   10  A    between atoms: O_31  and  C_32
REMARK                            x       y       z     vdW  Elec       q    Type
REMARK                         _______ _______ _______ _____ _____    ______ ____
ROOT
ATOM      1  N   UNL     1       0.618  11.891  19.320  0.00  0.00    +0.000 N 
ATOM      2  C   UNL     1      -0.453  12.450  18.575  0.00  0.00    +0.000 C 
ATOM      3  O   UNL     1      -0.409  13.583  18.062  0.00  0.00    +0.000 OA
ENDROOT
BRANCH   2   4
ATOM      4  C   UNL     1      -1.703  11.681  18.291  0.00  0.00    +0.000 A 
ATOM      5  C   UNL     1      -1.630  10.639  17.354  0.00  0.00    +0.000 A 
ATOM      6  C   UNL     1      -2.773   9.913  16.999  0.00  0.00    +0.000 A 
ATOM      7  C   UNL     1      -4.001  10.217  17.579  0.00  0.00    +0.000 A 
ATOM      8  C   UNL     1      -4.089  11.272  18.486  0.00  0.00    +0.000 A 
ATOM      9 CL   UNL     1      -5.608  11.662  19.193  0.00  0.00    +0.000 Cl
ATOM     10  C   UNL     1      -2.958  12.025  18.818  0.00  0.00    +0.000 A 
ENDBRANCH   2   4
BRANCH   1  13
ATOM     11  C   UNL     1       3.466  14.218  18.977  0.00  0.00    +0.000 A 
ATOM     12  C   UNL     1       2.676  13.073  18.801  0.00  0.00    +0.000 A 
ATOM     13  C   UNL     1       1.683  12.757  19.724  0.00  0.00    +0.000 A 
ATOM     14  C   UNL     1       1.686  13.413  20.948  0.00  0.00    +0.000 A 
ATOM     15  C   UNL     1       2.617  14.429  21.218  0.00  0.00    +0.000 A 
ATOM     16  C   UNL     1       3.488  14.893  20.208  0.00  0.00    +0.000 A 
BRANCH  11  18
ATOM     17  C   UNL     1       3.419  15.782  17.246  0.00  0.00    +0.000 C 
ATOM     18  O   UNL     1       4.135  14.712  17.883  0.00  0.00    +0.000 OA
ENDBRANCH  11  18
BRANCH  15  19
ATOM     19  O   UNL     1       2.458  14.994  22.462  0.00  0.00    +0.000 OA
ATOM     20  C   UNL     1       1.451  15.996  22.570  0.00  0.00    +0.000 C 
ENDBRANCH  15  19
BRANCH  16  21
ATOM     21  O   UNL     1       4.216  16.006  20.524  0.00  0.00    +0.000 OA
ATOM     22  C   UNL     1       5.570  15.895  20.928  0.00  0.00    +0.000 C 
ENDBRANCH  16  21
ENDBRANCH   1  13
BRANCH   1  23
ATOM     23  C   UNL     1       0.480  10.568  19.959  0.00  0.00    +0.000 C 
BRANCH  23  24
ATOM     24  C   UNL     1       1.084   9.299  19.424  0.00  0.00    +0.000 A 
ATOM     25  N   UNL     1       1.319   8.229  20.166  0.00  0.00    +0.000 NA
ATOM     26  C   UNL     1       2.220   7.465  19.469  0.00  0.00    +0.000 A 
ATOM     27  C   UNL     1       2.841   6.259  19.828  0.00  0.00    +0.000 A 
ATOM     28  C   UNL     1       3.767   5.686  18.945  0.00  0.00    +0.000 A 
ATOM     29  C   UNL     1       4.082   6.316  17.740  0.00  0.00    +0.000 A 
ATOM     30  C   UNL     1       3.470   7.520  17.363  0.00  0.00    +0.000 A 
ATOM     31  C   UNL     1       2.533   8.057  18.252  0.00  0.00    +0.000 A 
ATOM     32  N   UNL     1       1.743   9.182  18.214  0.00  0.00    +0.000 N 
ATOM     33  H   UNL     1       1.687   9.827  17.440  0.00  0.00    +0.000 HD
ENDBRANCH  23  24
ENDBRANCH   1  23
TORSDOF 7
ENDMDL
MODEL 7
REMARK VINA RESULT:      -7.4      3.763      7.480
REMARK  Name = 
REMARK  10 active torsions:
REMARK  status: ('A' for Active; 'I' for Inactive)
REMARK    1  A    between atoms: C_1  and  O_2
REMARK    2  A    between atoms: O_2  and  C_3
REMARK    3  A    between atoms: C_5  and  N_6
REMARK    4  A    between atoms: N_6  and  C_7
REMARK    5  A    between atoms: C_7  and  C_8
REMARK    6  A    between atoms: C_17  and  C_19
REMARK    7  A    between atoms: C_27  and  O_28
REMARK    8  A    between atoms: O_28  and  C_29
REMARK    9  A    between atoms: C_30  and  O_31
REMARK   10  A    between atoms: O_31  and  C_32
REMARK                            x       y       z     vdW  Elec       q    Type
REMARK                         _______ _______ _______ _____ _____    ______ ____
ROOT
ATOM      1  N   UNL     1       0.363  11.935  19.558  0.00  0.00    +0.000 N 
ATOM      2  C   UNL     1      -0.635  12.439  18.685  0.00  0.00    +0.000 C 
ATOM      3  O   UNL     1      -0.558  13.550  18.130  0.00  0.00    +0.000 OA
ENDROOT
BRANCH   2   4
ATOM      4  C   UNL     1      -1.837  11.634  18.311  0.00  0.00    +0.000 A 
ATOM      5  C   UNL     1      -1.666  10.602  17.374  0.00  0.00    +0.000 A 
ATOM      6  C   UNL     1      -2.757   9.843  16.936  0.00  0.00    +0.000 A 
ATOM      7  C   UNL     1      -4.032  10.103  17.431  0.00  0.00    +0.000 A 
ATOM      8  C   UNL     1      -4.216  11.147  18.336  0.00  0.00    +0.000 A 
ATOM      9 CL   UNL     1      -5.792  11.482  18.937  0.00  0.00    +0.000 Cl
ATOM     10  C   UNL     1      -3.136  11.932  18.750  0.00  0.00    +0.000 A 
ENDBRANCH   2   4
BRANCH   1  13
ATOM     11  C   UNL     1       3.254  14.230  19.416  0.00  0.00    +0.000 A 
ATOM     12  C   UNL     1       2.487  13.070  19.235  0.00  0.00    +0.000 A 
ATOM     13  C   UNL     1       1.367  12.839  20.029  0.00  0.00    +0.000 A 
ATOM     14  C   UNL     1       1.198  13.608  21.174  0.00  0.00    +0.000 A 
ATOM     15  C   UNL     1       2.091  14.649  21.480  0.00  0.00    +0.000 A 
ATOM     16  C   UNL     1       3.103  15.017  20.568  0.00  0.00    +0.000 A 
BRANCH  11  18
ATOM     17  C   UNL     1       3.432  15.534  17.490  0.00  0.00    +0.000 C 
ATOM     18  O   UNL     1       4.080  14.620  18.389  0.00  0.00    +0.000 OA
ENDBRANCH  11  18
BRANCH  15  19
ATOM     19  O   UNL     1       1.759  15.328  22.629  0.00  0.00    +0.000 OA
ATOM     20  C   UNL     1       0.566  16.105  22.572  0.00  0.00    +0.000 C 
ENDBRANCH  15  19
BRANCH  16  21
ATOM     21  O   UNL     1       3.789  16.158  20.880  0.00  0.00    +0.000 OA
ATOM     22  C   UNL     1       5.062  16.091  21.500  0.00  0.00    +0.000 C 
ENDBRANCH  16  21
ENDBRANCH   1  13
BRANCH   1  23
ATOM     23  C   UNL     1       0.182  10.637  20.238  0.00  0.00    +0.000 C 
BRANCH  23  24
ATOM     24  C   UNL     1       1.090   9.452  20.060  0.00  0.00    +0.000 A 
ATOM     25  N   UNL     1       1.704   9.163  18.924  0.00  0.00    +0.000 NA
ATOM     26  C   UNL     1       2.082   7.847  19.011  0.00  0.00    +0.000 A 
ATOM     27  C   UNL     1       2.717   7.030  18.063  0.00  0.00    +0.000 A 
ATOM     28  C   UNL     1       2.964   5.689  18.383  0.00  0.00    +0.000 A 
ATOM     29  C   UNL     1       2.566   5.168  19.615  0.00  0.00    +0.000 A 
ATOM     30  C   UNL     1       1.933   5.968  20.576  0.00  0.00    +0.000 A 
ATOM     31  C   UNL     1       1.719   7.310  20.239  0.00  0.00    +0.000 A 
ATOM     32  N   UNL     1       1.158   8.367  20.915  0.00  0.00    +0.000 N 
ATOM     33  H   UNL     1       0.824   8.337  21.867  0.00  0.00    +0.000 HD
ENDBRANCH  23  24
ENDBRANCH   1  23
TORSDOF 7
ENDMDL
MODEL 8
REMARK VINA RESULT:      -7.4      2.818      6.575
REMARK  Name = 
REMARK  10 active torsions:
REMARK  status: ('A' for Active; 'I' for Inactive)
REMARK    1  A    between atoms: C_1  and  O_2
REMARK    2  A    between atoms: O_2  and  C_3
REMARK    3  A    between atoms: C_5  and  N_6
REMARK    4  A    between atoms: N_6  and  C_7
REMARK    5  A    between atoms: C_7  and  C_8
REMARK    6  A    between atoms: C_17  and  C_19
REMARK    7  A    between atoms: C_27  and  O_28
REMARK    8  A    between atoms: O_28  and  C_29
REMARK    9  A    between atoms: C_30  and  O_31
REMARK   10  A    between atoms: O_31  and  C_32
REMARK                            x       y       z     vdW  Elec       q    Type
REMARK                         _______ _______ _______ _____ _____    ______ ____
ROOT
ATOM      1  N   UNL     1       0.609   9.927  20.504  0.00  0.00    +0.000 N 
ATOM      2  C   UNL     1       1.312   8.882  21.157  0.00  0.00    +0.000 C 
ATOM      3  O   UNL     1       1.629   8.921  22.360  0.00  0.00    +0.000 OA
ENDROOT
BRANCH   2   4
ATOM      4  C   UNL     1       1.671   7.613  20.456  0.00  0.00    +0.000 A 
ATOM      5  C   UNL     1       1.234   6.406  21.025  0.00  0.00    +0.000 A 
ATOM      6  C   UNL     1       1.580   5.176  20.452  0.00  0.00    +0.000 A 
ATOM      7  C   UNL     1       2.362   5.138  19.302  0.00  0.00    +0.000 A 
ATOM      8  C   UNL     1       2.828   6.329  18.748  0.00  0.00    +0.000 A 
ATOM      9 CL   UNL     1       3.809   6.285  17.337  0.00  0.00    +0.000 Cl
ATOM     10  C   UNL     1       2.516   7.559  19.337  0.00  0.00    +0.000 A 
ENDBRANCH   2   4
BRANCH   1  13
ATOM     11  C   UNL     1       0.949  13.561  21.072  0.00  0.00    +0.000 A 
ATOM     12  C   UNL     1       1.308  12.237  20.779  0.00  0.00    +0.000 A 
ATOM     13  C   UNL     1       0.490  11.184  21.177  0.00  0.00    +0.000 A 
ATOM     14  C   UNL     1      -0.512  11.439  22.105  0.00  0.00    +0.000 A 
ATOM     15  C   UNL     1      -0.746  12.744  22.571  0.00  0.00    +0.000 A 
ATOM     16  C   UNL     1      -0.055  13.841  22.012  0.00  0.00    +0.000 A 
BRANCH  11  18
ATOM     17  C   UNL     1       1.276  14.437  18.935  0.00  0.00    +0.000 C 
ATOM     18  O   UNL     1       1.540  14.564  20.341  0.00  0.00    +0.000 OA
ENDBRANCH  11  18
BRANCH  15  19
ATOM     19  O   UNL     1      -1.793  12.823  23.459  0.00  0.00    +0.000 OA
ATOM     20  C   UNL     1      -3.040  12.305  23.004  0.00  0.00    +0.000 C 
ENDBRANCH  15  19
BRANCH  16  21
ATOM     21  O   UNL     1      -0.495  15.074  22.403  0.00  0.00    +0.000 OA
ATOM     22  C   UNL     1      -1.493  15.756  21.662  0.00  0.00    +0.000 C 
ENDBRANCH  16  21
ENDBRANCH   1  13
BRANCH   1  23
ATOM     23  C   UNL     1       0.321   9.850  19.058  0.00  0.00    +0.000 C 
BRANCH  23  24
ATOM     24  C   UNL     1      -0.833  10.541  18.385  0.00  0.00    +0.000 A 
ATOM     25  N   UNL     1      -1.837  11.099  19.042  0.00  0.00    +0.000 NA
ATOM     26  C   UNL     1      -2.859  11.244  18.137  0.00  0.00    +0.000 A 
ATOM     27  C   UNL     1      -4.161  11.731  18.324  0.00  0.00    +0.000 A 
ATOM     28  C   UNL     1      -5.042  11.743  17.235  0.00  0.00    +0.000 A 
ATOM     29  C   UNL     1      -4.638  11.258  15.990  0.00  0.00    +0.000 A 
ATOM     30  C   UNL     1      -3.341  10.769  15.783  0.00  0.00    +0.000 A 
ATOM     31  C   UNL     1      -2.475  10.791  16.882  0.00  0.00    +0.000 A 
ATOM     32  N   UNL     1      -1.161  10.419  17.047  0.00  0.00    +0.000 N 
ATOM     33  H   UNL     1      -0.556  10.081  16.314  0.00  0.00    +0.000 HD
ENDBRANCH  23  24
ENDBRANCH   1  23
TORSDOF 7
ENDMDL
MODEL 9
REMARK VINA RESULT:      -7.3      2.924      6.611
REMARK  Name = 
REMARK  10 active torsions:
REMARK  status: ('A' for Active; 'I' for Inactive)
REMARK    1  A    between atoms: C_1  and  O_2
REMARK    2  A    between atoms: O_2  and  C_3
REMARK    3  A    between atoms: C_5  and  N_6
REMARK    4  A    between atoms: N_6  and  C_7
REMARK    5  A    between atoms: C_7  and  C_8
REMARK    6  A    between atoms: C_17  and  C_19
REMARK    7  A    between atoms: C_27  and  O_28
REMARK    8  A    between atoms: O_28  and  C_29
REMARK    9  A    between atoms: C_30  and  O_31
REMARK   10  A    between atoms: O_31  and  C_32
REMARK                            x       y       z     vdW  Elec       q    Type
REMARK                         _______ _______ _______ _____ _____    ______ ____
ROOT
ATOM      1  N   UNL     1       0.674   9.912  20.430  0.00  0.00    +0.000 N 
ATOM      2  C   UNL     1       1.333   8.847  21.097  0.00  0.00    +0.000 C 
ATOM      3  O   UNL     1       1.587   8.859  22.316  0.00  0.00    +0.000 OA
ENDROOT
BRANCH   2   4
ATOM      4  C   UNL     1       1.715   7.588  20.390  0.00  0.00    +0.000 A 
ATOM      5  C   UNL     1       2.368   7.707  19.153  0.00  0.00    +0.000 A 
ATOM      6  C   UNL     1       2.706   6.571  18.408  0.00  0.00    +0.000 A 
ATOM      7  C   UNL     1       2.399   5.303  18.893  0.00  0.00    +0.000 A 
ATOM      8  C   UNL     1       1.721   5.176  20.104  0.00  0.00    +0.000 A 
ATOM      9 CL   UNL     1       1.325   3.611  20.697  0.00  0.00    +0.000 Cl
ATOM     10  C   UNL     1       1.348   6.309  20.835  0.00  0.00    +0.000 A 
ENDBRANCH   2   4
BRANCH   1  13
ATOM     11  C   UNL     1       0.974  13.538  21.065  0.00  0.00    +0.000 A 
ATOM     12  C   UNL     1       1.349  12.223  20.757  0.00  0.00    +0.000 A 
ATOM     13  C   UNL     1       0.532  11.157  21.121  0.00  0.00    +0.000 A 
ATOM     14  C   UNL     1      -0.489  11.389  22.035  0.00  0.00    +0.000 A 
ATOM     15  C   UNL     1      -0.743  12.684  22.517  0.00  0.00    +0.000 A 
ATOM     16  C   UNL     1      -0.050  13.795  21.990  0.00  0.00    +0.000 A 
BRANCH  11  18
ATOM     17  C   UNL     1       1.061  14.663  19.023  0.00  0.00    +0.000 C 
ATOM     18  O   UNL     1       1.570  14.558  20.362  0.00  0.00    +0.000 OA
ENDBRANCH  11  18
BRANCH  15  19
ATOM     19  O   UNL     1      -1.807  12.740  23.387  0.00  0.00    +0.000 OA
ATOM     20  C   UNL     1      -3.095  12.540  22.812  0.00  0.00    +0.000 C 
ENDBRANCH  15  19
BRANCH  16  21
ATOM     21  O   UNL     1      -0.508  15.018  22.393  0.00  0.00    +0.000 OA
ATOM     22  C   UNL     1      -1.453  15.731  21.614  0.00  0.00    +0.000 C 
ENDBRANCH  16  21
ENDBRANCH   1  13
BRANCH   1  23
ATOM     23  C   UNL     1       0.460   9.867  18.971  0.00  0.00    +0.000 C 
BRANCH  23  24
ATOM     24  C   UNL     1      -0.889   9.939  18.308  0.00  0.00    +0.000 A 
ATOM     25  N   UNL     1      -1.092   9.664  17.030  0.00  0.00    +0.000 NA
ATOM     26  C   UNL     1      -2.301  10.224  16.701  0.00  0.00    +0.000 A 
ATOM     27  C   UNL     1      -2.961  10.272  15.463  0.00  0.00    +0.000 A 
ATOM     28  C   UNL     1      -4.186  10.946  15.376  0.00  0.00    +0.000 A 
ATOM     29  C   UNL     1      -4.730  11.578  16.496  0.00  0.00    +0.000 A 
ATOM     30  C   UNL     1      -4.087  11.540  17.741  0.00  0.00    +0.000 A 
ATOM     31  C   UNL     1      -2.877  10.839  17.804  0.00  0.00    +0.000 A 
ATOM     32  N   UNL     1      -1.997  10.581  18.829  0.00  0.00    +0.000 N 
ATOM     33  H   UNL     1      -2.131  10.850  19.792  0.00  0.00    +0.000 HD
ENDBRANCH  23  24
ENDBRANCH   1  23
TORSDOF 7
ENDMDL
