MODEL 1
REMARK VINA RESULT:      -7.1      0.000      0.000
REMARK  Name = 
REMARK  7 active torsions:
REMARK  status: ('A' for Active; 'I' for Inactive)
REMARK    1  A    between atoms: C_1  and  C_2
REMARK    2  A    between atoms: C_2  and  C_3
REMARK    3  A    between atoms: C_2  and  C_4
REMARK    4  A    between atoms: C_4  and  C_5
REMARK    5  A    between atoms: C_4  and  N_6
REMARK    6  A    between atoms: N_6  and  C_7
REMARK    7  A    between atoms: C_8  and  C_9
REMARK                            x       y       z     vdW  Elec       q    Type
REMARK                         _______ _______ _______ _____ _____    ______ ____
ROOT
ATOM      1  C   UNL     1       3.486   5.162  18.583  0.00  0.00    +0.000 A 
ATOM      2  C   UNL     1       4.561   4.907  17.797  0.00  0.00    +0.000 A 
ATOM      3  C   UNL     1       4.556   3.606  17.034  0.00  0.00    +0.000 A 
ATOM      4 CL   UNL     1       5.865   3.208  15.969  0.00  0.00    +0.000 Cl
ATOM      5  N   UNL     1       3.624   2.707  17.085  0.00  0.00    +0.000 NA
ATOM      6  C   UNL     1       2.560   2.979  17.890  0.00  0.00    +0.000 A 
ATOM      7  N   UNL     1       1.512   2.229  18.134  0.00  0.00    +0.000 NA
ATOM      8  C   UNL     1       0.765   2.991  18.973  0.00  0.00    +0.000 A 
ATOM      9  N   UNL     1       1.261   4.189  19.269  0.00  0.00    +0.000 NA
ATOM     10  N   UNL     1       2.452   4.183  18.608  0.00  0.00    +0.000 N 
ENDROOT
BRANCH   2  11
ATOM     11  C   UNL     1       5.706   5.823  17.739  0.00  0.00    +0.000 A 
ATOM     12  C   UNL     1       6.728   5.732  18.688  0.00  0.00    +0.000 A 
ATOM     13  F   UNL     1       6.723   4.734  19.583  0.00  0.00    +0.000 F 
ATOM     14  C   UNL     1       7.738   6.685  18.751  0.00  0.00    +0.000 A 
ATOM     15  C   UNL     1       7.728   7.734  17.842  0.00  0.00    +0.000 A 
ATOM     16  F   UNL     1       8.664   8.687  17.929  0.00  0.00    +0.000 F 
ATOM     17  C   UNL     1       6.757   7.821  16.852  0.00  0.00    +0.000 A 
ATOM     18  C   UNL     1       5.756   6.858  16.804  0.00  0.00    +0.000 A 
ATOM     19  F   UNL     1       4.804   6.959  15.867  0.00  0.00    +0.000 F 
ENDBRANCH   2  11
BRANCH   1  20
ATOM     20  N   UNL     1       3.298   6.361  19.324  0.00  0.00    +0.000 N 
ATOM     21  H   UNL     1       3.237   6.130  20.314  0.00  0.00    +0.000 HD
BRANCH  20  22
ATOM     22  C   UNL     1       2.243   7.360  19.010  0.00  0.00    +0.000 C 
ATOM     23  C   UNL     1       2.714   8.342  17.932  0.00  0.00    +0.000 C 
BRANCH  22  25
ATOM     24  C   UNL     1       0.978   9.371  19.986  0.00  0.00    +0.000 C 
ATOM     25  C   UNL     1       1.822   8.127  20.306  0.00  0.00    +0.000 C 
ATOM     26  C   UNL     1       1.026   7.259  21.292  0.00  0.00    +0.000 C 
ENDBRANCH  22  25
ENDBRANCH  20  22
ENDBRANCH   1  20
TORSDOF 4
ENDMDL
MODEL 2
REMARK VINA RESULT:      -7.0      0.446      1.707
REMARK  Name = 
REMARK  7 active torsions:
REMARK  status: ('A' for Active; 'I' for Inactive)
REMARK    1  A    between atoms: C_1  and  C_2
REMARK    2  A    between atoms: C_2  and  C_3
REMARK    3  A    between atoms: C_2  and  C_4
REMARK    4  A    between atoms: C_4  and  C_5
REMARK    5  A    between atoms: C_4  and  N_6
REMARK    6  A    between atoms: N_6  and  C_7
REMARK    7  A    between atoms: C_8  and  C_9
REMARK                            x       y       z     vdW  Elec       q    Type
REMARK                         _______ _______ _______ _____ _____    ______ ____
ROOT
ATOM      1  C   UNL     1       3.231   5.130  18.923  0.00  0.00    +0.000 A 
ATOM      2  C   UNL     1       4.279   4.927  18.086  0.00  0.00    +0.000 A 
ATOM      3  C   UNL     1       4.310   3.619  17.335  0.00  0.00    +0.000 A 
ATOM      4 CL   UNL     1       5.584   3.284  16.208  0.00  0.00    +0.000 Cl
ATOM      5  N   UNL     1       3.434   2.669  17.441  0.00  0.00    +0.000 NA
ATOM      6  C   UNL     1       2.398   2.890  18.297  0.00  0.00    +0.000 A 
ATOM      7  N   UNL     1       1.408   2.085  18.600  0.00  0.00    +0.000 NA
ATOM      8  C   UNL     1       0.661   2.813  19.469  0.00  0.00    +0.000 A 
ATOM      9  N   UNL     1       1.103   4.041  19.729  0.00  0.00    +0.000 NA
ATOM     10  N   UNL     1       2.258   4.094  19.009  0.00  0.00    +0.000 N 
ENDROOT
BRANCH   2  11
ATOM     11  C   UNL     1       5.365   5.905  17.962  0.00  0.00    +0.000 A 
ATOM     12  C   UNL     1       5.344   6.853  16.935  0.00  0.00    +0.000 A 
ATOM     13  F   UNL     1       4.273   6.945  16.132  0.00  0.00    +0.000 F 
ATOM     14  C   UNL     1       6.432   7.683  16.699  0.00  0.00    +0.000 A 
ATOM     15  C   UNL     1       7.551   7.570  17.513  0.00  0.00    +0.000 A 
ATOM     16  F   UNL     1       8.627   8.326  17.259  0.00  0.00    +0.000 F 
ATOM     17  C   UNL     1       7.581   6.675  18.576  0.00  0.00    +0.000 A 
ATOM     18  C   UNL     1       6.482   5.854  18.797  0.00  0.00    +0.000 A 
ATOM     19  F   UNL     1       6.524   4.973  19.805  0.00  0.00    +0.000 F 
ENDBRANCH   2  11
BRANCH   1  20
ATOM     20  N   UNL     1       3.013   6.325  19.662  0.00  0.00    +0.000 N 
ATOM     21  H   UNL     1       2.934   6.091  20.650  0.00  0.00    +0.000 HD
BRANCH  20  22
ATOM     22  C   UNL     1       1.952   7.311  19.328  0.00  0.00    +0.000 C 
ATOM     23  C   UNL     1       2.339   8.148  18.105  0.00  0.00    +0.000 C 
BRANCH  22  25
ATOM     24  C   UNL     1       1.082   9.590  20.131  0.00  0.00    +0.000 C 
ATOM     25  C   UNL     1       1.666   8.233  20.558  0.00  0.00    +0.000 C 
ATOM     26  C   UNL     1       0.701   7.606  21.575  0.00  0.00    +0.000 C 
ENDBRANCH  22  25
ENDBRANCH  20  22
ENDBRANCH   1  20
TORSDOF 4
ENDMDL
MODEL 3
REMARK VINA RESULT:      -6.8      2.763      4.862
REMARK  Name = 
REMARK  7 active torsions:
REMARK  status: ('A' for Active; 'I' for Inactive)
REMARK    1  A    between atoms: C_1  and  C_2
REMARK    2  A    between atoms: C_2  and  C_3
REMARK    3  A    between atoms: C_2  and  C_4
REMARK    4  A    between atoms: C_4  and  C_5
REMARK    5  A    between atoms: C_4  and  N_6
REMARK    6  A    between atoms: N_6  and  C_7
REMARK    7  A    between atoms: C_8  and  C_9
REMARK                            x       y       z     vdW  Elec       q    Type
REMARK                         _______ _______ _______ _____ _____    ______ ____
ROOT
ATOM      1  C   UNL     1       4.003   5.394  17.943  0.00  0.00    +0.000 A 
ATOM      2  C   UNL     1       3.696   4.103  18.223  0.00  0.00    +0.000 A 
ATOM      3  C   UNL     1       4.187   3.059  17.251  0.00  0.00    +0.000 A 
ATOM      4 CL   UNL     1       3.886   1.376  17.544  0.00  0.00    +0.000 Cl
ATOM      5  N   UNL     1       4.855   3.295  16.165  0.00  0.00    +0.000 NA
ATOM      6  C   UNL     1       5.140   4.600  15.898  0.00  0.00    +0.000 A 
ATOM      7  N   UNL     1       5.770   5.099  14.862  0.00  0.00    +0.000 NA
ATOM      8  C   UNL     1       5.797   6.431  15.119  0.00  0.00    +0.000 A 
ATOM      9  N   UNL     1       5.236   6.815  16.263  0.00  0.00    +0.000 NA
ATOM     10  N   UNL     1       4.763   5.641  16.765  0.00  0.00    +0.000 N 
ENDROOT
BRANCH   2  11
ATOM     11  C   UNL     1       2.873   3.741  19.382  0.00  0.00    +0.000 A 
ATOM     12  C   UNL     1       3.472   3.242  20.541  0.00  0.00    +0.000 A 
ATOM     13  F   UNL     1       4.809   3.201  20.639  0.00  0.00    +0.000 F 
ATOM     14  C   UNL     1       2.708   2.744  21.589  0.00  0.00    +0.000 A 
ATOM     15  C   UNL     1       1.324   2.760  21.477  0.00  0.00    +0.000 A 
ATOM     16  F   UNL     1       0.580   2.232  22.456  0.00  0.00    +0.000 F 
ATOM     17  C   UNL     1       0.698   3.301  20.360  0.00  0.00    +0.000 A 
ATOM     18  C   UNL     1       1.480   3.795  19.323  0.00  0.00    +0.000 A 
ATOM     19  F   UNL     1       0.875   4.290  18.235  0.00  0.00    +0.000 F 
ENDBRANCH   2  11
BRANCH   1  20
ATOM     20  N   UNL     1       3.671   6.497  18.776  0.00  0.00    +0.000 N 
ATOM     21  H   UNL     1       3.812   6.229  19.749  0.00  0.00    +0.000 HD
BRANCH  20  22
ATOM     22  C   UNL     1       2.388   7.241  18.677  0.00  0.00    +0.000 C 
ATOM     23  C   UNL     1       2.467   8.342  17.616  0.00  0.00    +0.000 C 
BRANCH  22  25
ATOM     24  C   UNL     1       1.091   9.073  19.926  0.00  0.00    +0.000 C 
ATOM     25  C   UNL     1       2.004   7.844  20.068  0.00  0.00    +0.000 C 
ATOM     26  C   UNL     1       1.299   6.838  20.990  0.00  0.00    +0.000 C 
ENDBRANCH  22  25
ENDBRANCH  20  22
ENDBRANCH   1  20
TORSDOF 4
ENDMDL
MODEL 4
REMARK VINA RESULT:      -6.7      2.734      5.098
REMARK  Name = 
REMARK  7 active torsions:
REMARK  status: ('A' for Active; 'I' for Inactive)
REMARK    1  A    between atoms: C_1  and  C_2
REMARK    2  A    between atoms: C_2  and  C_3
REMARK    3  A    between atoms: C_2  and  C_4
REMARK    4  A    between atoms: C_4  and  C_5
REMARK    5  A    between atoms: C_4  and  N_6
REMARK    6  A    between atoms: N_6  and  C_7
REMARK    7  A    between atoms: C_8  and  C_9
REMARK                            x       y       z     vdW  Elec       q    Type
REMARK                         _______ _______ _______ _____ _____    ______ ____
ROOT
ATOM      1  C   UNL     1       3.970   5.351  18.096  0.00  0.00    +0.000 A 
ATOM      2  C   UNL     1       3.735   4.022  18.227  0.00  0.00    +0.000 A 
ATOM      3  C   UNL     1       4.308   3.120  17.163  0.00  0.00    +0.000 A 
ATOM      4 CL   UNL     1       4.101   1.401  17.265  0.00  0.00    +0.000 Cl
ATOM      5  N   UNL     1       4.984   3.510  16.128  0.00  0.00    +0.000 NA
ATOM      6  C   UNL     1       5.197   4.850  16.011  0.00  0.00    +0.000 A 
ATOM      7  N   UNL     1       5.820   5.494  15.053  0.00  0.00    +0.000 NA
ATOM      8  C   UNL     1       5.761   6.790  15.452  0.00  0.00    +0.000 A 
ATOM      9  N   UNL     1       5.154   7.015  16.614  0.00  0.00    +0.000 NA
ATOM     10  N   UNL     1       4.740   5.768  16.973  0.00  0.00    +0.000 N 
ENDROOT
BRANCH   2  11
ATOM     11  C   UNL     1       2.909   3.491  19.317  0.00  0.00    +0.000 A 
ATOM     12  C   UNL     1       1.520   3.633  19.280  0.00  0.00    +0.000 A 
ATOM     13  F   UNL     1       0.929   4.152  18.192  0.00  0.00    +0.000 F 
ATOM     14  C   UNL     1       0.731   3.283  20.369  0.00  0.00    +0.000 A 
ATOM     15  C   UNL     1       1.344   2.771  21.504  0.00  0.00    +0.000 A 
ATOM     16  F   UNL     1       0.600   2.483  22.579  0.00  0.00    +0.000 F 
ATOM     17  C   UNL     1       2.718   2.567  21.551  0.00  0.00    +0.000 A 
ATOM     18  C   UNL     1       3.490   2.921  20.451  0.00  0.00    +0.000 A 
ATOM     19  F   UNL     1       4.817   2.750  20.509  0.00  0.00    +0.000 F 
ENDBRANCH   2  11
BRANCH   1  20
ATOM     20  N   UNL     1       3.556   6.337  19.033  0.00  0.00    +0.000 N 
ATOM     21  H   UNL     1       3.571   5.930  19.967  0.00  0.00    +0.000 HD
BRANCH  20  22
ATOM     22  C   UNL     1       2.306   7.129  18.889  0.00  0.00    +0.000 C 
ATOM     23  C   UNL     1       2.459   8.212  17.817  0.00  0.00    +0.000 C 
BRANCH  22  25
ATOM     24  C   UNL     1       1.093   9.056  20.077  0.00  0.00    +0.000 C 
ATOM     25  C   UNL     1       1.908   7.765  20.260  0.00  0.00    +0.000 C 
ATOM     26  C   UNL     1       1.093   6.818  21.153  0.00  0.00    +0.000 C 
ENDBRANCH  22  25
ENDBRANCH  20  22
ENDBRANCH   1  20
TORSDOF 4
ENDMDL
MODEL 5
REMARK VINA RESULT:      -6.6      8.471     10.918
REMARK  Name = 
REMARK  7 active torsions:
REMARK  status: ('A' for Active; 'I' for Inactive)
REMARK    1  A    between atoms: C_1  and  C_2
REMARK    2  A    between atoms: C_2  and  C_3
REMARK    3  A    between atoms: C_2  and  C_4
REMARK    4  A    between atoms: C_4  and  C_5
REMARK    5  A    between atoms: C_4  and  N_6
REMARK    6  A    between atoms: N_6  and  C_7
REMARK    7  A    between atoms: C_8  and  C_9
REMARK                            x       y       z     vdW  Elec       q    Type
REMARK                         _______ _______ _______ _____ _____    ______ ____
ROOT
ATOM      1  C   UNL     1       9.106  15.251  18.823  0.00  0.00    +0.000 A 
ATOM      2  C   UNL     1       9.800  14.229  18.263  0.00  0.00    +0.000 A 
ATOM      3  C   UNL     1      10.860  14.595  17.255  0.00  0.00    +0.000 A 
ATOM      4 CL   UNL     1      11.832  13.364  16.515  0.00  0.00    +0.000 Cl
ATOM      5  N   UNL     1      11.147  15.798  16.867  0.00  0.00    +0.000 NA
ATOM      6  C   UNL     1      10.429  16.807  17.434  0.00  0.00    +0.000 A 
ATOM      7  N   UNL     1      10.506  18.094  17.194  0.00  0.00    +0.000 NA
ATOM      8  C   UNL     1       9.596  18.631  18.046  0.00  0.00    +0.000 A 
ATOM      9  N   UNL     1       8.952  17.769  18.829  0.00  0.00    +0.000 NA
ATOM     10  N   UNL     1       9.449  16.570  18.414  0.00  0.00    +0.000 N 
ENDROOT
BRANCH   2  11
ATOM     11  C   UNL     1       9.492  12.828  18.573  0.00  0.00    +0.000 A 
ATOM     12  C   UNL     1      10.138  12.184  19.631  0.00  0.00    +0.000 A 
ATOM     13  F   UNL     1      10.955  12.878  20.438  0.00  0.00    +0.000 F 
ATOM     14  C   UNL     1       9.985  10.820  19.846  0.00  0.00    +0.000 A 
ATOM     15  C   UNL     1       9.161  10.096  18.994  0.00  0.00    +0.000 A 
ATOM     16  F   UNL     1       9.049   8.772  19.158  0.00  0.00    +0.000 F 
ATOM     17  C   UNL     1       8.461  10.718  17.967  0.00  0.00    +0.000 A 
ATOM     18  C   UNL     1       8.627  12.083  17.770  0.00  0.00    +0.000 A 
ATOM     19  F   UNL     1       7.974  12.676  16.761  0.00  0.00    +0.000 F 
ENDBRANCH   2  11
BRANCH   1  20
ATOM     20  N   UNL     1       8.115  15.092  19.830  0.00  0.00    +0.000 N 
ATOM     21  H   UNL     1       8.387  14.325  20.442  0.00  0.00    +0.000 HD
BRANCH  20  22
ATOM     22  C   UNL     1       6.664  14.962  19.535  0.00  0.00    +0.000 C 
ATOM     23  C   UNL     1       6.375  15.214  18.052  0.00  0.00    +0.000 C 
BRANCH  22  25
ATOM     24  C   UNL     1       6.727  16.651  21.469  0.00  0.00    +0.000 C 
ATOM     25  C   UNL     1       5.840  15.944  20.431  0.00  0.00    +0.000 C 
ATOM     26  C   UNL     1       5.104  17.025  19.626  0.00  0.00    +0.000 C 
ENDBRANCH  22  25
ENDBRANCH  20  22
ENDBRANCH   1  20
TORSDOF 4
ENDMDL
MODEL 6
REMARK VINA RESULT:      -6.4      2.946      5.876
REMARK  Name = 
REMARK  7 active torsions:
REMARK  status: ('A' for Active; 'I' for Inactive)
REMARK    1  A    between atoms: C_1  and  C_2
REMARK    2  A    between atoms: C_2  and  C_3
REMARK    3  A    between atoms: C_2  and  C_4
REMARK    4  A    between atoms: C_4  and  C_5
REMARK    5  A    between atoms: C_4  and  N_6
REMARK    6  A    between atoms: N_6  and  C_7
REMARK    7  A    between atoms: C_8  and  C_9
REMARK                            x       y       z     vdW  Elec       q    Type
REMARK                         _______ _______ _______ _____ _____    ______ ____
ROOT
ATOM      1  C   UNL     1       3.064   7.003  17.897  0.00  0.00    +0.000 A 
ATOM      2  C   UNL     1       2.644   6.025  18.737  0.00  0.00    +0.000 A 
ATOM      3  C   UNL     1       1.721   6.438  19.856  0.00  0.00    +0.000 A 
ATOM      4 CL   UNL     1       1.092   5.254  20.957  0.00  0.00    +0.000 Cl
ATOM      5  N   UNL     1       1.317   7.647  20.093  0.00  0.00    +0.000 NA
ATOM      6  C   UNL     1       1.762   8.614  19.243  0.00  0.00    +0.000 A 
ATOM      7  N   UNL     1       1.525   9.903  19.283  0.00  0.00    +0.000 NA
ATOM      8  C   UNL     1       2.185  10.380  18.197  0.00  0.00    +0.000 A 
ATOM      9  N   UNL     1       2.818   9.475  17.455  0.00  0.00    +0.000 NA
ATOM     10  N   UNL     1       2.591   8.322  18.145  0.00  0.00    +0.000 N 
ENDROOT
BRANCH   2  11
ATOM     11  C   UNL     1       3.112   4.642  18.603  0.00  0.00    +0.000 A 
ATOM     12  C   UNL     1       2.351   3.707  17.897  0.00  0.00    +0.000 A 
ATOM     13  F   UNL     1       1.249   4.100  17.240  0.00  0.00    +0.000 F 
ATOM     14  C   UNL     1       2.690   2.359  17.891  0.00  0.00    +0.000 A 
ATOM     15  C   UNL     1       3.815   1.947  18.592  0.00  0.00    +0.000 A 
ATOM     16  F   UNL     1       4.119   0.645  18.639  0.00  0.00    +0.000 F 
ATOM     17  C   UNL     1       4.623   2.861  19.259  0.00  0.00    +0.000 A 
ATOM     18  C   UNL     1       4.268   4.204  19.252  0.00  0.00    +0.000 A 
ATOM     19  F   UNL     1       5.033   5.080  19.919  0.00  0.00    +0.000 F 
ENDBRANCH   2  11
BRANCH   1  20
ATOM     20  N   UNL     1       3.888   6.784  16.758  0.00  0.00    +0.000 N 
ATOM     21  H   UNL     1       3.362   6.248  16.070  0.00  0.00    +0.000 HD
BRANCH  20  22
ATOM     22  C   UNL     1       5.262   6.224  16.838  0.00  0.00    +0.000 C 
ATOM     23  C   UNL     1       6.293   7.323  17.110  0.00  0.00    +0.000 C 
BRANCH  22  25
ATOM     24  C   UNL     1       7.129   5.307  15.330  0.00  0.00    +0.000 C 
ATOM     25  C   UNL     1       5.610   5.457  15.520  0.00  0.00    +0.000 C 
ATOM     26  C   UNL     1       4.988   4.055  15.453  0.00  0.00    +0.000 C 
ENDBRANCH  22  25
ENDBRANCH  20  22
ENDBRANCH   1  20
TORSDOF 4
ENDMDL
MODEL 7
REMARK VINA RESULT:      -6.4      0.685      1.370
REMARK  Name = 
REMARK  7 active torsions:
REMARK  status: ('A' for Active; 'I' for Inactive)
REMARK    1  A    between atoms: C_1  and  C_2
REMARK    2  A    between atoms: C_2  and  C_3
REMARK    3  A    between atoms: C_2  and  C_4
REMARK    4  A    between atoms: C_4  and  C_5
REMARK    5  A    between atoms: C_4  and  N_6
REMARK    6  A    between atoms: N_6  and  C_7
REMARK    7  A    between atoms: C_8  and  C_9
REMARK                            x       y       z     vdW  Elec       q    Type
REMARK                         _______ _______ _______ _____ _____    ______ ____
ROOT
ATOM      1  C   UNL     1       3.671   4.913  18.863  0.00  0.00    +0.000 A 
ATOM      2  C   UNL     1       4.646   4.814  17.926  0.00  0.00    +0.000 A 
ATOM      3  C   UNL     1       4.510   3.704  16.914  0.00  0.00    +0.000 A 
ATOM      4 CL   UNL     1       5.682   3.521  15.649  0.00  0.00    +0.000 Cl
ATOM      5  N   UNL     1       3.555   2.828  16.881  0.00  0.00    +0.000 NA
ATOM      6  C   UNL     1       2.594   2.940  17.839  0.00  0.00    +0.000 A 
ATOM      7  N   UNL     1       1.550   2.171  18.037  0.00  0.00    +0.000 NA
ATOM      8  C   UNL     1       0.926   2.750  19.095  0.00  0.00    +0.000 A 
ATOM      9  N   UNL     1       1.496   3.851  19.576  0.00  0.00    +0.000 NA
ATOM     10  N   UNL     1       2.609   3.967  18.800  0.00  0.00    +0.000 N 
ENDROOT
BRANCH   2  11
ATOM     11  C   UNL     1       5.812   5.705  17.932  0.00  0.00    +0.000 A 
ATOM     12  C   UNL     1       6.820   5.537  18.884  0.00  0.00    +0.000 A 
ATOM     13  F   UNL     1       6.782   4.490  19.722  0.00  0.00    +0.000 F 
ATOM     14  C   UNL     1       7.851   6.460  19.012  0.00  0.00    +0.000 A 
ATOM     15  C   UNL     1       7.876   7.559  18.164  0.00  0.00    +0.000 A 
ATOM     16  F   UNL     1       8.832   8.483  18.315  0.00  0.00    +0.000 F 
ATOM     17  C   UNL     1       6.918   7.724  17.171  0.00  0.00    +0.000 A 
ATOM     18  C   UNL     1       5.897   6.790  17.058  0.00  0.00    +0.000 A 
ATOM     19  F   UNL     1       4.958   6.966  16.118  0.00  0.00    +0.000 F 
ENDBRANCH   2  11
BRANCH   1  20
ATOM     20  N   UNL     1       3.609   5.931  19.854  0.00  0.00    +0.000 N 
ATOM     21  H   UNL     1       3.372   5.506  20.748  0.00  0.00    +0.000 HD
BRANCH  20  22
ATOM     22  C   UNL     1       2.809   7.175  19.700  0.00  0.00    +0.000 C 
ATOM     23  C   UNL     1       1.484   7.078  20.462  0.00  0.00    +0.000 C 
BRANCH  22  25
ATOM     24  C   UNL     1       1.212   6.889  17.709  0.00  0.00    +0.000 C 
ATOM     25  C   UNL     1       2.553   7.470  18.186  0.00  0.00    +0.000 C 
ATOM     26  C   UNL     1       2.562   8.968  17.851  0.00  0.00    +0.000 C 
ENDBRANCH  22  25
ENDBRANCH  20  22
ENDBRANCH   1  20
TORSDOF 4
ENDMDL
MODEL 8
REMARK VINA RESULT:      -6.4      0.935      2.246
REMARK  Name = 
REMARK  7 active torsions:
REMARK  status: ('A' for Active; 'I' for Inactive)
REMARK    1  A    between atoms: C_1  and  C_2
REMARK    2  A    between atoms: C_2  and  C_3
REMARK    3  A    between atoms: C_2  and  C_4
REMARK    4  A    between atoms: C_4  and  C_5
REMARK    5  A    between atoms: C_4  and  N_6
REMARK    6  A    between atoms: N_6  and  C_7
REMARK    7  A    between atoms: C_8  and  C_9
REMARK                            x       y       z     vdW  Elec       q    Type
REMARK                         _______ _______ _______ _____ _____    ______ ____
ROOT
ATOM      1  C   UNL     1       3.979   4.707  18.963  0.00  0.00    +0.000 A 
ATOM      2  C   UNL     1       4.933   4.819  18.006  0.00  0.00    +0.000 A 
ATOM      3  C   UNL     1       5.003   3.716  16.979  0.00  0.00    +0.000 A 
ATOM      4 CL   UNL     1       6.160   3.790  15.689  0.00  0.00    +0.000 Cl
ATOM      5  N   UNL     1       4.245   2.665  16.950  0.00  0.00    +0.000 NA
ATOM      6  C   UNL     1       3.302   2.568  17.928  0.00  0.00    +0.000 A 
ATOM      7  N   UNL     1       2.441   1.600  18.134  0.00  0.00    +0.000 NA
ATOM      8  C   UNL     1       1.736   2.028  19.212  0.00  0.00    +0.000 A 
ATOM      9  N   UNL     1       2.082   3.216  19.700  0.00  0.00    +0.000 NA
ATOM     10  N   UNL     1       3.130   3.565  18.904  0.00  0.00    +0.000 N 
ENDROOT
BRANCH   2  11
ATOM     11  C   UNL     1       5.894   5.928  18.003  0.00  0.00    +0.000 A 
ATOM     12  C   UNL     1       5.768   6.965  17.075  0.00  0.00    +0.000 A 
ATOM     13  F   UNL     1       4.702   7.009  16.262  0.00  0.00    +0.000 F 
ATOM     14  C   UNL     1       6.750   7.939  16.947  0.00  0.00    +0.000 A 
ATOM     15  C   UNL     1       7.867   7.879  17.770  0.00  0.00    +0.000 A 
ATOM     16  F   UNL     1       8.845   8.779  17.617  0.00  0.00    +0.000 F 
ATOM     17  C   UNL     1       7.994   6.891  18.740  0.00  0.00    +0.000 A 
ATOM     18  C   UNL     1       7.000   5.927  18.854  0.00  0.00    +0.000 A 
ATOM     19  F   UNL     1       7.139   4.959  19.770  0.00  0.00    +0.000 F 
ENDBRANCH   2  11
BRANCH   1  20
ATOM     20  N   UNL     1       3.733   5.679  19.970  0.00  0.00    +0.000 N 
ATOM     21  H   UNL     1       3.550   5.202  20.851  0.00  0.00    +0.000 HD
BRANCH  20  22
ATOM     22  C   UNL     1       2.746   6.781  19.821  0.00  0.00    +0.000 C 
ATOM     23  C   UNL     1       1.441   6.457  20.554  0.00  0.00    +0.000 C 
BRANCH  22  25
ATOM     24  C   UNL     1       1.366   6.151  17.749  0.00  0.00    +0.000 C 
ATOM     25  C   UNL     1       2.473   7.060  18.307  0.00  0.00    +0.000 C 
ATOM     26  C   UNL     1       2.074   8.516  18.022  0.00  0.00    +0.000 C 
ENDBRANCH  22  25
ENDBRANCH  20  22
ENDBRANCH   1  20
TORSDOF 4
ENDMDL
MODEL 9
REMARK VINA RESULT:      -6.3      8.397     10.881
REMARK  Name = 
REMARK  7 active torsions:
REMARK  status: ('A' for Active; 'I' for Inactive)
REMARK    1  A    between atoms: C_1  and  C_2
REMARK    2  A    between atoms: C_2  and  C_3
REMARK    3  A    between atoms: C_2  and  C_4
REMARK    4  A    between atoms: C_4  and  C_5
REMARK    5  A    between atoms: C_4  and  N_6
REMARK    6  A    between atoms: N_6  and  C_7
REMARK    7  A    between atoms: C_8  and  C_9
REMARK                            x       y       z     vdW  Elec       q    Type
REMARK                         _______ _______ _______ _____ _____    ______ ____
ROOT
ATOM      1  C   UNL     1       8.821  15.160  18.750  0.00  0.00    +0.000 A 
ATOM      2  C   UNL     1       9.612  14.171  18.265  0.00  0.00    +0.000 A 
ATOM      3  C   UNL     1      10.773  14.591  17.397  0.00  0.00    +0.000 A 
ATOM      4 CL   UNL     1      11.869  13.405  16.765  0.00  0.00    +0.000 Cl
ATOM      5  N   UNL     1      11.061  15.809  17.062  0.00  0.00    +0.000 NA
ATOM      6  C   UNL     1      10.245  16.784  17.551  0.00  0.00    +0.000 A 
ATOM      7  N   UNL     1      10.304  18.076  17.338  0.00  0.00    +0.000 NA
ATOM      8  C   UNL     1       9.279  18.567  18.082  0.00  0.00    +0.000 A 
ATOM      9  N   UNL     1       8.577  17.671  18.769  0.00  0.00    +0.000 NA
ATOM     10  N   UNL     1       9.163  16.497  18.402  0.00  0.00    +0.000 N 
ENDROOT
BRANCH   2  11
ATOM     11  C   UNL     1       9.319  12.756  18.518  0.00  0.00    +0.000 A 
ATOM     12  C   UNL     1       9.972  12.077  19.549  0.00  0.00    +0.000 A 
ATOM     13  F   UNL     1      10.781  12.746  20.384  0.00  0.00    +0.000 F 
ATOM     14  C   UNL     1       9.833  10.703  19.708  0.00  0.00    +0.000 A 
ATOM     15  C   UNL     1       9.017  10.006  18.827  0.00  0.00    +0.000 A 
ATOM     16  F   UNL     1       8.920   8.675  18.937  0.00  0.00    +0.000 F 
ATOM     17  C   UNL     1       8.312  10.662  17.826  0.00  0.00    +0.000 A 
ATOM     18  C   UNL     1       8.463  12.036  17.684  0.00  0.00    +0.000 A 
ATOM     19  F   UNL     1       7.803  12.662  16.700  0.00  0.00    +0.000 F 
ENDBRANCH   2  11
BRANCH   1  20
ATOM     20  N   UNL     1       7.722  14.951  19.628  0.00  0.00    +0.000 N 
ATOM     21  H   UNL     1       6.927  15.493  19.295  0.00  0.00    +0.000 HD
BRANCH  20  22
ATOM     22  C   UNL     1       7.811  15.109  21.103  0.00  0.00    +0.000 C 
ATOM     23  C   UNL     1       7.822  13.748  21.806  0.00  0.00    +0.000 C 
BRANCH  22  25
ATOM     24  C   UNL     1       7.106  17.376  22.083  0.00  0.00    +0.000 C 
ATOM     25  C   UNL     1       6.628  15.988  21.625  0.00  0.00    +0.000 C 
ATOM     26  C   UNL     1       5.520  16.193  20.583  0.00  0.00    +0.000 C 
ENDBRANCH  22  25
ENDBRANCH  20  22
ENDBRANCH   1  20
TORSDOF 4
ENDMDL
