MODEL 1
REMARK VINA RESULT:      -6.9      0.000      0.000
REMARK  Name = 
REMARK  7 active torsions:
REMARK  status: ('A' for Active; 'I' for Inactive)
REMARK    1  A    between atoms: C_1  and  C_2
REMARK    2  A    between atoms: C_2  and  O_3
REMARK    3  A    between atoms: O_3  and  C_4
REMARK    4  A    between atoms: C_4  and  C_6
REMARK    5  A    between atoms: N_8  and  S_9
REMARK    6  A    between atoms: S_9  and  C_12
REMARK    7  A    between atoms: C_22  and  C_23
REMARK                            x       y       z     vdW  Elec       q    Type
REMARK                         _______ _______ _______ _____ _____    ______ ____
ROOT
ATOM      1  C   UNL     1       3.568   5.429  18.415  0.00  0.00    +0.000 C 
ATOM      2  C   UNL     1       4.460   6.004  17.274  0.00  0.00    +0.000 C 
ATOM      3  N   UNL     1       5.483   5.021  16.791  0.00  0.00    +0.000 NA
ATOM      4  C   UNL     1       4.821   3.758  16.362  0.00  0.00    +0.000 C 
ATOM      5  C   UNL     1       3.990   3.151  17.496  0.00  0.00    +0.000 C 
ATOM      6  N   UNL     1       3.003   4.097  18.046  0.00  0.00    +0.000 N 
ATOM      7  C   UNL     1       1.880   3.652  18.738  0.00  0.00    +0.000 C 
ATOM      8  C   UNL     1       1.588   2.171  18.786  0.00  0.00    +0.000 C 
ATOM      9  O   UNL     1       1.078   4.431  19.249  0.00  0.00    +0.000 OA
ENDROOT
BRANCH   3  10
ATOM     10  S   UNL     1       6.894   4.847  17.732  0.00  0.00    +0.000 S 
ATOM     11  O   UNL     1       6.513   4.286  19.007  0.00  0.00    +0.000 OA
ATOM     12  O   UNL     1       7.912   4.232  16.913  0.00  0.00    +0.000 OA
BRANCH  10  13
ATOM     13  C   UNL     1       7.404   6.531  17.996  0.00  0.00    +0.000 A 
ATOM     14  C   UNL     1       8.306   6.844  19.022  0.00  0.00    +0.000 A 
ATOM     15  C   UNL     1       8.783   8.152  19.138  0.00  0.00    +0.000 A 
ATOM     16  C   UNL     1       8.360   9.124  18.235  0.00  0.00    +0.000 A 
ATOM     17  F   UNL     1       8.835  10.372  18.341  0.00  0.00    +0.000 F 
ATOM     18  C   UNL     1       7.464   8.817  17.215  0.00  0.00    +0.000 A 
ATOM     19  C   UNL     1       6.983   7.513  17.091  0.00  0.00    +0.000 A 
ENDBRANCH  10  13
ENDBRANCH   3  10
BRANCH   1  20
ATOM     20  C   UNL     1       2.656   6.569  18.903  0.00  0.00    +0.000 C 
ATOM     21  O   UNL     1       2.516   6.860  20.087  0.00  0.00    +0.000 OA
BRANCH  20  22
ATOM     22  O   UNL     1       2.108   7.270  17.868  0.00  0.00    +0.000 OA
BRANCH  22  24
ATOM     23  C   UNL     1       1.009   9.425  18.047  0.00  0.00    +0.000 C 
ATOM     24  C   UNL     1       2.333   8.688  17.914  0.00  0.00    +0.000 C 
ENDBRANCH  22  24
ENDBRANCH  20  22
ENDBRANCH   1  20
TORSDOF 5
ENDMDL
MODEL 2
REMARK VINA RESULT:      -6.8      0.169      1.006
REMARK  Name = 
REMARK  7 active torsions:
REMARK  status: ('A' for Active; 'I' for Inactive)
REMARK    1  A    between atoms: C_1  and  C_2
REMARK    2  A    between atoms: C_2  and  O_3
REMARK    3  A    between atoms: O_3  and  C_4
REMARK    4  A    between atoms: C_4  and  C_6
REMARK    5  A    between atoms: N_8  and  S_9
REMARK    6  A    between atoms: S_9  and  C_12
REMARK    7  A    between atoms: C_22  and  C_23
REMARK                            x       y       z     vdW  Elec       q    Type
REMARK                         _______ _______ _______ _____ _____    ______ ____
ROOT
ATOM      1  C   UNL     1       3.625   5.475  18.432  0.00  0.00    +0.000 C 
ATOM      2  C   UNL     1       4.544   6.089  17.334  0.00  0.00    +0.000 C 
ATOM      3  N   UNL     1       5.606   5.136  16.874  0.00  0.00    +0.000 NA
ATOM      4  C   UNL     1       4.988   3.866  16.402  0.00  0.00    +0.000 C 
ATOM      5  C   UNL     1       4.131   3.223  17.495  0.00  0.00    +0.000 C 
ATOM      6  N   UNL     1       3.104   4.138  18.023  0.00  0.00    +0.000 N 
ATOM      7  C   UNL     1       1.967   3.657  18.667  0.00  0.00    +0.000 C 
ATOM      8  C   UNL     1       1.706   2.169  18.682  0.00  0.00    +0.000 C 
ATOM      9  O   UNL     1       1.129   4.410  19.160  0.00  0.00    +0.000 OA
ENDROOT
BRANCH   3  10
ATOM     10  S   UNL     1       6.985   4.979  17.864  0.00  0.00    +0.000 S 
ATOM     11  O   UNL     1       6.546   4.576  19.179  0.00  0.00    +0.000 OA
ATOM     12  O   UNL     1       7.980   4.222  17.138  0.00  0.00    +0.000 OA
BRANCH  10  13
ATOM     13  C   UNL     1       7.593   6.648  17.966  0.00  0.00    +0.000 A 
ATOM     14  C   UNL     1       7.142   7.621  17.064  0.00  0.00    +0.000 A 
ATOM     15  C   UNL     1       7.541   8.949  17.234  0.00  0.00    +0.000 A 
ATOM     16  C   UNL     1       8.376   9.288  18.296  0.00  0.00    +0.000 A 
ATOM     17  F   UNL     1       8.741  10.566  18.464  0.00  0.00    +0.000 F 
ATOM     18  C   UNL     1       8.826   8.324  19.194  0.00  0.00    +0.000 A 
ATOM     19  C   UNL     1       8.432   6.996  19.032  0.00  0.00    +0.000 A 
ENDBRANCH  10  13
ENDBRANCH   3  10
BRANCH   1  20
ATOM     20  C   UNL     1       2.670   6.588  18.904  0.00  0.00    +0.000 C 
ATOM     21  O   UNL     1       2.481   6.858  20.086  0.00  0.00    +0.000 OA
BRANCH  20  22
ATOM     22  O   UNL     1       2.143   7.292  17.860  0.00  0.00    +0.000 OA
BRANCH  22  24
ATOM     23  C   UNL     1       0.992   9.418  18.049  0.00  0.00    +0.000 C 
ATOM     24  C   UNL     1       2.335   8.714  17.934  0.00  0.00    +0.000 C 
ENDBRANCH  22  24
ENDBRANCH  20  22
ENDBRANCH   1  20
TORSDOF 5
ENDMDL
MODEL 3
REMARK VINA RESULT:      -6.3      3.382      5.104
REMARK  Name = 
REMARK  7 active torsions:
REMARK  status: ('A' for Active; 'I' for Inactive)
REMARK    1  A    between atoms: C_1  and  C_2
REMARK    2  A    between atoms: C_2  and  O_3
REMARK    3  A    between atoms: O_3  and  C_4
REMARK    4  A    between atoms: C_4  and  C_6
REMARK    5  A    between atoms: N_8  and  S_9
REMARK    6  A    between atoms: S_9  and  C_12
REMARK    7  A    between atoms: C_22  and  C_23
REMARK                            x       y       z     vdW  Elec       q    Type
REMARK                         _______ _______ _______ _____ _____    ______ ____
ROOT
ATOM      1  C   UNL     1       3.798   4.232  17.791  0.00  0.00    +0.000 C 
ATOM      2  C   UNL     1       5.298   3.906  17.524  0.00  0.00    +0.000 C 
ATOM      3  N   UNL     1       6.186   5.102  17.698  0.00  0.00    +0.000 NA
ATOM      4  C   UNL     1       6.002   5.686  19.055  0.00  0.00    +0.000 C 
ATOM      5  C   UNL     1       4.541   6.066  19.306  0.00  0.00    +0.000 C 
ATOM      6  N   UNL     1       3.617   4.938  19.094  0.00  0.00    +0.000 N 
ATOM      7  C   UNL     1       2.351   4.919  19.674  0.00  0.00    +0.000 C 
ATOM      8  C   UNL     1       1.983   5.997  20.666  0.00  0.00    +0.000 C 
ATOM      9  O   UNL     1       1.550   4.010  19.462  0.00  0.00    +0.000 OA
ENDROOT
BRANCH   3  10
ATOM     10  S   UNL     1       6.252   6.211  16.405  0.00  0.00    +0.000 S 
ATOM     11  O   UNL     1       4.997   6.923  16.363  0.00  0.00    +0.000 OA
ATOM     12  O   UNL     1       7.513   6.913  16.474  0.00  0.00    +0.000 OA
BRANCH  10  13
ATOM     13  C   UNL     1       6.340   5.152  14.978  0.00  0.00    +0.000 A 
ATOM     14  C   UNL     1       5.216   4.419  14.571  0.00  0.00    +0.000 A 
ATOM     15  C   UNL     1       5.271   3.686  13.383  0.00  0.00    +0.000 A 
ATOM     16  C   UNL     1       6.436   3.695  12.620  0.00  0.00    +0.000 A 
ATOM     17  F   UNL     1       6.476   3.004  11.473  0.00  0.00    +0.000 F 
ATOM     18  C   UNL     1       7.554   4.420  13.021  0.00  0.00    +0.000 A 
ATOM     19  C   UNL     1       7.508   5.156  14.206  0.00  0.00    +0.000 A 
ENDBRANCH  10  13
ENDBRANCH   3  10
BRANCH   1  20
ATOM     20  C   UNL     1       2.988   2.965  17.456  0.00  0.00    +0.000 C 
ATOM     21  O   UNL     1       1.919   2.989  16.855  0.00  0.00    +0.000 OA
BRANCH  20  22
ATOM     22  O   UNL     1       3.644   1.824  17.817  0.00  0.00    +0.000 OA
BRANCH  22  24
ATOM     23  C   UNL     1       4.453   1.688  20.100  0.00  0.00    +0.000 C 
ATOM     24  C   UNL     1       3.331   1.340  19.133  0.00  0.00    +0.000 C 
ENDBRANCH  22  24
ENDBRANCH  20  22
ENDBRANCH   1  20
TORSDOF 5
ENDMDL
MODEL 4
REMARK VINA RESULT:      -6.3      2.517      5.444
REMARK  Name = 
REMARK  7 active torsions:
REMARK  status: ('A' for Active; 'I' for Inactive)
REMARK    1  A    between atoms: C_1  and  C_2
REMARK    2  A    between atoms: C_2  and  O_3
REMARK    3  A    between atoms: O_3  and  C_4
REMARK    4  A    between atoms: C_4  and  C_6
REMARK    5  A    between atoms: N_8  and  S_9
REMARK    6  A    between atoms: S_9  and  C_12
REMARK    7  A    between atoms: C_22  and  C_23
REMARK                            x       y       z     vdW  Elec       q    Type
REMARK                         _______ _______ _______ _____ _____    ______ ____
ROOT
ATOM      1  C   UNL     1       4.990   5.724  17.337  0.00  0.00    +0.000 C 
ATOM      2  C   UNL     1       4.750   5.466  18.854  0.00  0.00    +0.000 C 
ATOM      3  N   UNL     1       3.845   4.297  19.103  0.00  0.00    +0.000 NA
ATOM      4  C   UNL     1       4.381   3.079  18.434  0.00  0.00    +0.000 C 
ATOM      5  C   UNL     1       4.564   3.303  16.931  0.00  0.00    +0.000 C 
ATOM      6  N   UNL     1       5.403   4.476  16.629  0.00  0.00    +0.000 N 
ATOM      7  C   UNL     1       6.054   4.606  15.406  0.00  0.00    +0.000 C 
ATOM      8  C   UNL     1       6.028   3.450  14.435  0.00  0.00    +0.000 C 
ATOM      9  O   UNL     1       6.713   5.605  15.120  0.00  0.00    +0.000 OA
ENDROOT
BRANCH   3  10
ATOM     10  S   UNL     1       2.170   4.567  18.939  0.00  0.00    +0.000 S 
ATOM     11  O   UNL     1       1.814   4.342  17.558  0.00  0.00    +0.000 OA
ATOM     12  O   UNL     1       1.492   3.878  20.013  0.00  0.00    +0.000 OA
BRANCH  10  13
ATOM     13  C   UNL     1       2.014   6.307  19.276  0.00  0.00    +0.000 A 
ATOM     14  C   UNL     1       2.100   7.240  18.235  0.00  0.00    +0.000 A 
ATOM     15  C   UNL     1       1.860   8.590  18.503  0.00  0.00    +0.000 A 
ATOM     16  C   UNL     1       1.535   8.990  19.797  0.00  0.00    +0.000 A 
ATOM     17  F   UNL     1       1.288  10.283  20.044  0.00  0.00    +0.000 F 
ATOM     18  C   UNL     1       1.449   8.066  20.835  0.00  0.00    +0.000 A 
ATOM     19  C   UNL     1       1.687   6.715  20.576  0.00  0.00    +0.000 A 
ENDBRANCH  10  13
ENDBRANCH   3  10
BRANCH   1  20
ATOM     20  C   UNL     1       5.823   7.015  17.218  0.00  0.00    +0.000 C 
ATOM     21  O   UNL     1       5.496   7.964  16.512  0.00  0.00    +0.000 OA
BRANCH  20  22
ATOM     22  O   UNL     1       6.898   7.013  18.058  0.00  0.00    +0.000 OA
BRANCH  22  24
ATOM     23  C   UNL     1       8.274   9.006  18.198  0.00  0.00    +0.000 C 
ATOM     24  C   UNL     1       8.073   7.652  17.534  0.00  0.00    +0.000 C 
ENDBRANCH  22  24
ENDBRANCH  20  22
ENDBRANCH   1  20
TORSDOF 5
ENDMDL
MODEL 5
REMARK VINA RESULT:      -6.3      1.416      1.855
REMARK  Name = 
REMARK  7 active torsions:
REMARK  status: ('A' for Active; 'I' for Inactive)
REMARK    1  A    between atoms: C_1  and  C_2
REMARK    2  A    between atoms: C_2  and  O_3
REMARK    3  A    between atoms: O_3  and  C_4
REMARK    4  A    between atoms: C_4  and  C_6
REMARK    5  A    between atoms: N_8  and  S_9
REMARK    6  A    between atoms: S_9  and  C_12
REMARK    7  A    between atoms: C_22  and  C_23
REMARK                            x       y       z     vdW  Elec       q    Type
REMARK                         _______ _______ _______ _____ _____    ______ ____
ROOT
ATOM      1  C   UNL     1       2.977   4.858  19.338  0.00  0.00    +0.000 C 
ATOM      2  C   UNL     1       3.692   5.874  18.397  0.00  0.00    +0.000 C 
ATOM      3  N   UNL     1       4.444   5.201  17.288  0.00  0.00    +0.000 NA
ATOM      4  C   UNL     1       3.534   4.311  16.516  0.00  0.00    +0.000 C 
ATOM      5  C   UNL     1       2.873   3.269  17.421  0.00  0.00    +0.000 C 
ATOM      6  N   UNL     1       2.164   3.875  18.562  0.00  0.00    +0.000 N 
ATOM      7  C   UNL     1       1.153   3.193  19.233  0.00  0.00    +0.000 C 
ATOM      8  C   UNL     1       0.667   1.874  18.681  0.00  0.00    +0.000 C 
ATOM      9  O   UNL     1       0.591   3.666  20.220  0.00  0.00    +0.000 OA
ENDROOT
BRANCH   3  10
ATOM     10  S   UNL     1       5.977   4.560  17.671  0.00  0.00    +0.000 S 
ATOM     11  O   UNL     1       5.873   3.886  18.944  0.00  0.00    +0.000 OA
ATOM     12  O   UNL     1       6.490   3.884  16.502  0.00  0.00    +0.000 OA
BRANCH  10  13
ATOM     13  C   UNL     1       6.973   6.018  17.892  0.00  0.00    +0.000 A 
ATOM     14  C   UNL     1       6.794   7.129  17.058  0.00  0.00    +0.000 A 
ATOM     15  C   UNL     1       7.503   8.304  17.322  0.00  0.00    +0.000 A 
ATOM     16  C   UNL     1       8.373   8.356  18.408  0.00  0.00    +0.000 A 
ATOM     17  F   UNL     1       9.036   9.491  18.666  0.00  0.00    +0.000 F 
ATOM     18  C   UNL     1       8.554   7.253  19.238  0.00  0.00    +0.000 A 
ATOM     19  C   UNL     1       7.849   6.076  18.983  0.00  0.00    +0.000 A 
ENDBRANCH  10  13
ENDBRANCH   3  10
BRANCH   1  20
ATOM     20  C   UNL     1       2.356   5.664  20.494  0.00  0.00    +0.000 C 
ATOM     21  O   UNL     1       2.344   5.272  21.657  0.00  0.00    +0.000 OA
BRANCH  20  22
ATOM     22  O   UNL     1       1.918   6.891  20.090  0.00  0.00    +0.000 OA
BRANCH  22  24
ATOM     23  C   UNL     1       1.439   8.796  21.514  0.00  0.00    +0.000 C 
ATOM     24  C   UNL     1       0.922   7.485  20.939  0.00  0.00    +0.000 C 
ENDBRANCH  22  24
ENDBRANCH  20  22
ENDBRANCH   1  20
TORSDOF 5
ENDMDL
MODEL 6
REMARK VINA RESULT:      -6.2      3.174      6.068
REMARK  Name = 
REMARK  7 active torsions:
REMARK  status: ('A' for Active; 'I' for Inactive)
REMARK    1  A    between atoms: C_1  and  C_2
REMARK    2  A    between atoms: C_2  and  O_3
REMARK    3  A    between atoms: O_3  and  C_4
REMARK    4  A    between atoms: C_4  and  C_6
REMARK    5  A    between atoms: N_8  and  S_9
REMARK    6  A    between atoms: S_9  and  C_12
REMARK    7  A    between atoms: C_22  and  C_23
REMARK                            x       y       z     vdW  Elec       q    Type
REMARK                         _______ _______ _______ _____ _____    ______ ____
ROOT
ATOM      1  C   UNL     1       3.900   4.768  18.102  0.00  0.00    +0.000 C 
ATOM      2  C   UNL     1       4.251   5.987  19.007  0.00  0.00    +0.000 C 
ATOM      3  N   UNL     1       3.033   6.677  19.542  0.00  0.00    +0.000 NA
ATOM      4  C   UNL     1       2.169   5.706  20.269  0.00  0.00    +0.000 C 
ATOM      5  C   UNL     1       1.767   4.535  19.370  0.00  0.00    +0.000 C 
ATOM      6  N   UNL     1       2.929   3.853  18.772  0.00  0.00    +0.000 N 
ATOM      7  C   UNL     1       2.841   2.544  18.307  0.00  0.00    +0.000 C 
ATOM      8  C   UNL     1       1.579   1.757  18.567  0.00  0.00    +0.000 C 
ATOM      9  O   UNL     1       3.787   1.982  17.757  0.00  0.00    +0.000 OA
ENDROOT
BRANCH   3  10
ATOM     10  S   UNL     1       2.232   7.756  18.493  0.00  0.00    +0.000 S 
ATOM     11  O   UNL     1       3.232   8.568  17.840  0.00  0.00    +0.000 OA
ATOM     12  O   UNL     1       1.255   7.009  17.734  0.00  0.00    +0.000 OA
BRANCH  10  13
ATOM     13  C   UNL     1       1.318   8.794  19.613  0.00  0.00    +0.000 A 
ATOM     14  C   UNL     1       0.487   9.808  19.119  0.00  0.00    +0.000 A 
ATOM     15  C   UNL     1      -0.310  10.533  20.007  0.00  0.00    +0.000 A 
ATOM     16  C   UNL     1      -0.271  10.238  21.368  0.00  0.00    +0.000 A 
ATOM     17  F   UNL     1      -1.052  10.926  22.213  0.00  0.00    +0.000 F 
ATOM     18  C   UNL     1       0.553   9.232  21.863  0.00  0.00    +0.000 A 
ATOM     19  C   UNL     1       1.352   8.502  20.982  0.00  0.00    +0.000 A 
ENDBRANCH  10  13
ENDBRANCH   3  10
BRANCH   1  20
ATOM     20  C   UNL     1       5.222   4.233  17.520  0.00  0.00    +0.000 C 
ATOM     21  O   UNL     1       5.379   3.976  16.330  0.00  0.00    +0.000 OA
BRANCH  20  22
ATOM     22  O   UNL     1       6.211   4.176  18.457  0.00  0.00    +0.000 OA
BRANCH  22  24
ATOM     23  C   UNL     1       7.907   5.828  18.990  0.00  0.00    +0.000 C 
ATOM     24  C   UNL     1       7.472   4.723  18.038  0.00  0.00    +0.000 C 
ENDBRANCH  22  24
ENDBRANCH  20  22
ENDBRANCH   1  20
TORSDOF 5
ENDMDL
MODEL 7
REMARK VINA RESULT:      -6.2      3.111      5.896
REMARK  Name = 
REMARK  7 active torsions:
REMARK  status: ('A' for Active; 'I' for Inactive)
REMARK    1  A    between atoms: C_1  and  C_2
REMARK    2  A    between atoms: C_2  and  O_3
REMARK    3  A    between atoms: O_3  and  C_4
REMARK    4  A    between atoms: C_4  and  C_6
REMARK    5  A    between atoms: N_8  and  S_9
REMARK    6  A    between atoms: S_9  and  C_12
REMARK    7  A    between atoms: C_22  and  C_23
REMARK                            x       y       z     vdW  Elec       q    Type
REMARK                         _______ _______ _______ _____ _____    ______ ____
ROOT
ATOM      1  C   UNL     1       3.887   4.722  18.122  0.00  0.00    +0.000 C 
ATOM      2  C   UNL     1       4.246   5.932  19.035  0.00  0.00    +0.000 C 
ATOM      3  N   UNL     1       3.032   6.621  19.582  0.00  0.00    +0.000 NA
ATOM      4  C   UNL     1       2.170   5.647  20.306  0.00  0.00    +0.000 C 
ATOM      5  C   UNL     1       1.761   4.483  19.399  0.00  0.00    +0.000 C 
ATOM      6  N   UNL     1       2.918   3.804  18.790  0.00  0.00    +0.000 N 
ATOM      7  C   UNL     1       2.824   2.498  18.315  0.00  0.00    +0.000 C 
ATOM      8  C   UNL     1       1.561   1.712  18.575  0.00  0.00    +0.000 C 
ATOM      9  O   UNL     1       3.766   1.939  17.755  0.00  0.00    +0.000 OA
ENDROOT
BRANCH   3  10
ATOM     10  S   UNL     1       2.229   7.711  18.546  0.00  0.00    +0.000 S 
ATOM     11  O   UNL     1       3.228   8.508  17.875  0.00  0.00    +0.000 OA
ATOM     12  O   UNL     1       1.229   6.977  17.805  0.00  0.00    +0.000 OA
BRANCH  10  13
ATOM     13  C   UNL     1       1.349   8.762  19.680  0.00  0.00    +0.000 A 
ATOM     14  C   UNL     1       1.352   8.480  21.053  0.00  0.00    +0.000 A 
ATOM     15  C   UNL     1       0.754   9.380  21.938  0.00  0.00    +0.000 A 
ATOM     16  C   UNL     1       0.167  10.544  21.447  0.00  0.00    +0.000 A 
ATOM     17  F   UNL     1      -0.388  11.412  22.303  0.00  0.00    +0.000 F 
ATOM     18  C   UNL     1       0.162  10.827  20.084  0.00  0.00    +0.000 A 
ATOM     19  C   UNL     1       0.758   9.934  19.193  0.00  0.00    +0.000 A 
ENDBRANCH  10  13
ENDBRANCH   3  10
BRANCH   1  20
ATOM     20  C   UNL     1       5.205   4.189  17.528  0.00  0.00    +0.000 C 
ATOM     21  O   UNL     1       5.347   3.918  16.340  0.00  0.00    +0.000 OA
BRANCH  20  22
ATOM     22  O   UNL     1       6.207   4.149  18.453  0.00  0.00    +0.000 OA
BRANCH  22  24
ATOM     23  C   UNL     1       7.924   5.762  19.030  0.00  0.00    +0.000 C 
ATOM     24  C   UNL     1       7.449   4.727  18.021  0.00  0.00    +0.000 C 
ENDBRANCH  22  24
ENDBRANCH  20  22
ENDBRANCH   1  20
TORSDOF 5
ENDMDL
MODEL 8
REMARK VINA RESULT:      -6.1      3.325      4.168
REMARK  Name = 
REMARK  7 active torsions:
REMARK  status: ('A' for Active; 'I' for Inactive)
REMARK    1  A    between atoms: C_1  and  C_2
REMARK    2  A    between atoms: C_2  and  O_3
REMARK    3  A    between atoms: O_3  and  C_4
REMARK    4  A    between atoms: C_4  and  C_6
REMARK    5  A    between atoms: N_8  and  S_9
REMARK    6  A    between atoms: S_9  and  C_12
REMARK    7  A    between atoms: C_22  and  C_23
REMARK                            x       y       z     vdW  Elec       q    Type
REMARK                         _______ _______ _______ _____ _____    ______ ____
ROOT
ATOM      1  C   UNL     1       2.793   4.509  19.542  0.00  0.00    +0.000 C 
ATOM      2  C   UNL     1       2.492   4.716  18.027  0.00  0.00    +0.000 C 
ATOM      3  N   UNL     1       3.624   4.274  17.150  0.00  0.00    +0.000 NA
ATOM      4  C   UNL     1       3.972   2.855  17.434  0.00  0.00    +0.000 C 
ATOM      5  C   UNL     1       4.330   2.653  18.908  0.00  0.00    +0.000 C 
ATOM      6  N   UNL     1       3.271   3.122  19.819  0.00  0.00    +0.000 N 
ATOM      7  C   UNL     1       3.175   2.649  21.125  0.00  0.00    +0.000 C 
ATOM      8  C   UNL     1       4.075   1.518  21.563  0.00  0.00    +0.000 C 
ATOM      9  O   UNL     1       2.330   3.073  21.912  0.00  0.00    +0.000 OA
ENDROOT
BRANCH   3  10
ATOM     10  S   UNL     1       4.936   5.350  16.980  0.00  0.00    +0.000 S 
ATOM     11  O   UNL     1       4.402   6.680  16.803  0.00  0.00    +0.000 OA
ATOM     12  O   UNL     1       5.898   5.058  18.017  0.00  0.00    +0.000 OA
BRANCH  10  13
ATOM     13  C   UNL     1       5.674   4.838  15.444  0.00  0.00    +0.000 A 
ATOM     14  C   UNL     1       4.907   4.173  14.478  0.00  0.00    +0.000 A 
ATOM     15  C   UNL     1       5.473   3.883  13.235  0.00  0.00    +0.000 A 
ATOM     16  C   UNL     1       6.788   4.261  12.970  0.00  0.00    +0.000 A 
ATOM     17  F   UNL     1       7.319   3.996  11.769  0.00  0.00    +0.000 F 
ATOM     18  C   UNL     1       7.553   4.921  13.928  0.00  0.00    +0.000 A 
ATOM     19  C   UNL     1       6.994   5.215  15.172  0.00  0.00    +0.000 A 
ENDBRANCH  10  13
ENDBRANCH   3  10
BRANCH   1  20
ATOM     20  C   UNL     1       1.616   5.115  20.330  0.00  0.00    +0.000 C 
ATOM     21  O   UNL     1       0.499   4.608  20.368  0.00  0.00    +0.000 OA
BRANCH  20  22
ATOM     22  O   UNL     1       1.989   6.213  21.049  0.00  0.00    +0.000 OA
BRANCH  22  24
ATOM     23  C   UNL     1       1.051   8.435  21.311  0.00  0.00    +0.000 C 
ATOM     24  C   UNL     1       1.776   7.469  20.386  0.00  0.00    +0.000 C 
ENDBRANCH  22  24
ENDBRANCH  20  22
ENDBRANCH   1  20
TORSDOF 5
ENDMDL
MODEL 9
REMARK VINA RESULT:      -6.1      8.763     12.150
REMARK  Name = 
REMARK  7 active torsions:
REMARK  status: ('A' for Active; 'I' for Inactive)
REMARK    1  A    between atoms: C_1  and  C_2
REMARK    2  A    between atoms: C_2  and  O_3
REMARK    3  A    between atoms: O_3  and  C_4
REMARK    4  A    between atoms: C_4  and  C_6
REMARK    5  A    between atoms: N_8  and  S_9
REMARK    6  A    between atoms: S_9  and  C_12
REMARK    7  A    between atoms: C_22  and  C_23
REMARK                            x       y       z     vdW  Elec       q    Type
REMARK                         _______ _______ _______ _____ _____    ______ ____
ROOT
ATOM      1  C   UNL     1      -1.862  11.747  20.342  0.00  0.00    +0.000 C 
ATOM      2  C   UNL     1      -2.155  13.196  20.833  0.00  0.00    +0.000 C 
ATOM      3  N   UNL     1      -2.338  13.275  22.319  0.00  0.00    +0.000 NA
ATOM      4  C   UNL     1      -1.150  12.708  23.014  0.00  0.00    +0.000 C 
ATOM      5  C   UNL     1      -0.888  11.263  22.585  0.00  0.00    +0.000 C 
ATOM      6  N   UNL     1      -0.755  11.120  21.124  0.00  0.00    +0.000 N 
ATOM      7  C   UNL     1      -0.093  10.033  20.559  0.00  0.00    +0.000 C 
ATOM      8  C   UNL     1       0.637   9.069  21.463  0.00  0.00    +0.000 C 
ATOM      9  O   UNL     1      -0.023   9.873  19.342  0.00  0.00    +0.000 OA
ENDROOT
BRANCH   3  10
ATOM     10  S   UNL     1      -3.860  12.815  22.936  0.00  0.00    +0.000 S 
ATOM     11  O   UNL     1      -4.712  12.480  21.819  0.00  0.00    +0.000 OA
ATOM     12  O   UNL     1      -3.646  11.888  24.024  0.00  0.00    +0.000 OA
BRANCH  10  13
ATOM     13  C   UNL     1      -4.464  14.321  23.665  0.00  0.00    +0.000 A 
ATOM     14  C   UNL     1      -3.608  15.134  24.422  0.00  0.00    +0.000 A 
ATOM     15  C   UNL     1      -4.070  16.367  24.886  0.00  0.00    +0.000 A 
ATOM     16  C   UNL     1      -5.368  16.775  24.591  0.00  0.00    +0.000 A 
ATOM     17  F   UNL     1      -5.799  17.967  25.024  0.00  0.00    +0.000 F 
ATOM     18  C   UNL     1      -6.221  15.970  23.840  0.00  0.00    +0.000 A 
ATOM     19  C   UNL     1      -5.768  14.737  23.371  0.00  0.00    +0.000 A 
ENDBRANCH  10  13
ENDBRANCH   3  10
BRANCH   1  20
ATOM     20  C   UNL     1      -1.823  11.783  18.803  0.00  0.00    +0.000 C 
ATOM     21  O   UNL     1      -1.072  12.514  18.165  0.00  0.00    +0.000 OA
BRANCH  20  22
ATOM     22  O   UNL     1      -2.644  10.847  18.245  0.00  0.00    +0.000 OA
BRANCH  22  24
ATOM     23  C   UNL     1      -2.757  10.328  15.878  0.00  0.00    +0.000 C 
ATOM     24  C   UNL     1      -3.242  11.236  16.998  0.00  0.00    +0.000 C 
ENDBRANCH  22  24
ENDBRANCH  20  22
ENDBRANCH   1  20
TORSDOF 5
ENDMDL
