MODEL 1
REMARK VINA RESULT:      -6.6      0.000      0.000
REMARK  Name = 
REMARK  7 active torsions:
REMARK  status: ('A' for Active; 'I' for Inactive)
REMARK    1  A    between atoms: C_2  and  C_3
REMARK    2  A    between atoms: C_3  and  C_4
REMARK    3  A    between atoms: N_10  and  C_11
REMARK    4  A    between atoms: C_11  and  C_12
REMARK    5  A    between atoms: C_17  and  O_18
REMARK    6  A    between atoms: O_18  and  C_19
REMARK    7  A    between atoms: C_19  and  C_20
REMARK                            x       y       z     vdW  Elec       q    Type
REMARK                         _______ _______ _______ _____ _____    ______ ____
ROOT
ATOM      1  C   UNL     1       3.693   7.270  17.318  0.00  0.00    +0.000 C 
ENDROOT
BRANCH   1   2
ATOM      2  C   UNL     1       4.744   6.268  17.766  0.00  0.00    +0.000 A 
ATOM      3  C   UNL     1       6.104   6.477  17.470  0.00  0.00    +0.000 A 
ATOM      4  C   UNL     1       7.062   5.597  17.936  0.00  0.00    +0.000 A 
ATOM      5  N   UNL     1       6.782   4.535  18.706  0.00  0.00    +0.000 NA
ATOM      6  C   UNL     1       5.471   4.319  18.960  0.00  0.00    +0.000 A 
ATOM      7  C   UNL     1       4.415   5.104  18.482  0.00  0.00    +0.000 A 
BRANCH   7   8
ATOM      8  O   UNL     1       3.088   4.777  18.669  0.00  0.00    +0.000 OA
BRANCH   8   9
ATOM      9  C   UNL     1       2.850   3.855  19.760  0.00  0.00    +0.000 C 
BRANCH   9  10
ATOM     10  C   UNL     1       1.851   4.346  20.803  0.00  0.00    +0.000 C 
ATOM     11  F   UNL     1       0.573   4.046  20.498  0.00  0.00    +0.000 F 
ATOM     12  F   UNL     1       2.124   3.810  22.018  0.00  0.00    +0.000 F 
ATOM     13  F   UNL     1       1.934   5.692  20.942  0.00  0.00    +0.000 F 
ENDBRANCH   9  10
ENDBRANCH   8   9
ENDBRANCH   7   8
ENDBRANCH   1   2
BRANCH   1  16
ATOM     14  O   UNL     1       1.952   9.524  17.451  0.00  0.00    +0.000 OA
ATOM     15  C   UNL     1       1.986   8.739  18.393  0.00  0.00    +0.000 C 
ATOM     16  N   UNL     1       2.710   7.565  18.363  0.00  0.00    +0.000 N 
ATOM     17  H   UNL     1       2.643   6.908  19.128  0.00  0.00    +0.000 HD
BRANCH  15  18
ATOM     18  C   UNL     1       1.235   9.002  19.699  0.00  0.00    +0.000 C 
BRANCH  18  19
ATOM     19  C   UNL     1       0.422  10.266  19.671  0.00  0.00    +0.000 A 
ATOM     20  C   UNL     1      -0.885  10.309  19.219  0.00  0.00    +0.000 A 
ATOM     21  N   UNL     1      -1.642  11.425  19.202  0.00  0.00    +0.000 NA
ATOM     22  C   UNL     1      -1.051  12.540  19.652  0.00  0.00    +0.000 A 
ATOM     23  N   UNL     1       0.204  12.628  20.119  0.00  0.00    +0.000 NA
ATOM     24  C   UNL     1       0.909  11.480  20.120  0.00  0.00    +0.000 A 
ENDBRANCH  18  19
ENDBRANCH  15  18
ENDBRANCH   1  16
TORSDOF 7
ENDMDL
MODEL 2
REMARK VINA RESULT:      -6.6      4.583      6.383
REMARK  Name = 
REMARK  7 active torsions:
REMARK  status: ('A' for Active; 'I' for Inactive)
REMARK    1  A    between atoms: C_2  and  C_3
REMARK    2  A    between atoms: C_3  and  C_4
REMARK    3  A    between atoms: N_10  and  C_11
REMARK    4  A    between atoms: C_11  and  C_12
REMARK    5  A    between atoms: C_17  and  O_18
REMARK    6  A    between atoms: O_18  and  C_19
REMARK    7  A    between atoms: C_19  and  C_20
REMARK                            x       y       z     vdW  Elec       q    Type
REMARK                         _______ _______ _______ _____ _____    ______ ____
ROOT
ATOM      1  C   UNL     1       4.212   6.987  17.078  0.00  0.00    +0.000 C 
ENDROOT
BRANCH   1   2
ATOM      2  C   UNL     1       5.631   6.563  17.421  0.00  0.00    +0.000 A 
ATOM      3  C   UNL     1       6.589   7.520  17.806  0.00  0.00    +0.000 A 
ATOM      4  C   UNL     1       7.860   7.123  18.180  0.00  0.00    +0.000 A 
ATOM      5  N   UNL     1       8.249   5.840  18.234  0.00  0.00    +0.000 NA
ATOM      6  C   UNL     1       7.336   4.928  17.830  0.00  0.00    +0.000 A 
ATOM      7  C   UNL     1       6.048   5.223  17.368  0.00  0.00    +0.000 A 
BRANCH   7   8
ATOM      8  O   UNL     1       5.194   4.268  16.855  0.00  0.00    +0.000 OA
BRANCH   8   9
ATOM      9  C   UNL     1       5.762   3.475  15.785  0.00  0.00    +0.000 C 
BRANCH   9  10
ATOM     10  C   UNL     1       6.033   4.246  14.496  0.00  0.00    +0.000 C 
ATOM     11  F   UNL     1       7.277   4.762  14.436  0.00  0.00    +0.000 F 
ATOM     12  F   UNL     1       5.865   3.445  13.414  0.00  0.00    +0.000 F 
ATOM     13  F   UNL     1       5.157   5.271  14.364  0.00  0.00    +0.000 F 
ENDBRANCH   9  10
ENDBRANCH   8   9
ENDBRANCH   7   8
ENDBRANCH   1   2
BRANCH   1  16
ATOM     14  O   UNL     1       2.664   7.361  19.443  0.00  0.00    +0.000 OA
ATOM     15  C   UNL     1       2.580   6.299  18.836  0.00  0.00    +0.000 C 
ATOM     16  N   UNL     1       3.202   6.078  17.625  0.00  0.00    +0.000 N 
ATOM     17  H   UNL     1       3.038   5.218  17.120  0.00  0.00    +0.000 HD
BRANCH  15  18
ATOM     18  C   UNL     1       1.784   5.112  19.380  0.00  0.00    +0.000 C 
BRANCH  18  19
ATOM     19  C   UNL     1       2.431   3.784  19.099  0.00  0.00    +0.000 A 
ATOM     20  C   UNL     1       2.024   2.953  18.070  0.00  0.00    +0.000 A 
ATOM     21  N   UNL     1       2.599   1.767  17.785  0.00  0.00    +0.000 NA
ATOM     22  C   UNL     1       3.620   1.408  18.575  0.00  0.00    +0.000 A 
ATOM     23  N   UNL     1       4.110   2.124  19.597  0.00  0.00    +0.000 NA
ATOM     24  C   UNL     1       3.501   3.303  19.830  0.00  0.00    +0.000 A 
ENDBRANCH  18  19
ENDBRANCH  15  18
ENDBRANCH   1  16
TORSDOF 7
ENDMDL
MODEL 3
REMARK VINA RESULT:      -6.6      1.810      2.091
REMARK  Name = 
REMARK  7 active torsions:
REMARK  status: ('A' for Active; 'I' for Inactive)
REMARK    1  A    between atoms: C_2  and  C_3
REMARK    2  A    between atoms: C_3  and  C_4
REMARK    3  A    between atoms: N_10  and  C_11
REMARK    4  A    between atoms: C_11  and  C_12
REMARK    5  A    between atoms: C_17  and  O_18
REMARK    6  A    between atoms: O_18  and  C_19
REMARK    7  A    between atoms: C_19  and  C_20
REMARK                            x       y       z     vdW  Elec       q    Type
REMARK                         _______ _______ _______ _____ _____    ______ ____
ROOT
ATOM      1  C   UNL     1       2.802   7.706  18.015  0.00  0.00    +0.000 C 
ENDROOT
BRANCH   1   2
ATOM      2  C   UNL     1       3.673   6.504  17.691  0.00  0.00    +0.000 A 
ATOM      3  C   UNL     1       4.975   6.681  17.184  0.00  0.00    +0.000 A 
ATOM      4  C   UNL     1       5.787   5.586  16.953  0.00  0.00    +0.000 A 
ATOM      5  N   UNL     1       5.421   4.322  17.216  0.00  0.00    +0.000 NA
ATOM      6  C   UNL     1       4.158   4.155  17.670  0.00  0.00    +0.000 A 
ATOM      7  C   UNL     1       3.230   5.183  17.874  0.00  0.00    +0.000 A 
BRANCH   7   8
ATOM      8  O   UNL     1       1.915   4.954  18.225  0.00  0.00    +0.000 OA
BRANCH   8   9
ATOM      9  C   UNL     1       1.722   3.805  19.085  0.00  0.00    +0.000 C 
BRANCH   9  10
ATOM     10  C   UNL     1       1.501   4.140  20.558  0.00  0.00    +0.000 C 
ATOM     11  F   UNL     1       2.650   4.321  21.239  0.00  0.00    +0.000 F 
ATOM     12  F   UNL     1       0.761   5.268  20.687  0.00  0.00    +0.000 F 
ATOM     13  F   UNL     1       0.812   3.147  21.171  0.00  0.00    +0.000 F 
ENDBRANCH   9  10
ENDBRANCH   8   9
ENDBRANCH   7   8
ENDBRANCH   1   2
BRANCH   1  16
ATOM     14  O   UNL     1       0.782   9.381  19.130  0.00  0.00    +0.000 OA
ATOM     15  C   UNL     1       1.392   8.611  19.864  0.00  0.00    +0.000 C 
ATOM     16  N   UNL     1       2.299   7.687  19.390  0.00  0.00    +0.000 N 
ATOM     17  H   UNL     1       2.716   7.016  20.021  0.00  0.00    +0.000 HD
BRANCH  15  18
ATOM     18  C   UNL     1       1.208   8.618  21.382  0.00  0.00    +0.000 C 
BRANCH  18  19
ATOM     19  C   UNL     1       0.436   9.808  21.881  0.00  0.00    +0.000 A 
ATOM     20  C   UNL     1      -0.569   9.708  22.826  0.00  0.00    +0.000 A 
ATOM     21  N   UNL     1      -1.263  10.762  23.303  0.00  0.00    +0.000 NA
ATOM     22  C   UNL     1      -0.931  11.958  22.800  0.00  0.00    +0.000 A 
ATOM     23  N   UNL     1       0.024  12.187  21.886  0.00  0.00    +0.000 NA
ATOM     24  C   UNL     1       0.690  11.098  21.452  0.00  0.00    +0.000 A 
ENDBRANCH  18  19
ENDBRANCH  15  18
ENDBRANCH   1  16
TORSDOF 7
ENDMDL
MODEL 4
REMARK VINA RESULT:      -6.6      1.163      1.788
REMARK  Name = 
REMARK  7 active torsions:
REMARK  status: ('A' for Active; 'I' for Inactive)
REMARK    1  A    between atoms: C_2  and  C_3
REMARK    2  A    between atoms: C_3  and  C_4
REMARK    3  A    between atoms: N_10  and  C_11
REMARK    4  A    between atoms: C_11  and  C_12
REMARK    5  A    between atoms: C_17  and  O_18
REMARK    6  A    between atoms: O_18  and  C_19
REMARK    7  A    between atoms: C_19  and  C_20
REMARK                            x       y       z     vdW  Elec       q    Type
REMARK                         _______ _______ _______ _____ _____    ______ ____
ROOT
ATOM      1  C   UNL     1       3.424   7.296  17.472  0.00  0.00    +0.000 C 
ENDROOT
BRANCH   1   2
ATOM      2  C   UNL     1       4.276   6.148  17.987  0.00  0.00    +0.000 A 
ATOM      3  C   UNL     1       5.668   6.141  17.775  0.00  0.00    +0.000 A 
ATOM      4  C   UNL     1       6.448   5.128  18.302  0.00  0.00    +0.000 A 
ATOM      5  N   UNL     1       5.959   4.131  19.055  0.00  0.00    +0.000 NA
ATOM      6  C   UNL     1       4.618   4.123  19.227  0.00  0.00    +0.000 A 
ATOM      7  C   UNL     1       3.728   5.057  18.683  0.00  0.00    +0.000 A 
BRANCH   7   8
ATOM      8  O   UNL     1       2.357   4.942  18.786  0.00  0.00    +0.000 OA
BRANCH   8   9
ATOM      9  C   UNL     1       1.818   3.726  18.213  0.00  0.00    +0.000 C 
BRANCH   9  10
ATOM     10  C   UNL     1       1.094   2.820  19.205  0.00  0.00    +0.000 C 
ATOM     11  F   UNL     1       1.917   1.960  19.838  0.00  0.00    +0.000 F 
ATOM     12  F   UNL     1       0.456   3.554  20.149  0.00  0.00    +0.000 F 
ATOM     13  F   UNL     1       0.146   2.087  18.571  0.00  0.00    +0.000 F 
ENDBRANCH   9  10
ENDBRANCH   8   9
ENDBRANCH   7   8
ENDBRANCH   1   2
BRANCH   1  16
ATOM     14  O   UNL     1       2.011   9.772  17.495  0.00  0.00    +0.000 OA
ATOM     15  C   UNL     1       1.856   8.987  18.425  0.00  0.00    +0.000 C 
ATOM     16  N   UNL     1       2.409   7.724  18.437  0.00  0.00    +0.000 N 
ATOM     17  H   UNL     1       2.187   7.080  19.184  0.00  0.00    +0.000 HD
BRANCH  15  18
ATOM     18  C   UNL     1       1.043   9.350  19.668  0.00  0.00    +0.000 C 
BRANCH  18  19
ATOM     19  C   UNL     1       0.066  10.468  19.433  0.00  0.00    +0.000 A 
ATOM     20  C   UNL     1       0.303  11.770  19.836  0.00  0.00    +0.000 A 
ATOM     21  N   UNL     1      -0.549  12.793  19.619  0.00  0.00    +0.000 NA
ATOM     22  C   UNL     1      -1.684  12.485  18.979  0.00  0.00    +0.000 A 
ATOM     23  N   UNL     1      -2.028  11.266  18.535  0.00  0.00    +0.000 NA
ATOM     24  C   UNL     1      -1.135  10.285  18.771  0.00  0.00    +0.000 A 
ENDBRANCH  18  19
ENDBRANCH  15  18
ENDBRANCH   1  16
TORSDOF 7
ENDMDL
MODEL 5
REMARK VINA RESULT:      -6.6      3.552      7.584
REMARK  Name = 
REMARK  7 active torsions:
REMARK  status: ('A' for Active; 'I' for Inactive)
REMARK    1  A    between atoms: C_2  and  C_3
REMARK    2  A    between atoms: C_3  and  C_4
REMARK    3  A    between atoms: N_10  and  C_11
REMARK    4  A    between atoms: C_11  and  C_12
REMARK    5  A    between atoms: C_17  and  O_18
REMARK    6  A    between atoms: O_18  and  C_19
REMARK    7  A    between atoms: C_19  and  C_20
REMARK                            x       y       z     vdW  Elec       q    Type
REMARK                         _______ _______ _______ _____ _____    ______ ____
ROOT
ATOM      1  C   UNL     1       1.320   8.831  19.715  0.00  0.00    +0.000 C 
ENDROOT
BRANCH   1   2
ATOM      2  C   UNL     1       0.614   9.482  20.893  0.00  0.00    +0.000 A 
ATOM      3  C   UNL     1       0.682   8.905  22.175  0.00  0.00    +0.000 A 
ATOM      4  C   UNL     1       0.093   9.535  23.255  0.00  0.00    +0.000 A 
ATOM      5  N   UNL     1      -0.535  10.718  23.172  0.00  0.00    +0.000 NA
ATOM      6  C   UNL     1      -0.627  11.252  21.933  0.00  0.00    +0.000 A 
ATOM      7  C   UNL     1      -0.129  10.668  20.762  0.00  0.00    +0.000 A 
BRANCH   7   8
ATOM      8  O   UNL     1      -0.351  11.192  19.504  0.00  0.00    +0.000 OA
BRANCH   8   9
ATOM      9  C   UNL     1      -1.715  11.061  19.038  0.00  0.00    +0.000 C 
BRANCH   9  10
ATOM     10  C   UNL     1      -1.866  10.340  17.701  0.00  0.00    +0.000 C 
ATOM     11  F   UNL     1      -2.852   9.421  17.701  0.00  0.00    +0.000 F 
ATOM     12  F   UNL     1      -2.124  11.224  16.706  0.00  0.00    +0.000 F 
ATOM     13  F   UNL     1      -0.714   9.706  17.373  0.00  0.00    +0.000 F 
ENDBRANCH   9  10
ENDBRANCH   8   9
ENDBRANCH   7   8
ENDBRANCH   1   2
BRANCH   1  16
ATOM     14  O   UNL     1       2.856   7.145  18.005  0.00  0.00    +0.000 OA
ATOM     15  C   UNL     1       2.763   6.863  19.195  0.00  0.00    +0.000 C 
ATOM     16  N   UNL     1       2.139   7.684  20.111  0.00  0.00    +0.000 N 
ATOM     17  H   UNL     1       2.159   7.452  21.095  0.00  0.00    +0.000 HD
BRANCH  15  18
ATOM     18  C   UNL     1       3.323   5.561  19.767  0.00  0.00    +0.000 C 
BRANCH  18  19
ATOM     19  C   UNL     1       2.504   4.353  19.406  0.00  0.00    +0.000 A 
ATOM     20  C   UNL     1       1.337   4.011  20.067  0.00  0.00    +0.000 A 
ATOM     21  N   UNL     1       0.575   2.945  19.750  0.00  0.00    +0.000 NA
ATOM     22  C   UNL     1       1.013   2.195  18.730  0.00  0.00    +0.000 A 
ATOM     23  N   UNL     1       2.121   2.422  18.009  0.00  0.00    +0.000 NA
ATOM     24  C   UNL     1       2.839   3.506  18.366  0.00  0.00    +0.000 A 
ENDBRANCH  18  19
ENDBRANCH  15  18
ENDBRANCH   1  16
TORSDOF 7
ENDMDL
MODEL 6
REMARK VINA RESULT:      -6.5      0.304      1.028
REMARK  Name = 
REMARK  7 active torsions:
REMARK  status: ('A' for Active; 'I' for Inactive)
REMARK    1  A    between atoms: C_2  and  C_3
REMARK    2  A    between atoms: C_3  and  C_4
REMARK    3  A    between atoms: N_10  and  C_11
REMARK    4  A    between atoms: C_11  and  C_12
REMARK    5  A    between atoms: C_17  and  O_18
REMARK    6  A    between atoms: O_18  and  C_19
REMARK    7  A    between atoms: C_19  and  C_20
REMARK                            x       y       z     vdW  Elec       q    Type
REMARK                         _______ _______ _______ _____ _____    ______ ____
ROOT
ATOM      1  C   UNL     1       3.659   7.293  17.374  0.00  0.00    +0.000 C 
ENDROOT
BRANCH   1   2
ATOM      2  C   UNL     1       4.654   6.243  17.838  0.00  0.00    +0.000 A 
ATOM      3  C   UNL     1       6.033   6.416  17.611  0.00  0.00    +0.000 A 
ATOM      4  C   UNL     1       6.940   5.491  18.092  0.00  0.00    +0.000 A 
ATOM      5  N   UNL     1       6.590   4.416  18.816  0.00  0.00    +0.000 NA
ATOM      6  C   UNL     1       5.263   4.236  19.002  0.00  0.00    +0.000 A 
ATOM      7  C   UNL     1       4.256   5.070  18.502  0.00  0.00    +0.000 A 
BRANCH   7   8
ATOM      8  O   UNL     1       2.912   4.782  18.617  0.00  0.00    +0.000 OA
BRANCH   8   9
ATOM      9  C   UNL     1       2.608   3.732  19.567  0.00  0.00    +0.000 C 
BRANCH   9  10
ATOM     10  C   UNL     1       1.732   4.166  20.739  0.00  0.00    +0.000 C 
ATOM     11  F   UNL     1       0.631   3.403  20.890  0.00  0.00    +0.000 F 
ATOM     12  F   UNL     1       2.429   4.122  21.901  0.00  0.00    +0.000 F 
ATOM     13  F   UNL     1       1.323   5.448  20.575  0.00  0.00    +0.000 F 
ENDBRANCH   9  10
ENDBRANCH   8   9
ENDBRANCH   7   8
ENDBRANCH   1   2
BRANCH   1  16
ATOM     14  O   UNL     1       1.944   9.569  17.446  0.00  0.00    +0.000 OA
ATOM     15  C   UNL     1       1.944   8.791  18.394  0.00  0.00    +0.000 C 
ATOM     16  N   UNL     1       2.653   7.608  18.391  0.00  0.00    +0.000 N 
ATOM     17  H   UNL     1       2.559   6.958  19.159  0.00  0.00    +0.000 HD
BRANCH  15  18
ATOM     18  C   UNL     1       1.164   9.074  19.679  0.00  0.00    +0.000 C 
BRANCH  18  19
ATOM     19  C   UNL     1       0.311  10.309  19.595  0.00  0.00    +0.000 A 
ATOM     20  C   UNL     1       0.752  11.556  20.001  0.00  0.00    +0.000 A 
ATOM     21  N   UNL     1       0.013  12.682  19.918  0.00  0.00    +0.000 NA
ATOM     22  C   UNL     1      -1.218  12.537  19.412  0.00  0.00    +0.000 A 
ATOM     23  N   UNL     1      -1.759  11.388  18.980  0.00  0.00    +0.000 NA
ATOM     24  C   UNL     1      -0.972  10.299  19.079  0.00  0.00    +0.000 A 
ENDBRANCH  18  19
ENDBRANCH  15  18
ENDBRANCH   1  16
TORSDOF 7
ENDMDL
MODEL 7
REMARK VINA RESULT:      -6.5      1.151      1.494
REMARK  Name = 
REMARK  7 active torsions:
REMARK  status: ('A' for Active; 'I' for Inactive)
REMARK    1  A    between atoms: C_2  and  C_3
REMARK    2  A    between atoms: C_3  and  C_4
REMARK    3  A    between atoms: N_10  and  C_11
REMARK    4  A    between atoms: C_11  and  C_12
REMARK    5  A    between atoms: C_17  and  O_18
REMARK    6  A    between atoms: O_18  and  C_19
REMARK    7  A    between atoms: C_19  and  C_20
REMARK                            x       y       z     vdW  Elec       q    Type
REMARK                         _______ _______ _______ _____ _____    ______ ____
ROOT
ATOM      1  C   UNL     1       3.442   7.303  17.496  0.00  0.00    +0.000 C 
ENDROOT
BRANCH   1   2
ATOM      2  C   UNL     1       4.275   6.149  18.027  0.00  0.00    +0.000 A 
ATOM      3  C   UNL     1       5.669   6.126  17.836  0.00  0.00    +0.000 A 
ATOM      4  C   UNL     1       6.431   5.107  18.378  0.00  0.00    +0.000 A 
ATOM      5  N   UNL     1       5.920   4.118  19.128  0.00  0.00    +0.000 NA
ATOM      6  C   UNL     1       4.577   4.126  19.281  0.00  0.00    +0.000 A 
ATOM      7  C   UNL     1       3.705   5.067  18.720  0.00  0.00    +0.000 A 
BRANCH   7   8
ATOM      8  O   UNL     1       2.331   4.966  18.805  0.00  0.00    +0.000 OA
BRANCH   8   9
ATOM      9  C   UNL     1       1.785   3.764  18.212  0.00  0.00    +0.000 C 
BRANCH   9  10
ATOM     10  C   UNL     1       1.076   2.834  19.192  0.00  0.00    +0.000 C 
ATOM     11  F   UNL     1       1.911   1.969  19.803  0.00  0.00    +0.000 F 
ATOM     12  F   UNL     1       0.440   3.546  20.154  0.00  0.00    +0.000 F 
ATOM     13  F   UNL     1       0.128   2.106  18.552  0.00  0.00    +0.000 F 
ENDBRANCH   9  10
ENDBRANCH   8   9
ENDBRANCH   7   8
ENDBRANCH   1   2
BRANCH   1  16
ATOM     14  O   UNL     1       1.991   9.756  17.433  0.00  0.00    +0.000 OA
ATOM     15  C   UNL     1       1.849   9.003  18.390  0.00  0.00    +0.000 C 
ATOM     16  N   UNL     1       2.421   7.749  18.446  0.00  0.00    +0.000 N 
ATOM     17  H   UNL     1       2.210   7.130  19.216  0.00  0.00    +0.000 HD
BRANCH  15  18
ATOM     18  C   UNL     1       1.033   9.398  19.621  0.00  0.00    +0.000 C 
BRANCH  18  19
ATOM     19  C   UNL     1       0.292  10.695  19.451  0.00  0.00    +0.000 A 
ATOM     20  C   UNL     1      -0.974  10.770  18.897  0.00  0.00    +0.000 A 
ATOM     21  N   UNL     1      -1.667  11.917  18.751  0.00  0.00    +0.000 NA
ATOM     22  C   UNL     1      -1.053  13.030  19.175  0.00  0.00    +0.000 A 
ATOM     23  N   UNL     1       0.166  13.089  19.732  0.00  0.00    +0.000 NA
ATOM     24  C   UNL     1       0.807  11.911  19.860  0.00  0.00    +0.000 A 
ENDBRANCH  18  19
ENDBRANCH  15  18
ENDBRANCH   1  16
TORSDOF 7
ENDMDL
MODEL 8
REMARK VINA RESULT:      -6.5      2.941      4.104
REMARK  Name = 
REMARK  7 active torsions:
REMARK  status: ('A' for Active; 'I' for Inactive)
REMARK    1  A    between atoms: C_2  and  C_3
REMARK    2  A    between atoms: C_3  and  C_4
REMARK    3  A    between atoms: N_10  and  C_11
REMARK    4  A    between atoms: C_11  and  C_12
REMARK    5  A    between atoms: C_17  and  O_18
REMARK    6  A    between atoms: O_18  and  C_19
REMARK    7  A    between atoms: C_19  and  C_20
REMARK                            x       y       z     vdW  Elec       q    Type
REMARK                         _______ _______ _______ _____ _____    ______ ____
ROOT
ATOM      1  C   UNL     1       3.684   5.791  19.469  0.00  0.00    +0.000 C 
ENDROOT
BRANCH   1   2
ATOM      2  C   UNL     1       2.694   4.642  19.563  0.00  0.00    +0.000 A 
ATOM      3  C   UNL     1       2.138   4.278  20.805  0.00  0.00    +0.000 A 
ATOM      4  C   UNL     1       1.189   3.276  20.876  0.00  0.00    +0.000 A 
ATOM      5  N   UNL     1       0.719   2.622  19.803  0.00  0.00    +0.000 NA
ATOM      6  C   UNL     1       1.280   2.951  18.618  0.00  0.00    +0.000 A 
ATOM      7  C   UNL     1       2.295   3.899  18.440  0.00  0.00    +0.000 A 
BRANCH   7   8
ATOM      8  O   UNL     1       2.920   4.116  17.228  0.00  0.00    +0.000 OA
BRANCH   8   9
ATOM      9  C   UNL     1       4.099   3.304  17.014  0.00  0.00    +0.000 C 
BRANCH   9  10
ATOM     10  C   UNL     1       5.323   4.073  16.527  0.00  0.00    +0.000 C 
ATOM     11  F   UNL     1       5.017   5.258  15.962  0.00  0.00    +0.000 F 
ATOM     12  F   UNL     1       6.178   4.312  17.552  0.00  0.00    +0.000 F 
ATOM     13  F   UNL     1       6.006   3.346  15.609  0.00  0.00    +0.000 F 
ENDBRANCH   9  10
ENDBRANCH   8   9
ENDBRANCH   7   8
ENDBRANCH   1   2
BRANCH   1  16
ATOM     14  O   UNL     1       1.912   7.947  20.049  0.00  0.00    +0.000 OA
ATOM     15  C   UNL     1       2.299   7.786  18.896  0.00  0.00    +0.000 C 
ATOM     16  N   UNL     1       3.244   6.843  18.550  0.00  0.00    +0.000 N 
ATOM     17  H   UNL     1       3.594   6.801  17.603  0.00  0.00    +0.000 HD
BRANCH  15  18
ATOM     18  C   UNL     1       1.751   8.612  17.732  0.00  0.00    +0.000 C 
BRANCH  18  19
ATOM     19  C   UNL     1       1.211   9.950  18.156  0.00  0.00    +0.000 A 
ATOM     20  C   UNL     1       2.009  11.070  18.304  0.00  0.00    +0.000 A 
ATOM     21  N   UNL     1       1.546  12.284  18.664  0.00  0.00    +0.000 NA
ATOM     22  C   UNL     1       0.227  12.365  18.888  0.00  0.00    +0.000 A 
ATOM     23  N   UNL     1      -0.651  11.357  18.774  0.00  0.00    +0.000 NA
ATOM     24  C   UNL     1      -0.132  10.169  18.403  0.00  0.00    +0.000 A 
ENDBRANCH  18  19
ENDBRANCH  15  18
ENDBRANCH   1  16
TORSDOF 7
ENDMDL
MODEL 9
REMARK VINA RESULT:      -6.5      1.556      2.246
REMARK  Name = 
REMARK  7 active torsions:
REMARK  status: ('A' for Active; 'I' for Inactive)
REMARK    1  A    between atoms: C_2  and  C_3
REMARK    2  A    between atoms: C_3  and  C_4
REMARK    3  A    between atoms: N_10  and  C_11
REMARK    4  A    between atoms: C_11  and  C_12
REMARK    5  A    between atoms: C_17  and  O_18
REMARK    6  A    between atoms: O_18  and  C_19
REMARK    7  A    between atoms: C_19  and  C_20
REMARK                            x       y       z     vdW  Elec       q    Type
REMARK                         _______ _______ _______ _____ _____    ______ ____
ROOT
ATOM      1  C   UNL     1       2.328   6.959  19.355  0.00  0.00    +0.000 C 
ENDROOT
BRANCH   1   2
ATOM      2  C   UNL     1       3.472   6.226  18.675  0.00  0.00    +0.000 A 
ATOM      3  C   UNL     1       4.060   6.746  17.506  0.00  0.00    +0.000 A 
ATOM      4  C   UNL     1       5.142   6.109  16.928  0.00  0.00    +0.000 A 
ATOM      5  N   UNL     1       5.714   5.008  17.437  0.00  0.00    +0.000 NA
ATOM      6  C   UNL     1       5.125   4.493  18.540  0.00  0.00    +0.000 A 
ATOM      7  C   UNL     1       3.987   5.014  19.167  0.00  0.00    +0.000 A 
BRANCH   7   8
ATOM      8  O   UNL     1       3.351   4.387  20.219  0.00  0.00    +0.000 OA
BRANCH   8   9
ATOM      9  C   UNL     1       2.564   3.234  19.837  0.00  0.00    +0.000 C 
BRANCH   9  10
ATOM     10  C   UNL     1       1.124   3.249  20.342  0.00  0.00    +0.000 C 
ATOM     11  F   UNL     1       0.641   4.492  20.536  0.00  0.00    +0.000 F 
ATOM     12  F   UNL     1       0.303   2.618  19.467  0.00  0.00    +0.000 F 
ATOM     13  F   UNL     1       1.028   2.583  21.519  0.00  0.00    +0.000 F 
ENDBRANCH   9  10
ENDBRANCH   8   9
ENDBRANCH   7   8
ENDBRANCH   1   2
BRANCH   1  16
ATOM     14  O   UNL     1       0.769   9.050  20.507  0.00  0.00    +0.000 OA
ATOM     15  C   UNL     1       1.256   9.212  19.393  0.00  0.00    +0.000 C 
ATOM     16  N   UNL     1       2.116   8.303  18.813  0.00  0.00    +0.000 N 
ATOM     17  H   UNL     1       2.560   8.517  17.931  0.00  0.00    +0.000 HD
BRANCH  15  18
ATOM     18  C   UNL     1       0.939  10.440  18.538  0.00  0.00    +0.000 C 
BRANCH  18  19
ATOM     19  C   UNL     1      -0.534  10.713  18.416  0.00  0.00    +0.000 A 
ATOM     20  C   UNL     1      -1.163  11.752  19.079  0.00  0.00    +0.000 A 
ATOM     21  N   UNL     1      -2.479  12.029  18.971  0.00  0.00    +0.000 NA
ATOM     22  C   UNL     1      -3.183  11.222  18.167  0.00  0.00    +0.000 A 
ATOM     23  N   UNL     1      -2.691  10.188  17.468  0.00  0.00    +0.000 NA
ATOM     24  C   UNL     1      -1.370   9.963  17.609  0.00  0.00    +0.000 A 
ENDBRANCH  18  19
ENDBRANCH  15  18
ENDBRANCH   1  16
TORSDOF 7
ENDMDL
