MODEL 1
REMARK VINA RESULT:      -5.7      0.000      0.000
REMARK  Name = 
REMARK  7 active torsions:
REMARK  status: ('A' for Active; 'I' for Inactive)
REMARK    1  A    between atoms: C_1  and  C_2
REMARK    2  A    between atoms: C_2  and  C_3
REMARK    3  A    between atoms: C_3  and  O_4
REMARK    4  A    between atoms: C_3  and  C_5
REMARK    5  A    between atoms: C_8  and  O_9
REMARK    6  A    between atoms: C_10  and  O_11
REMARK    7  A    between atoms: C_12  and  O_13
REMARK                            x       y       z     vdW  Elec       q    Type
REMARK                         _______ _______ _______ _____ _____    ______ ____
ROOT
ATOM      1  C   UNL     1       4.766   4.900  18.886  0.00  0.00    +0.000 C 
ATOM      2  N   UNL     1       3.900   5.762  18.043  0.00  0.00    +0.000 NA
ATOM      3  C   UNL     1       2.494   5.358  18.022  0.00  0.00    +0.000 C 
ATOM      4  C   UNL     1       2.279   3.886  17.662  0.00  0.00    +0.000 C 
ATOM      5  C   UNL     1       3.049   3.017  18.659  0.00  0.00    +0.000 C 
ATOM      6  C   UNL     1       4.552   3.384  18.644  0.00  0.00    +0.000 C 
ATOM      7  H   UNL     1       4.264   5.790  17.086  0.00  0.00    +0.000 HD
ENDROOT
BRANCH   4   8
ATOM      8  O   UNL     1       0.881   3.597  17.675  0.00  0.00    +0.000 OA
ATOM      9  H   UNL     1       0.635   3.295  18.569  0.00  0.00    +0.000 HD
ENDBRANCH   4   8
BRANCH   5  10
ATOM     10  O   UNL     1       2.857   1.629  18.368  0.00  0.00    +0.000 OA
ATOM     11  H   UNL     1       3.203   1.442  17.476  0.00  0.00    +0.000 HD
ENDBRANCH   5  10
BRANCH   6  12
ATOM     12  O   UNL     1       5.221   2.606  19.641  0.00  0.00    +0.000 OA
ATOM     13  H   UNL     1       5.389   3.169  20.418  0.00  0.00    +0.000 HD
ENDBRANCH   6  12
BRANCH   1  14
ATOM     14  C   UNL     1       6.251   5.348  18.641  0.00  0.00    +0.000 C 
BRANCH  14  16
ATOM     15  C   UNL     1       7.713   7.313  17.869  0.00  0.00    +0.000 C 
ATOM     16  C   UNL     1       6.499   6.437  17.592  0.00  0.00    +0.000 C 
ENDBRANCH  14  16
BRANCH  14  17
ATOM     17  O   UNL     1       7.065   4.220  18.278  0.00  0.00    +0.000 OA
ATOM     18  H   UNL     1       7.777   4.150  18.938  0.00  0.00    +0.000 HD
ENDBRANCH  14  17
ENDBRANCH   1  14
TORSDOF 6
ENDMDL
MODEL 2
REMARK VINA RESULT:      -5.7      1.832      4.452
REMARK  Name = 
REMARK  7 active torsions:
REMARK  status: ('A' for Active; 'I' for Inactive)
REMARK    1  A    between atoms: C_1  and  C_2
REMARK    2  A    between atoms: C_2  and  C_3
REMARK    3  A    between atoms: C_3  and  O_4
REMARK    4  A    between atoms: C_3  and  C_5
REMARK    5  A    between atoms: C_8  and  O_9
REMARK    6  A    between atoms: C_10  and  O_11
REMARK    7  A    between atoms: C_12  and  O_13
REMARK                            x       y       z     vdW  Elec       q    Type
REMARK                         _______ _______ _______ _____ _____    ______ ____
ROOT
ATOM      1  C   UNL     1       4.115   5.132  18.451  0.00  0.00    +0.000 C 
ATOM      2  N   UNL     1       4.193   6.500  17.880  0.00  0.00    +0.000 NA
ATOM      3  C   UNL     1       5.218   6.658  16.847  0.00  0.00    +0.000 C 
ATOM      4  C   UNL     1       6.609   6.191  17.280  0.00  0.00    +0.000 C 
ATOM      5  C   UNL     1       6.527   4.722  17.702  0.00  0.00    +0.000 C 
ATOM      6  C   UNL     1       5.496   4.546  18.842  0.00  0.00    +0.000 C 
ATOM      7  H   UNL     1       4.351   7.181  18.628  0.00  0.00    +0.000 HD
ENDROOT
BRANCH   4   8
ATOM      8  O   UNL     1       7.528   6.383  16.204  0.00  0.00    +0.000 OA
ATOM      9  H   UNL     1       7.766   5.511  15.840  0.00  0.00    +0.000 HD
ENDBRANCH   4   8
BRANCH   5  10
ATOM     10  O   UNL     1       7.815   4.239  18.096  0.00  0.00    +0.000 OA
ATOM     11  H   UNL     1       8.343   4.986  18.433  0.00  0.00    +0.000 HD
ENDBRANCH   5  10
BRANCH   6  12
ATOM     12  O   UNL     1       5.392   3.153  19.152  0.00  0.00    +0.000 OA
ATOM     13  H   UNL     1       4.913   3.053  19.993  0.00  0.00    +0.000 HD
ENDBRANCH   6  12
BRANCH   1  14
ATOM     14  C   UNL     1       3.117   5.188  19.662  0.00  0.00    +0.000 C 
BRANCH  14  16
ATOM     15  C   UNL     1       1.481   3.974  18.099  0.00  0.00    +0.000 C 
ATOM     16  C   UNL     1       1.780   4.453  19.513  0.00  0.00    +0.000 C 
ENDBRANCH  14  16
BRANCH  14  17
ATOM     17  O   UNL     1       2.812   6.552  20.001  0.00  0.00    +0.000 OA
ATOM     18  H   UNL     1       3.655   6.997  20.203  0.00  0.00    +0.000 HD
ENDBRANCH  14  17
ENDBRANCH   1  14
TORSDOF 6
ENDMDL
MODEL 3
REMARK VINA RESULT:      -5.6      1.732      4.517
REMARK  Name = 
REMARK  7 active torsions:
REMARK  status: ('A' for Active; 'I' for Inactive)
REMARK    1  A    between atoms: C_1  and  C_2
REMARK    2  A    between atoms: C_2  and  C_3
REMARK    3  A    between atoms: C_3  and  O_4
REMARK    4  A    between atoms: C_3  and  C_5
REMARK    5  A    between atoms: C_8  and  O_9
REMARK    6  A    between atoms: C_10  and  O_11
REMARK    7  A    between atoms: C_12  and  O_13
REMARK                            x       y       z     vdW  Elec       q    Type
REMARK                         _______ _______ _______ _____ _____    ______ ____
ROOT
ATOM      1  C   UNL     1       2.503   3.809  18.062  0.00  0.00    +0.000 C 
ATOM      2  N   UNL     1       2.295   5.276  18.150  0.00  0.00    +0.000 NA
ATOM      3  C   UNL     1       3.420   6.070  17.655  0.00  0.00    +0.000 C 
ATOM      4  C   UNL     1       4.766   5.693  18.279  0.00  0.00    +0.000 C 
ATOM      5  C   UNL     1       5.030   4.208  18.020  0.00  0.00    +0.000 C 
ATOM      6  C   UNL     1       3.882   3.348  18.599  0.00  0.00    +0.000 C 
ATOM      7  H   UNL     1       2.088   5.540  19.117  0.00  0.00    +0.000 HD
ENDROOT
BRANCH   4   8
ATOM      8  O   UNL     1       5.790   6.519  17.726  0.00  0.00    +0.000 OA
ATOM      9  H   UNL     1       6.535   6.551  18.354  0.00  0.00    +0.000 HD
ENDBRANCH   4   8
BRANCH   5  10
ATOM     10  O   UNL     1       6.292   3.819  18.572  0.00  0.00    +0.000 OA
ATOM     11  H   UNL     1       6.448   4.325  19.390  0.00  0.00    +0.000 HD
ENDBRANCH   5  10
BRANCH   6  12
ATOM     12  O   UNL     1       4.129   1.978  18.268  0.00  0.00    +0.000 OA
ATOM     13  H   UNL     1       3.944   1.427  19.049  0.00  0.00    +0.000 HD
ENDBRANCH   6  12
BRANCH   1  14
ATOM     14  C   UNL     1       1.303   3.121  18.805  0.00  0.00    +0.000 C 
BRANCH  14  16
ATOM     15  C   UNL     1       1.437   2.695  21.334  0.00  0.00    +0.000 C 
ATOM     16  C   UNL     1       0.967   3.616  20.216  0.00  0.00    +0.000 C 
ENDBRANCH  14  16
BRANCH  14  17
ATOM     17  O   UNL     1       1.513   1.702  18.895  0.00  0.00    +0.000 OA
ATOM     18  H   UNL     1       0.804   1.270  18.386  0.00  0.00    +0.000 HD
ENDBRANCH  14  17
ENDBRANCH   1  14
TORSDOF 6
ENDMDL
MODEL 4
REMARK VINA RESULT:      -5.6      1.760      1.930
REMARK  Name = 
REMARK  7 active torsions:
REMARK  status: ('A' for Active; 'I' for Inactive)
REMARK    1  A    between atoms: C_1  and  C_2
REMARK    2  A    between atoms: C_2  and  C_3
REMARK    3  A    between atoms: C_3  and  O_4
REMARK    4  A    between atoms: C_3  and  C_5
REMARK    5  A    between atoms: C_8  and  O_9
REMARK    6  A    between atoms: C_10  and  O_11
REMARK    7  A    between atoms: C_12  and  O_13
REMARK                            x       y       z     vdW  Elec       q    Type
REMARK                         _______ _______ _______ _____ _____    ______ ____
ROOT
ATOM      1  C   UNL     1       4.396   4.142  19.281  0.00  0.00    +0.000 C 
ATOM      2  N   UNL     1       3.565   5.184  19.936  0.00  0.00    +0.000 NA
ATOM      3  C   UNL     1       2.399   4.659  20.646  0.00  0.00    +0.000 C 
ATOM      4  C   UNL     1       1.517   3.742  19.795  0.00  0.00    +0.000 C 
ATOM      5  C   UNL     1       2.368   2.582  19.276  0.00  0.00    +0.000 C 
ATOM      6  C   UNL     1       3.570   3.118  18.462  0.00  0.00    +0.000 C 
ATOM      7  H   UNL     1       3.263   5.874  19.242  0.00  0.00    +0.000 HD
ENDROOT
BRANCH   4   8
ATOM      8  O   UNL     1       0.416   3.284  20.580  0.00  0.00    +0.000 OA
ATOM      9  H   UNL     1       0.716   2.533  21.125  0.00  0.00    +0.000 HD
ENDBRANCH   4   8
BRANCH   5  10
ATOM     10  O   UNL     1       1.574   1.689  18.489  0.00  0.00    +0.000 OA
ATOM     11  H   UNL     1       1.173   1.021  19.077  0.00  0.00    +0.000 HD
ENDBRANCH   5  10
BRANCH   6  12
ATOM     12  O   UNL     1       4.380   2.008  18.063  0.00  0.00    +0.000 OA
ATOM     13  H   UNL     1       3.799   1.271  17.806  0.00  0.00    +0.000 HD
ENDBRANCH   6  12
BRANCH   1  14
ATOM     14  C   UNL     1       5.475   4.882  18.414  0.00  0.00    +0.000 C 
BRANCH  14  16
ATOM     15  C   UNL     1       4.753   6.764  16.824  0.00  0.00    +0.000 C 
ATOM     16  C   UNL     1       5.083   5.287  16.989  0.00  0.00    +0.000 C 
ENDBRANCH  14  16
BRANCH  14  17
ATOM     17  O   UNL     1       6.670   4.089  18.313  0.00  0.00    +0.000 OA
ATOM     18  H   UNL     1       6.815   3.670  19.180  0.00  0.00    +0.000 HD
ENDBRANCH  14  17
ENDBRANCH   1  14
TORSDOF 6
ENDMDL
MODEL 5
REMARK VINA RESULT:      -5.5      2.200      4.228
REMARK  Name = 
REMARK  7 active torsions:
REMARK  status: ('A' for Active; 'I' for Inactive)
REMARK    1  A    between atoms: C_1  and  C_2
REMARK    2  A    between atoms: C_2  and  C_3
REMARK    3  A    between atoms: C_3  and  O_4
REMARK    4  A    between atoms: C_3  and  C_5
REMARK    5  A    between atoms: C_8  and  O_9
REMARK    6  A    between atoms: C_10  and  O_11
REMARK    7  A    between atoms: C_12  and  O_13
REMARK                            x       y       z     vdW  Elec       q    Type
REMARK                         _______ _______ _______ _____ _____    ______ ____
ROOT
ATOM      1  C   UNL     1       4.373   4.882  17.606  0.00  0.00    +0.000 C 
ATOM      2  N   UNL     1       4.394   5.940  16.564  0.00  0.00    +0.000 NA
ATOM      3  C   UNL     1       5.429   5.756  15.546  0.00  0.00    +0.000 C 
ATOM      4  C   UNL     1       6.834   5.559  16.122  0.00  0.00    +0.000 C 
ATOM      5  C   UNL     1       6.816   4.351  17.062  0.00  0.00    +0.000 C 
ATOM      6  C   UNL     1       5.774   4.559  18.186  0.00  0.00    +0.000 C 
ATOM      7  H   UNL     1       4.504   6.859  17.003  0.00  0.00    +0.000 HD
ENDROOT
BRANCH   4   8
ATOM      8  O   UNL     1       7.762   5.385  15.051  0.00  0.00    +0.000 OA
ATOM      9  H   UNL     1       7.571   4.537  14.610  0.00  0.00    +0.000 HD
ENDBRANCH   4   8
BRANCH   5  10
ATOM     10  O   UNL     1       8.119   4.120  17.607  0.00  0.00    +0.000 OA
ATOM     11  H   UNL     1       8.709   3.809  16.895  0.00  0.00    +0.000 HD
ENDBRANCH   5  10
BRANCH   6  12
ATOM     12  O   UNL     1       5.734   3.379  18.994  0.00  0.00    +0.000 OA
ATOM     13  H   UNL     1       6.367   2.732  18.637  0.00  0.00    +0.000 HD
ENDBRANCH   6  12
BRANCH   1  14
ATOM     14  C   UNL     1       3.350   5.333  18.708  0.00  0.00    +0.000 C 
BRANCH  14  16
ATOM     15  C   UNL     1       2.214   7.462  19.585  0.00  0.00    +0.000 C 
ATOM     16  C   UNL     1       2.460   6.541  18.398  0.00  0.00    +0.000 C 
ENDBRANCH  14  16
BRANCH  14  17
ATOM     17  O   UNL     1       4.032   5.618  19.941  0.00  0.00    +0.000 OA
ATOM     18  H   UNL     1       4.743   6.253  19.741  0.00  0.00    +0.000 HD
ENDBRANCH  14  17
ENDBRANCH   1  14
TORSDOF 6
ENDMDL
MODEL 6
REMARK VINA RESULT:      -5.5      2.581      4.833
REMARK  Name = 
REMARK  7 active torsions:
REMARK  status: ('A' for Active; 'I' for Inactive)
REMARK    1  A    between atoms: C_1  and  C_2
REMARK    2  A    between atoms: C_2  and  C_3
REMARK    3  A    between atoms: C_3  and  O_4
REMARK    4  A    between atoms: C_3  and  C_5
REMARK    5  A    between atoms: C_8  and  O_9
REMARK    6  A    between atoms: C_10  and  O_11
REMARK    7  A    between atoms: C_12  and  O_13
REMARK                            x       y       z     vdW  Elec       q    Type
REMARK                         _______ _______ _______ _____ _____    ______ ____
ROOT
ATOM      1  C   UNL     1       5.217   5.152  18.593  0.00  0.00    +0.000 C 
ATOM      2  N   UNL     1       6.244   4.123  18.294  0.00  0.00    +0.000 NA
ATOM      3  C   UNL     1       7.251   4.548  17.322  0.00  0.00    +0.000 C 
ATOM      4  C   UNL     1       6.662   5.096  16.020  0.00  0.00    +0.000 C 
ATOM      5  C   UNL     1       5.739   6.270  16.352  0.00  0.00    +0.000 C 
ATOM      6  C   UNL     1       4.625   5.821  17.327  0.00  0.00    +0.000 C 
ATOM      7  H   UNL     1       5.790   3.265  17.966  0.00  0.00    +0.000 HD
ENDROOT
BRANCH   4   8
ATOM      8  O   UNL     1       7.724   5.484  15.148  0.00  0.00    +0.000 OA
ATOM      9  H   UNL     1       7.407   5.425  14.228  0.00  0.00    +0.000 HD
ENDBRANCH   4   8
BRANCH   5  10
ATOM     10  O   UNL     1       5.182   6.825  15.157  0.00  0.00    +0.000 OA
ATOM     11  H   UNL     1       4.779   7.688  15.366  0.00  0.00    +0.000 HD
ENDBRANCH   5  10
BRANCH   6  12
ATOM     12  O   UNL     1       3.834   6.962  17.672  0.00  0.00    +0.000 OA
ATOM     13  H   UNL     1       2.918   6.673  17.830  0.00  0.00    +0.000 HD
ENDBRANCH   6  12
BRANCH   1  14
ATOM     14  C   UNL     1       4.121   4.473  19.488  0.00  0.00    +0.000 C 
BRANCH  14  16
ATOM     15  C   UNL     1       1.696   4.175  18.697  0.00  0.00    +0.000 C 
ATOM     16  C   UNL     1       3.093   3.575  18.791  0.00  0.00    +0.000 C 
ENDBRANCH  14  16
BRANCH  14  17
ATOM     17  O   UNL     1       3.384   5.465  20.223  0.00  0.00    +0.000 OA
ATOM     18  H   UNL     1       2.538   5.601  19.761  0.00  0.00    +0.000 HD
ENDBRANCH  14  17
ENDBRANCH   1  14
TORSDOF 6
ENDMDL
MODEL 7
REMARK VINA RESULT:      -5.5      1.613      4.528
REMARK  Name = 
REMARK  7 active torsions:
REMARK  status: ('A' for Active; 'I' for Inactive)
REMARK    1  A    between atoms: C_1  and  C_2
REMARK    2  A    between atoms: C_2  and  C_3
REMARK    3  A    between atoms: C_3  and  O_4
REMARK    4  A    between atoms: C_3  and  C_5
REMARK    5  A    between atoms: C_8  and  O_9
REMARK    6  A    between atoms: C_10  and  O_11
REMARK    7  A    between atoms: C_12  and  O_13
REMARK                            x       y       z     vdW  Elec       q    Type
REMARK                         _______ _______ _______ _____ _____    ______ ____
ROOT
ATOM      1  C   UNL     1       4.137   3.248  17.507  0.00  0.00    +0.000 C 
ATOM      2  N   UNL     1       3.992   4.307  16.477  0.00  0.00    +0.000 NA
ATOM      3  C   UNL     1       5.184   5.136  16.299  0.00  0.00    +0.000 C 
ATOM      4  C   UNL     1       5.717   5.741  17.601  0.00  0.00    +0.000 C 
ATOM      5  C   UNL     1       6.020   4.607  18.583  0.00  0.00    +0.000 C 
ATOM      6  C   UNL     1       4.750   3.760  18.836  0.00  0.00    +0.000 C 
ATOM      7  H   UNL     1       3.190   4.903  16.701  0.00  0.00    +0.000 HD
ENDROOT
BRANCH   4   8
ATOM      8  O   UNL     1       6.877   6.523  17.319  0.00  0.00    +0.000 OA
ATOM      9  H   UNL     1       7.617   6.184  17.855  0.00  0.00    +0.000 HD
ENDBRANCH   4   8
BRANCH   5  10
ATOM     10  O   UNL     1       6.540   5.130  19.809  0.00  0.00    +0.000 OA
ATOM     11  H   UNL     1       6.980   5.981  19.629  0.00  0.00    +0.000 HD
ENDBRANCH   5  10
BRANCH   6  12
ATOM     12  O   UNL     1       5.094   2.668  19.695  0.00  0.00    +0.000 OA
ATOM     13  H   UNL     1       5.862   2.203  19.319  0.00  0.00    +0.000 HD
ENDBRANCH   6  12
BRANCH   1  14
ATOM     14  C   UNL     1       2.725   2.592  17.705  0.00  0.00    +0.000 C 
BRANCH  14  16
ATOM     15  C   UNL     1       1.013   2.901  19.593  0.00  0.00    +0.000 C 
ATOM     16  C   UNL     1       1.618   3.460  18.313  0.00  0.00    +0.000 C 
ENDBRANCH  14  16
BRANCH  14  17
ATOM     17  O   UNL     1       2.828   1.410  18.517  0.00  0.00    +0.000 OA
ATOM     18  H   UNL     1       3.498   0.833  18.108  0.00  0.00    +0.000 HD
ENDBRANCH  14  17
ENDBRANCH   1  14
TORSDOF 6
ENDMDL
MODEL 8
REMARK VINA RESULT:      -5.5      1.928      2.552
REMARK  Name = 
REMARK  7 active torsions:
REMARK  status: ('A' for Active; 'I' for Inactive)
REMARK    1  A    between atoms: C_1  and  C_2
REMARK    2  A    between atoms: C_2  and  C_3
REMARK    3  A    between atoms: C_3  and  O_4
REMARK    4  A    between atoms: C_3  and  C_5
REMARK    5  A    between atoms: C_8  and  O_9
REMARK    6  A    between atoms: C_10  and  O_11
REMARK    7  A    between atoms: C_12  and  O_13
REMARK                            x       y       z     vdW  Elec       q    Type
REMARK                         _______ _______ _______ _____ _____    ______ ____
ROOT
ATOM      1  C   UNL     1       5.425   5.892  17.733  0.00  0.00    +0.000 C 
ATOM      2  N   UNL     1       3.994   6.283  17.777  0.00  0.00    +0.000 NA
ATOM      3  C   UNL     1       3.284   5.822  18.970  0.00  0.00    +0.000 C 
ATOM      4  C   UNL     1       3.425   4.320  19.232  0.00  0.00    +0.000 C 
ATOM      5  C   UNL     1       4.912   3.978  19.353  0.00  0.00    +0.000 C 
ATOM      6  C   UNL     1       5.667   4.398  18.069  0.00  0.00    +0.000 C 
ATOM      7  H   UNL     1       3.514   5.943  16.939  0.00  0.00    +0.000 HD
ENDROOT
BRANCH   4   8
ATOM      8  O   UNL     1       2.703   3.978  20.415  0.00  0.00    +0.000 OA
ATOM      9  H   UNL     1       1.992   3.355  20.174  0.00  0.00    +0.000 HD
ENDBRANCH   4   8
BRANCH   5  10
ATOM     10  O   UNL     1       5.086   2.583  19.618  0.00  0.00    +0.000 OA
ATOM     11  H   UNL     1       5.976   2.314  19.323  0.00  0.00    +0.000 HD
ENDBRANCH   5  10
BRANCH   6  12
ATOM     12  O   UNL     1       7.061   4.133  18.254  0.00  0.00    +0.000 OA
ATOM     13  H   UNL     1       7.160   3.375  18.856  0.00  0.00    +0.000 HD
ENDBRANCH   6  12
BRANCH   1  14
ATOM     14  C   UNL     1       5.976   6.291  16.318  0.00  0.00    +0.000 C 
BRANCH  14  16
ATOM     15  C   UNL     1       6.704   4.650  14.482  0.00  0.00    +0.000 C 
ATOM     16  C   UNL     1       5.561   5.423  15.125  0.00  0.00    +0.000 C 
ENDBRANCH  14  16
BRANCH  14  17
ATOM     17  O   UNL     1       7.413   6.331  16.330  0.00  0.00    +0.000 OA
ATOM     18  H   UNL     1       7.731   5.431  16.136  0.00  0.00    +0.000 HD
ENDBRANCH  14  17
ENDBRANCH   1  14
TORSDOF 6
ENDMDL
MODEL 9
REMARK VINA RESULT:      -5.5      2.114      2.888
REMARK  Name = 
REMARK  7 active torsions:
REMARK  status: ('A' for Active; 'I' for Inactive)
REMARK    1  A    between atoms: C_1  and  C_2
REMARK    2  A    between atoms: C_2  and  C_3
REMARK    3  A    between atoms: C_3  and  O_4
REMARK    4  A    between atoms: C_3  and  C_5
REMARK    5  A    between atoms: C_8  and  O_9
REMARK    6  A    between atoms: C_10  and  O_11
REMARK    7  A    between atoms: C_12  and  O_13
REMARK                            x       y       z     vdW  Elec       q    Type
REMARK                         _______ _______ _______ _____ _____    ______ ____
ROOT
ATOM      1  C   UNL     1       5.892   4.875  17.592  0.00  0.00    +0.000 C 
ATOM      2  N   UNL     1       5.948   3.989  18.782  0.00  0.00    +0.000 NA
ATOM      3  C   UNL     1       4.647   3.465  19.199  0.00  0.00    +0.000 C 
ATOM      4  C   UNL     1       3.580   4.544  19.399  0.00  0.00    +0.000 C 
ATOM      5  C   UNL     1       3.425   5.331  18.095  0.00  0.00    +0.000 C 
ATOM      6  C   UNL     1       4.779   5.951  17.676  0.00  0.00    +0.000 C 
ATOM      7  H   UNL     1       6.385   4.485  19.565  0.00  0.00    +0.000 HD
ENDROOT
BRANCH   4   8
ATOM      8  O   UNL     1       2.355   3.929  19.797  0.00  0.00    +0.000 OA
ATOM      9  H   UNL     1       1.622   4.541  19.599  0.00  0.00    +0.000 HD
ENDBRANCH   4   8
BRANCH   5  10
ATOM     10  O   UNL     1       2.420   6.340  18.234  0.00  0.00    +0.000 OA
ATOM     11  H   UNL     1       2.216   6.707  17.354  0.00  0.00    +0.000 HD
ENDBRANCH   5  10
BRANCH   6  12
ATOM     12  O   UNL     1       4.608   6.609  16.417  0.00  0.00    +0.000 OA
ATOM     13  H   UNL     1       5.327   7.254  16.299  0.00  0.00    +0.000 HD
ENDBRANCH   6  12
BRANCH   1  14
ATOM     14  C   UNL     1       7.322   5.497  17.405  0.00  0.00    +0.000 C 
BRANCH  14  16
ATOM     15  C   UNL     1       7.841   7.997  17.668  0.00  0.00    +0.000 C 
ATOM     16  C   UNL     1       7.727   6.638  18.344  0.00  0.00    +0.000 C 
ENDBRANCH  14  16
BRANCH  14  17
ATOM     17  O   UNL     1       7.489   5.977  16.061  0.00  0.00    +0.000 OA
ATOM     18  H   UNL     1       7.983   5.297  15.568  0.00  0.00    +0.000 HD
ENDBRANCH  14  17
ENDBRANCH   1  14
TORSDOF 6
ENDMDL
