MODEL 1
REMARK VINA RESULT:      -8.5      0.000      0.000
REMARK  Name = 
REMARK  5 active torsions:
REMARK  status: ('A' for Active; 'I' for Inactive)
REMARK    1  A    between atoms: C_1  and  C_2
REMARK    2  A    between atoms: C_5  and  C_6
REMARK    3  A    between atoms: C_14  and  C_15
REMARK    4  A    between atoms: N_17  and  C_18
REMARK    5  A    between atoms: C_18  and  C_19
REMARK                            x       y       z     vdW  Elec       q    Type
REMARK                         _______ _______ _______ _____ _____    ______ ____
ROOT
ATOM      1  C   UNL     1       1.702   3.539  21.402  0.00  0.00    +0.000 C 
ATOM      2  C   UNL     1       2.835   3.612  20.463  0.00  0.00    +0.000 A 
ATOM      3  O   UNL     1       3.770   2.644  20.620  0.00  0.00    +0.000 OA
ATOM      4  N   UNL     1       4.769   2.812  19.697  0.00  0.00    +0.000 NA
ATOM      5  C   UNL     1       4.432   3.855  18.933  0.00  0.00    +0.000 A 
ATOM      6  C   UNL     1       3.189   4.423  19.401  0.00  0.00    +0.000 A 
ENDROOT
BRANCH   5   7
ATOM      7  C   UNL     1       5.295   4.299  17.828  0.00  0.00    +0.000 A 
ATOM      8  C   UNL     1       4.923   4.009  16.507  0.00  0.00    +0.000 A 
ATOM      9  F   UNL     1       3.723   3.471  16.230  0.00  0.00    +0.000 F 
ATOM     10  C   UNL     1       5.754   4.278  15.421  0.00  0.00    +0.000 A 
ATOM     11  C   UNL     1       6.958   4.935  15.622  0.00  0.00    +0.000 A 
ATOM     12  C   UNL     1       7.319   5.319  16.912  0.00  0.00    +0.000 A 
ATOM     13  C   UNL     1       6.505   4.994  18.013  0.00  0.00    +0.000 A 
ATOM     14 CL   UNL     1       7.120   5.488  19.557  0.00  0.00    +0.000 Cl
ENDBRANCH   5   7
BRANCH   6  15
ATOM     15  C   UNL     1       2.447   5.546  18.849  0.00  0.00    +0.000 C 
ATOM     16  O   UNL     1       1.661   5.399  17.920  0.00  0.00    +0.000 OA
ATOM     17  N   UNL     1       2.711   6.780  19.408  0.00  0.00    +0.000 N 
ATOM     18  H   UNL     1       3.399   6.867  20.140  0.00  0.00    +0.000 HD
BRANCH  17  19
ATOM     19  C   UNL     1       2.104   7.990  18.893  0.00  0.00    +0.000 C 
BRANCH  19  20
ATOM     20  C   UNL     1       1.352   8.757  19.958  0.00  0.00    +0.000 A 
ATOM     21  C   UNL     1       1.211   8.211  21.246  0.00  0.00    +0.000 A 
ATOM     22  C   UNL     1       0.558   8.926  22.255  0.00  0.00    +0.000 A 
ATOM     23  C   UNL     1       0.033  10.182  21.982  0.00  0.00    +0.000 A 
ATOM     24  F   UNL     1      -0.587  10.868  22.949  0.00  0.00    +0.000 F 
ATOM     25  C   UNL     1       0.148  10.735  20.710  0.00  0.00    +0.000 A 
ATOM     26  C   UNL     1       0.803  10.026  19.699  0.00  0.00    +0.000 A 
ENDBRANCH  19  20
ENDBRANCH  17  19
ENDBRANCH   6  15
TORSDOF 4
ENDMDL
MODEL 2
REMARK VINA RESULT:      -8.4      2.339      4.070
REMARK  Name = 
REMARK  5 active torsions:
REMARK  status: ('A' for Active; 'I' for Inactive)
REMARK    1  A    between atoms: C_1  and  C_2
REMARK    2  A    between atoms: C_5  and  C_6
REMARK    3  A    between atoms: C_14  and  C_15
REMARK    4  A    between atoms: N_17  and  C_18
REMARK    5  A    between atoms: C_18  and  C_19
REMARK                            x       y       z     vdW  Elec       q    Type
REMARK                         _______ _______ _______ _____ _____    ______ ____
ROOT
ATOM      1  C   UNL     1       7.497   6.578  18.053  0.00  0.00    +0.000 C 
ATOM      2  C   UNL     1       6.382   5.709  18.471  0.00  0.00    +0.000 A 
ATOM      3  O   UNL     1       6.735   4.671  19.267  0.00  0.00    +0.000 OA
ATOM      4  N   UNL     1       5.624   3.938  19.590  0.00  0.00    +0.000 NA
ATOM      5  C   UNL     1       4.572   4.546  19.035  0.00  0.00    +0.000 A 
ATOM      6  C   UNL     1       5.013   5.695  18.280  0.00  0.00    +0.000 A 
ENDROOT
BRANCH   5   7
ATOM      7  C   UNL     1       3.210   4.014  19.202  0.00  0.00    +0.000 A 
ATOM      8  C   UNL     1       2.364   4.581  20.167  0.00  0.00    +0.000 A 
ATOM      9  F   UNL     1       2.722   5.694  20.830  0.00  0.00    +0.000 F 
ATOM     10  C   UNL     1       1.115   4.044  20.472  0.00  0.00    +0.000 A 
ATOM     11  C   UNL     1       0.634   2.964  19.748  0.00  0.00    +0.000 A 
ATOM     12  C   UNL     1       1.411   2.431  18.721  0.00  0.00    +0.000 A 
ATOM     13  C   UNL     1       2.696   2.938  18.454  0.00  0.00    +0.000 A 
ATOM     14 CL   UNL     1       3.560   2.130  17.186  0.00  0.00    +0.000 Cl
ENDBRANCH   5   7
BRANCH   6  15
ATOM     15  C   UNL     1       4.204   6.654  17.544  0.00  0.00    +0.000 C 
ATOM     16  O   UNL     1       4.427   6.909  16.365  0.00  0.00    +0.000 OA
ATOM     17  N   UNL     1       3.205   7.281  18.261  0.00  0.00    +0.000 N 
ATOM     18  H   UNL     1       3.083   7.079  19.241  0.00  0.00    +0.000 HD
BRANCH  17  19
ATOM     19  C   UNL     1       2.385   8.318  17.670  0.00  0.00    +0.000 C 
BRANCH  19  20
ATOM     20  C   UNL     1       1.488   8.993  18.684  0.00  0.00    +0.000 A 
ATOM     21  C   UNL     1       0.627  10.028  18.278  0.00  0.00    +0.000 A 
ATOM     22  C   UNL     1      -0.241  10.632  19.192  0.00  0.00    +0.000 A 
ATOM     23  C   UNL     1      -0.247  10.216  20.517  0.00  0.00    +0.000 A 
ATOM     24  F   UNL     1      -1.082  10.790  21.391  0.00  0.00    +0.000 F 
ATOM     25  C   UNL     1       0.608   9.204  20.944  0.00  0.00    +0.000 A 
ATOM     26  C   UNL     1       1.475   8.593  20.033  0.00  0.00    +0.000 A 
ENDBRANCH  19  20
ENDBRANCH  17  19
ENDBRANCH   6  15
TORSDOF 4
ENDMDL
MODEL 3
REMARK VINA RESULT:      -8.4      2.075      3.620
REMARK  Name = 
REMARK  5 active torsions:
REMARK  status: ('A' for Active; 'I' for Inactive)
REMARK    1  A    between atoms: C_1  and  C_2
REMARK    2  A    between atoms: C_5  and  C_6
REMARK    3  A    between atoms: C_14  and  C_15
REMARK    4  A    between atoms: N_17  and  C_18
REMARK    5  A    between atoms: C_18  and  C_19
REMARK                            x       y       z     vdW  Elec       q    Type
REMARK                         _______ _______ _______ _____ _____    ______ ____
ROOT
ATOM      1  C   UNL     1       7.538   6.747  18.161  0.00  0.00    +0.000 C 
ATOM      2  C   UNL     1       6.475   5.775  18.477  0.00  0.00    +0.000 A 
ATOM      3  O   UNL     1       6.866   4.734  19.251  0.00  0.00    +0.000 OA
ATOM      4  N   UNL     1       5.801   3.903  19.479  0.00  0.00    +0.000 NA
ATOM      5  C   UNL     1       4.736   4.451  18.887  0.00  0.00    +0.000 A 
ATOM      6  C   UNL     1       5.125   5.663  18.205  0.00  0.00    +0.000 A 
ENDROOT
BRANCH   5   7
ATOM      7  C   UNL     1       3.414   3.807  18.951  0.00  0.00    +0.000 A 
ATOM      8  C   UNL     1       3.117   2.760  18.066  0.00  0.00    +0.000 A 
ATOM      9  F   UNL     1       4.067   2.237  17.271  0.00  0.00    +0.000 F 
ATOM     10  C   UNL     1       1.846   2.197  17.977  0.00  0.00    +0.000 A 
ATOM     11  C   UNL     1       0.847   2.609  18.846  0.00  0.00    +0.000 A 
ATOM     12  C   UNL     1       1.133   3.585  19.799  0.00  0.00    +0.000 A 
ATOM     13  C   UNL     1       2.401   4.194  19.847  0.00  0.00    +0.000 A 
ATOM     14 CL   UNL     1       2.580   5.431  21.049  0.00  0.00    +0.000 Cl
ENDBRANCH   5   7
BRANCH   6  15
ATOM     15  C   UNL     1       4.284   6.588  17.460  0.00  0.00    +0.000 C 
ATOM     16  O   UNL     1       4.468   6.802  16.267  0.00  0.00    +0.000 OA
ATOM     17  N   UNL     1       3.301   7.230  18.185  0.00  0.00    +0.000 N 
ATOM     18  H   UNL     1       3.210   7.063  19.175  0.00  0.00    +0.000 HD
BRANCH  17  19
ATOM     19  C   UNL     1       2.453   8.238  17.583  0.00  0.00    +0.000 C 
BRANCH  19  20
ATOM     20  C   UNL     1       1.527   8.889  18.587  0.00  0.00    +0.000 A 
ATOM     21  C   UNL     1       1.507   8.434  19.917  0.00  0.00    +0.000 A 
ATOM     22  C   UNL     1       0.691   9.054  20.869  0.00  0.00    +0.000 A 
ATOM     23  C   UNL     1      -0.116  10.121  20.497  0.00  0.00    +0.000 A 
ATOM     24  F   UNL     1      -0.892  10.717  21.410  0.00  0.00    +0.000 F 
ATOM     25  C   UNL     1      -0.123  10.578  19.183  0.00  0.00    +0.000 A 
ATOM     26  C   UNL     1       0.695   9.964  18.228  0.00  0.00    +0.000 A 
ENDBRANCH  19  20
ENDBRANCH  17  19
ENDBRANCH   6  15
TORSDOF 4
ENDMDL
MODEL 4
REMARK VINA RESULT:      -8.4      2.277      3.953
REMARK  Name = 
REMARK  5 active torsions:
REMARK  status: ('A' for Active; 'I' for Inactive)
REMARK    1  A    between atoms: C_1  and  C_2
REMARK    2  A    between atoms: C_5  and  C_6
REMARK    3  A    between atoms: C_14  and  C_15
REMARK    4  A    between atoms: N_17  and  C_18
REMARK    5  A    between atoms: C_18  and  C_19
REMARK                            x       y       z     vdW  Elec       q    Type
REMARK                         _______ _______ _______ _____ _____    ______ ____
ROOT
ATOM      1  C   UNL     1       7.384   6.397  17.910  0.00  0.00    +0.000 C 
ATOM      2  C   UNL     1       6.249   5.557  18.334  0.00  0.00    +0.000 A 
ATOM      3  O   UNL     1       6.589   4.444  19.026  0.00  0.00    +0.000 OA
ATOM      4  N   UNL     1       5.460   3.747  19.366  0.00  0.00    +0.000 NA
ATOM      5  C   UNL     1       4.412   4.452  18.928  0.00  0.00    +0.000 A 
ATOM      6  C   UNL     1       4.872   5.631  18.232  0.00  0.00    +0.000 A 
ENDROOT
BRANCH   5   7
ATOM      7  C   UNL     1       3.035   3.981  19.142  0.00  0.00    +0.000 A 
ATOM      8  C   UNL     1       2.332   4.408  20.279  0.00  0.00    +0.000 A 
ATOM      9  F   UNL     1       2.838   5.354  21.088  0.00  0.00    +0.000 F 
ATOM     10  C   UNL     1       1.080   3.899  20.616  0.00  0.00    +0.000 A 
ATOM     11  C   UNL     1       0.448   3.004  19.766  0.00  0.00    +0.000 A 
ATOM     12  C   UNL     1       1.079   2.627  18.582  0.00  0.00    +0.000 A 
ATOM     13  C   UNL     1       2.368   3.096  18.273  0.00  0.00    +0.000 A 
ATOM     14 CL   UNL     1       3.041   2.489  16.795  0.00  0.00    +0.000 Cl
ENDBRANCH   5   7
BRANCH   6  15
ATOM     15  C   UNL     1       4.077   6.685  17.623  0.00  0.00    +0.000 C 
ATOM     16  O   UNL     1       4.297   7.076  16.482  0.00  0.00    +0.000 OA
ATOM     17  N   UNL     1       3.093   7.238  18.418  0.00  0.00    +0.000 N 
ATOM     18  H   UNL     1       2.973   6.922  19.367  0.00  0.00    +0.000 HD
BRANCH  17  19
ATOM     19  C   UNL     1       2.288   8.353  17.962  0.00  0.00    +0.000 C 
BRANCH  19  20
ATOM     20  C   UNL     1       1.407   8.914  19.056  0.00  0.00    +0.000 A 
ATOM     21  C   UNL     1       1.415   8.325  20.332  0.00  0.00    +0.000 A 
ATOM     22  C   UNL     1       0.641   8.858  21.368  0.00  0.00    +0.000 A 
ATOM     23  C   UNL     1      -0.153   9.972  21.132  0.00  0.00    +0.000 A 
ATOM     24  F   UNL     1      -0.890  10.485  22.125  0.00  0.00    +0.000 F 
ATOM     25  C   UNL     1      -0.188  10.562  19.873  0.00  0.00    +0.000 A 
ATOM     26  C   UNL     1       0.588  10.035  18.835  0.00  0.00    +0.000 A 
ENDBRANCH  19  20
ENDBRANCH  17  19
ENDBRANCH   6  15
TORSDOF 4
ENDMDL
MODEL 5
REMARK VINA RESULT:      -8.2      2.077      3.742
REMARK  Name = 
REMARK  5 active torsions:
REMARK  status: ('A' for Active; 'I' for Inactive)
REMARK    1  A    between atoms: C_1  and  C_2
REMARK    2  A    between atoms: C_5  and  C_6
REMARK    3  A    between atoms: C_14  and  C_15
REMARK    4  A    between atoms: N_17  and  C_18
REMARK    5  A    between atoms: C_18  and  C_19
REMARK                            x       y       z     vdW  Elec       q    Type
REMARK                         _______ _______ _______ _____ _____    ______ ____
ROOT
ATOM      1  C   UNL     1       7.473   6.760  18.170  0.00  0.00    +0.000 C 
ATOM      2  C   UNL     1       6.417   5.779  18.478  0.00  0.00    +0.000 A 
ATOM      3  O   UNL     1       6.818   4.725  19.229  0.00  0.00    +0.000 OA
ATOM      4  N   UNL     1       5.759   3.885  19.450  0.00  0.00    +0.000 NA
ATOM      5  C   UNL     1       4.686   4.440  18.878  0.00  0.00    +0.000 A 
ATOM      6  C   UNL     1       5.064   5.667  18.216  0.00  0.00    +0.000 A 
ENDROOT
BRANCH   5   7
ATOM      7  C   UNL     1       3.368   3.790  18.941  0.00  0.00    +0.000 A 
ATOM      8  C   UNL     1       3.078   2.738  18.059  0.00  0.00    +0.000 A 
ATOM      9  F   UNL     1       4.031   2.218  17.268  0.00  0.00    +0.000 F 
ATOM     10  C   UNL     1       1.809   2.168  17.971  0.00  0.00    +0.000 A 
ATOM     11  C   UNL     1       0.807   2.578  18.836  0.00  0.00    +0.000 A 
ATOM     12  C   UNL     1       1.086   3.559  19.786  0.00  0.00    +0.000 A 
ATOM     13  C   UNL     1       2.350   4.174  19.834  0.00  0.00    +0.000 A 
ATOM     14 CL   UNL     1       2.521   5.417  21.032  0.00  0.00    +0.000 Cl
ENDBRANCH   5   7
BRANCH   6  15
ATOM     15  C   UNL     1       4.213   6.602  17.496  0.00  0.00    +0.000 C 
ATOM     16  O   UNL     1       4.411   6.871  16.316  0.00  0.00    +0.000 OA
ATOM     17  N   UNL     1       3.203   7.189  18.230  0.00  0.00    +0.000 N 
ATOM     18  H   UNL     1       3.101   6.978  19.210  0.00  0.00    +0.000 HD
BRANCH  17  19
ATOM     19  C   UNL     1       2.340   8.201  17.656  0.00  0.00    +0.000 C 
BRANCH  19  20
ATOM     20  C   UNL     1       1.681   9.064  18.711  0.00  0.00    +0.000 A 
ATOM     21  C   UNL     1       1.302  10.381  18.400  0.00  0.00    +0.000 A 
ATOM     22  C   UNL     1       0.652  11.177  19.347  0.00  0.00    +0.000 A 
ATOM     23  C   UNL     1       0.388  10.668  20.612  0.00  0.00    +0.000 A 
ATOM     24  F   UNL     1      -0.240  11.428  21.517  0.00  0.00    +0.000 F 
ATOM     25  C   UNL     1       0.768   9.372  20.946  0.00  0.00    +0.000 A 
ATOM     26  C   UNL     1       1.415   8.570  20.000  0.00  0.00    +0.000 A 
ENDBRANCH  19  20
ENDBRANCH  17  19
ENDBRANCH   6  15
TORSDOF 4
ENDMDL
MODEL 6
REMARK VINA RESULT:      -8.1      1.594      2.112
REMARK  Name = 
REMARK  5 active torsions:
REMARK  status: ('A' for Active; 'I' for Inactive)
REMARK    1  A    between atoms: C_1  and  C_2
REMARK    2  A    between atoms: C_5  and  C_6
REMARK    3  A    between atoms: C_14  and  C_15
REMARK    4  A    between atoms: N_17  and  C_18
REMARK    5  A    between atoms: C_18  and  C_19
REMARK                            x       y       z     vdW  Elec       q    Type
REMARK                         _______ _______ _______ _____ _____    ______ ____
ROOT
ATOM      1  C   UNL     1       1.553   3.398  21.096  0.00  0.00    +0.000 C 
ATOM      2  C   UNL     1       2.812   3.665  20.379  0.00  0.00    +0.000 A 
ATOM      3  O   UNL     1       3.788   2.746  20.576  0.00  0.00    +0.000 OA
ATOM      4  N   UNL     1       4.904   3.096  19.863  0.00  0.00    +0.000 NA
ATOM      5  C   UNL     1       4.608   4.208  19.183  0.00  0.00    +0.000 A 
ATOM      6  C   UNL     1       3.263   4.630  19.497  0.00  0.00    +0.000 A 
ENDROOT
BRANCH   5   7
ATOM      7  C   UNL     1       5.598   4.847  18.301  0.00  0.00    +0.000 A 
ATOM      8  C   UNL     1       6.662   5.562  18.869  0.00  0.00    +0.000 A 
ATOM      9  F   UNL     1       6.877   5.544  20.196  0.00  0.00    +0.000 F 
ATOM     10  C   UNL     1       7.557   6.303  18.100  0.00  0.00    +0.000 A 
ATOM     11  C   UNL     1       7.464   6.276  16.717  0.00  0.00    +0.000 A 
ATOM     12  C   UNL     1       6.473   5.502  16.116  0.00  0.00    +0.000 A 
ATOM     13  C   UNL     1       5.534   4.802  16.896  0.00  0.00    +0.000 A 
ATOM     14 CL   UNL     1       4.329   3.936  16.000  0.00  0.00    +0.000 Cl
ENDBRANCH   5   7
BRANCH   6  15
ATOM     15  C   UNL     1       2.528   5.767  18.965  0.00  0.00    +0.000 C 
ATOM     16  O   UNL     1       1.960   5.712  17.880  0.00  0.00    +0.000 OA
ATOM     17  N   UNL     1       2.543   6.912  19.736  0.00  0.00    +0.000 N 
ATOM     18  H   UNL     1       3.061   6.934  20.601  0.00  0.00    +0.000 HD
BRANCH  17  19
ATOM     19  C   UNL     1       1.924   8.139  19.280  0.00  0.00    +0.000 C 
BRANCH  19  20
ATOM     20  C   UNL     1       1.182   8.857  20.387  0.00  0.00    +0.000 A 
ATOM     21  C   UNL     1       0.275   9.883  20.070  0.00  0.00    +0.000 A 
ATOM     22  C   UNL     1      -0.452  10.526  21.076  0.00  0.00    +0.000 A 
ATOM     23  C   UNL     1      -0.270  10.158  22.403  0.00  0.00    +0.000 A 
ATOM     24  F   UNL     1      -0.970  10.769  23.365  0.00  0.00    +0.000 F 
ATOM     25  C   UNL     1       0.634   9.155  22.740  0.00  0.00    +0.000 A 
ATOM     26  C   UNL     1       1.361   8.506  21.737  0.00  0.00    +0.000 A 
ENDBRANCH  19  20
ENDBRANCH  17  19
ENDBRANCH   6  15
TORSDOF 4
ENDMDL
MODEL 7
REMARK VINA RESULT:      -8.1      1.588      1.897
REMARK  Name = 
REMARK  5 active torsions:
REMARK  status: ('A' for Active; 'I' for Inactive)
REMARK    1  A    between atoms: C_1  and  C_2
REMARK    2  A    between atoms: C_5  and  C_6
REMARK    3  A    between atoms: C_14  and  C_15
REMARK    4  A    between atoms: N_17  and  C_18
REMARK    5  A    between atoms: C_18  and  C_19
REMARK                            x       y       z     vdW  Elec       q    Type
REMARK                         _______ _______ _______ _____ _____    ______ ____
ROOT
ATOM      1  C   UNL     1       1.682   2.941  20.835  0.00  0.00    +0.000 C 
ATOM      2  C   UNL     1       2.948   3.345  20.196  0.00  0.00    +0.000 A 
ATOM      3  O   UNL     1       3.996   2.519  20.432  0.00  0.00    +0.000 OA
ATOM      4  N   UNL     1       5.111   2.992  19.792  0.00  0.00    +0.000 NA
ATOM      5  C   UNL     1       4.746   4.087  19.117  0.00  0.00    +0.000 A 
ATOM      6  C   UNL     1       3.351   4.371  19.362  0.00  0.00    +0.000 A 
ENDROOT
BRANCH   5   7
ATOM      7  C   UNL     1       5.716   4.840  18.307  0.00  0.00    +0.000 A 
ATOM      8  C   UNL     1       6.729   5.568  18.949  0.00  0.00    +0.000 A 
ATOM      9  F   UNL     1       6.918   5.466  20.275  0.00  0.00    +0.000 F 
ATOM     10  C   UNL     1       7.596   6.410  18.255  0.00  0.00    +0.000 A 
ATOM     11  C   UNL     1       7.532   6.477  16.872  0.00  0.00    +0.000 A 
ATOM     12  C   UNL     1       6.596   5.697  16.194  0.00  0.00    +0.000 A 
ATOM     13  C   UNL     1       5.683   4.894  16.901  0.00  0.00    +0.000 A 
ATOM     14 CL   UNL     1       4.544   4.031  15.918  0.00  0.00    +0.000 Cl
ENDBRANCH   5   7
BRANCH   6  15
ATOM     15  C   UNL     1       2.540   5.444  18.810  0.00  0.00    +0.000 C 
ATOM     16  O   UNL     1       1.742   5.242  17.901  0.00  0.00    +0.000 OA
ATOM     17  N   UNL     1       2.751   6.699  19.344  0.00  0.00    +0.000 N 
ATOM     18  H   UNL     1       3.450   6.834  20.059  0.00  0.00    +0.000 HD
BRANCH  17  19
ATOM     19  C   UNL     1       2.071   7.868  18.825  0.00  0.00    +0.000 C 
BRANCH  19  20
ATOM     20  C   UNL     1       1.373   8.659  19.910  0.00  0.00    +0.000 A 
ATOM     21  C   UNL     1       1.428   8.217  21.243  0.00  0.00    +0.000 A 
ATOM     22  C   UNL     1       0.827   8.959  22.265  0.00  0.00    +0.000 A 
ATOM     23  C   UNL     1       0.159  10.138  21.960  0.00  0.00    +0.000 A 
ATOM     24  F   UNL     1      -0.411  10.851  22.938  0.00  0.00    +0.000 F 
ATOM     25  C   UNL     1       0.080  10.586  20.645  0.00  0.00    +0.000 A 
ATOM     26  C   UNL     1       0.683   9.849  19.620  0.00  0.00    +0.000 A 
ENDBRANCH  19  20
ENDBRANCH  17  19
ENDBRANCH   6  15
TORSDOF 4
ENDMDL
MODEL 8
REMARK VINA RESULT:      -7.5      2.137      4.024
REMARK  Name = 
REMARK  5 active torsions:
REMARK  status: ('A' for Active; 'I' for Inactive)
REMARK    1  A    between atoms: C_1  and  C_2
REMARK    2  A    between atoms: C_5  and  C_6
REMARK    3  A    between atoms: C_14  and  C_15
REMARK    4  A    between atoms: N_17  and  C_18
REMARK    5  A    between atoms: C_18  and  C_19
REMARK                            x       y       z     vdW  Elec       q    Type
REMARK                         _______ _______ _______ _____ _____    ______ ____
ROOT
ATOM      1  C   UNL     1       6.020   4.796  15.106  0.00  0.00    +0.000 C 
ATOM      2  C   UNL     1       5.133   4.228  16.138  0.00  0.00    +0.000 A 
ATOM      3  O   UNL     1       4.935   2.891  16.048  0.00  0.00    +0.000 OA
ATOM      4  N   UNL     1       4.100   2.479  17.053  0.00  0.00    +0.000 NA
ATOM      5  C   UNL     1       3.817   3.551  17.798  0.00  0.00    +0.000 A 
ATOM      6  C   UNL     1       4.451   4.720  17.235  0.00  0.00    +0.000 A 
ENDROOT
BRANCH   5   7
ATOM      7  C   UNL     1       2.943   3.449  18.977  0.00  0.00    +0.000 A 
ATOM      8  C   UNL     1       1.653   3.997  18.925  0.00  0.00    +0.000 A 
ATOM      9  F   UNL     1       1.151   4.473  17.773  0.00  0.00    +0.000 F 
ATOM     10  C   UNL     1       0.822   4.057  20.043  0.00  0.00    +0.000 A 
ATOM     11  C   UNL     1       1.230   3.481  21.236  0.00  0.00    +0.000 A 
ATOM     12  C   UNL     1       2.471   2.849  21.299  0.00  0.00    +0.000 A 
ATOM     13  C   UNL     1       3.331   2.841  20.186  0.00  0.00    +0.000 A 
ATOM     14 CL   UNL     1       4.861   2.067  20.442  0.00  0.00    +0.000 Cl
ENDBRANCH   5   7
BRANCH   6  15
ATOM     15  C   UNL     1       4.432   6.085  17.737  0.00  0.00    +0.000 C 
ATOM     16  O   UNL     1       5.315   6.509  18.474  0.00  0.00    +0.000 OA
ATOM     17  N   UNL     1       3.348   6.853  17.363  0.00  0.00    +0.000 N 
ATOM     18  H   UNL     1       2.618   6.455  16.793  0.00  0.00    +0.000 HD
BRANCH  17  19
ATOM     19  C   UNL     1       3.165   8.200  17.863  0.00  0.00    +0.000 C 
BRANCH  19  20
ATOM     20  C   UNL     1       2.146   8.267  18.980  0.00  0.00    +0.000 A 
ATOM     21  C   UNL     1       2.172   7.311  20.009  0.00  0.00    +0.000 A 
ATOM     22  C   UNL     1       1.267   7.384  21.073  0.00  0.00    +0.000 A 
ATOM     23  C   UNL     1       0.325   8.404  21.108  0.00  0.00    +0.000 A 
ATOM     24  F   UNL     1      -0.537   8.477  22.129  0.00  0.00    +0.000 F 
ATOM     25  C   UNL     1       0.272   9.353  20.092  0.00  0.00    +0.000 A 
ATOM     26  C   UNL     1       1.178   9.286  19.028  0.00  0.00    +0.000 A 
ENDBRANCH  19  20
ENDBRANCH  17  19
ENDBRANCH   6  15
TORSDOF 4
ENDMDL
MODEL 9
REMARK VINA RESULT:      -7.4      2.257      2.849
REMARK  Name = 
REMARK  5 active torsions:
REMARK  status: ('A' for Active; 'I' for Inactive)
REMARK    1  A    between atoms: C_1  and  C_2
REMARK    2  A    between atoms: C_5  and  C_6
REMARK    3  A    between atoms: C_14  and  C_15
REMARK    4  A    between atoms: N_17  and  C_18
REMARK    5  A    between atoms: C_18  and  C_19
REMARK                            x       y       z     vdW  Elec       q    Type
REMARK                         _______ _______ _______ _____ _____    ______ ____
ROOT
ATOM      1  C   UNL     1       0.600   3.270  18.276  0.00  0.00    +0.000 C 
ATOM      2  C   UNL     1       1.978   3.724  18.016  0.00  0.00    +0.000 A 
ATOM      3  O   UNL     1       2.557   3.189  16.915  0.00  0.00    +0.000 OA
ATOM      4  N   UNL     1       3.828   3.681  16.775  0.00  0.00    +0.000 NA
ATOM      5  C   UNL     1       4.023   4.560  17.763  0.00  0.00    +0.000 A 
ATOM      6  C   UNL     1       2.855   4.612  18.610  0.00  0.00    +0.000 A 
ENDROOT
BRANCH   5   7
ATOM      7  C   UNL     1       5.297   5.284  17.896  0.00  0.00    +0.000 A 
ATOM      8  C   UNL     1       6.141   4.997  18.979  0.00  0.00    +0.000 A 
ATOM      9  F   UNL     1       5.878   3.970  19.806  0.00  0.00    +0.000 F 
ATOM     10  C   UNL     1       7.293   5.735  19.243  0.00  0.00    +0.000 A 
ATOM     11  C   UNL     1       7.687   6.735  18.367  0.00  0.00    +0.000 A 
ATOM     12  C   UNL     1       6.919   6.987  17.232  0.00  0.00    +0.000 A 
ATOM     13  C   UNL     1       5.725   6.281  16.999  0.00  0.00    +0.000 A 
ATOM     14 CL   UNL     1       4.855   6.752  15.575  0.00  0.00    +0.000 Cl
ENDBRANCH   5   7
BRANCH   6  15
ATOM     15  C   UNL     1       2.625   5.449  19.777  0.00  0.00    +0.000 C 
ATOM     16  O   UNL     1       2.671   4.991  20.914  0.00  0.00    +0.000 OA
ATOM     17  N   UNL     1       2.317   6.770  19.524  0.00  0.00    +0.000 N 
ATOM     18  H   UNL     1       2.242   7.099  18.574  0.00  0.00    +0.000 HD
BRANCH  17  19
ATOM     19  C   UNL     1       1.981   7.688  20.593  0.00  0.00    +0.000 C 
BRANCH  19  20
ATOM     20  C   UNL     1       1.134   8.847  20.114  0.00  0.00    +0.000 A 
ATOM     21  C   UNL     1       1.202   9.255  18.771  0.00  0.00    +0.000 A 
ATOM     22  C   UNL     1       0.393  10.294  18.301  0.00  0.00    +0.000 A 
ATOM     23  C   UNL     1      -0.477  10.939  19.170  0.00  0.00    +0.000 A 
ATOM     24  F   UNL     1      -1.255  11.929  18.718  0.00  0.00    +0.000 F 
ATOM     25  C   UNL     1      -0.550  10.561  20.507  0.00  0.00    +0.000 A 
ATOM     26  C   UNL     1       0.254   9.519  20.981  0.00  0.00    +0.000 A 
ENDBRANCH  19  20
ENDBRANCH  17  19
ENDBRANCH   6  15
TORSDOF 4
ENDMDL
