MODEL 1
REMARK VINA RESULT:      -7.1      0.000      0.000
REMARK  Name = 
REMARK  13 active torsions:
REMARK  status: ('A' for Active; 'I' for Inactive)
REMARK    1  A    between atoms: C_1  and  C_2
REMARK    2  A    between atoms: C_2  and  C_3
REMARK    3  A    between atoms: C_3  and  C_4
REMARK    4  A    between atoms: C_4  and  C_5
REMARK    5  A    between atoms: C_5  and  C_6
REMARK    6  A    between atoms: C_6  and  C_7
REMARK    7  A    between atoms: C_7  and  C_8
REMARK    8  A    between atoms: C_8  and  C_9
REMARK    9  A    between atoms: N_11  and  C_12
REMARK   10  A    between atoms: C_12  and  C_13
REMARK   11  A    between atoms: C_16  and  O_17
REMARK   12  A    between atoms: C_18  and  O_19
REMARK   13  A    between atoms: O_19  and  C_20
REMARK                            x       y       z     vdW  Elec       q    Type
REMARK                         _______ _______ _______ _____ _____    ______ ____
ROOT
ATOM      1  C   UNL     1       7.157   4.688  17.218  0.00  0.00    +0.000 C 
ATOM      2  O   UNL     1       8.152   4.282  17.816  0.00  0.00    +0.000 OA
ATOM      3  N   UNL     1       6.058   3.881  17.096  0.00  0.00    +0.000 N 
ATOM      4  H   UNL     1       6.125   3.024  17.634  0.00  0.00    +0.000 HD
ENDROOT
BRANCH   1   5
ATOM      5  C   UNL     1       7.127   6.054  16.556  0.00  0.00    +0.000 C 
BRANCH   5   6
ATOM      6  C   UNL     1       6.906   7.195  17.551  0.00  0.00    +0.000 C 
BRANCH   6   7
ATOM      7  C   UNL     1       8.187   7.875  18.030  0.00  0.00    +0.000 C 
BRANCH   7   8
ATOM      8  C   UNL     1       8.146   9.404  17.952  0.00  0.00    +0.000 C 
BRANCH   8   9
ATOM      9  C   UNL     1       9.105  10.022  18.965  0.00  0.00    +0.000 C 
BRANCH   9  10
ATOM     10  C   UNL     1       9.461  11.460  18.594  0.00  0.00    +0.000 C 
BRANCH  10  12
ATOM     11  C   UNL     1      11.257  12.905  17.579  0.00  0.00    +0.000 C 
ATOM     12  C   UNL     1      10.706  11.496  17.711  0.00  0.00    +0.000 C 
ENDBRANCH  10  12
ENDBRANCH   9  10
ENDBRANCH   8   9
ENDBRANCH   7   8
ENDBRANCH   6   7
ENDBRANCH   5   6
ENDBRANCH   1   5
BRANCH   3  13
ATOM     13  C   UNL     1       4.758   4.308  16.637  0.00  0.00    +0.000 C 
BRANCH  13  14
ATOM     14  C   UNL     1       3.876   4.841  17.723  0.00  0.00    +0.000 A 
ATOM     15  C   UNL     1       3.595   6.218  17.679  0.00  0.00    +0.000 A 
ATOM     16  C   UNL     1       2.889   6.828  18.713  0.00  0.00    +0.000 A 
ATOM     17  C   UNL     1       2.472   6.059  19.792  0.00  0.00    +0.000 A 
ATOM     18  C   UNL     1       2.709   4.672  19.858  0.00  0.00    +0.000 A 
ATOM     19  C   UNL     1       3.376   4.051  18.786  0.00  0.00    +0.000 A 
ATOM     20  I   UNL     1       3.504   1.922  18.629  0.00  0.00    +0.000 I 
BRANCH  17  21
ATOM     21  O   UNL     1       1.802   6.677  20.817  0.00  0.00    +0.000 OA
ATOM     22  H   UNL     1       0.985   6.190  21.000  0.00  0.00    +0.000 HD
ENDBRANCH  17  21
BRANCH  18  23
ATOM     23  O   UNL     1       2.148   4.019  20.927  0.00  0.00    +0.000 OA
ATOM     24  C   UNL     1       0.910   3.359  20.674  0.00  0.00    +0.000 C 
ENDBRANCH  18  23
ENDBRANCH  13  14
ENDBRANCH   3  13
TORSDOF 11
ENDMDL
MODEL 2
REMARK VINA RESULT:      -7.0      1.188      1.398
REMARK  Name = 
REMARK  13 active torsions:
REMARK  status: ('A' for Active; 'I' for Inactive)
REMARK    1  A    between atoms: C_1  and  C_2
REMARK    2  A    between atoms: C_2  and  C_3
REMARK    3  A    between atoms: C_3  and  C_4
REMARK    4  A    between atoms: C_4  and  C_5
REMARK    5  A    between atoms: C_5  and  C_6
REMARK    6  A    between atoms: C_6  and  C_7
REMARK    7  A    between atoms: C_7  and  C_8
REMARK    8  A    between atoms: C_8  and  C_9
REMARK    9  A    between atoms: N_11  and  C_12
REMARK   10  A    between atoms: C_12  and  C_13
REMARK   11  A    between atoms: C_16  and  O_17
REMARK   12  A    between atoms: C_18  and  O_19
REMARK   13  A    between atoms: O_19  and  C_20
REMARK                            x       y       z     vdW  Elec       q    Type
REMARK                         _______ _______ _______ _____ _____    ______ ____
ROOT
ATOM      1  C   UNL     1       6.840   5.097  15.920  0.00  0.00    +0.000 C 
ATOM      2  O   UNL     1       7.475   5.668  15.036  0.00  0.00    +0.000 OA
ATOM      3  N   UNL     1       5.486   4.935  15.792  0.00  0.00    +0.000 N 
ATOM      4  H   UNL     1       5.131   5.213  14.883  0.00  0.00    +0.000 HD
ENDROOT
BRANCH   1   5
ATOM      5  C   UNL     1       7.508   4.605  17.192  0.00  0.00    +0.000 C 
BRANCH   5   6
ATOM      6  C   UNL     1       7.449   5.626  18.330  0.00  0.00    +0.000 C 
BRANCH   6   7
ATOM      7  C   UNL     1       7.505   7.083  17.879  0.00  0.00    +0.000 C 
BRANCH   7   8
ATOM      8  C   UNL     1       8.513   7.937  18.653  0.00  0.00    +0.000 C 
BRANCH   8   9
ATOM      9  C   UNL     1       8.471   9.386  18.178  0.00  0.00    +0.000 C 
BRANCH   9  10
ATOM     10  C   UNL     1       8.994  10.341  19.248  0.00  0.00    +0.000 C 
BRANCH  10  12
ATOM     11  C   UNL     1      10.948  11.775  19.935  0.00  0.00    +0.000 C 
ATOM     12  C   UNL     1      10.332  10.945  18.823  0.00  0.00    +0.000 C 
ENDBRANCH  10  12
ENDBRANCH   9  10
ENDBRANCH   8   9
ENDBRANCH   7   8
ENDBRANCH   6   7
ENDBRANCH   5   6
ENDBRANCH   1   5
BRANCH   3  13
ATOM     13  C   UNL     1       4.665   4.089  16.625  0.00  0.00    +0.000 C 
BRANCH  13  14
ATOM     14  C   UNL     1       3.819   4.841  17.605  0.00  0.00    +0.000 A 
ATOM     15  C   UNL     1       3.894   6.244  17.547  0.00  0.00    +0.000 A 
ATOM     16  C   UNL     1       3.242   7.025  18.496  0.00  0.00    +0.000 A 
ATOM     17  C   UNL     1       2.522   6.400  19.508  0.00  0.00    +0.000 A 
ATOM     18  C   UNL     1       2.400   4.999  19.583  0.00  0.00    +0.000 A 
ATOM     19  C   UNL     1       3.017   4.216  18.590  0.00  0.00    +0.000 A 
ATOM     20  I   UNL     1       2.634   2.119  18.420  0.00  0.00    +0.000 I 
BRANCH  17  21
ATOM     21  O   UNL     1       1.908   7.181  20.453  0.00  0.00    +0.000 OA
ATOM     22  H   UNL     1       1.215   6.664  20.890  0.00  0.00    +0.000 HD
ENDBRANCH  17  21
BRANCH  18  23
ATOM     23  O   UNL     1       1.573   4.522  20.567  0.00  0.00    +0.000 OA
ATOM     24  C   UNL     1       2.215   3.879  21.665  0.00  0.00    +0.000 C 
ENDBRANCH  18  23
ENDBRANCH  13  14
ENDBRANCH   3  13
TORSDOF 11
ENDMDL
MODEL 3
REMARK VINA RESULT:      -6.5      3.578      6.352
REMARK  Name = 
REMARK  13 active torsions:
REMARK  status: ('A' for Active; 'I' for Inactive)
REMARK    1  A    between atoms: C_1  and  C_2
REMARK    2  A    between atoms: C_2  and  C_3
REMARK    3  A    between atoms: C_3  and  C_4
REMARK    4  A    between atoms: C_4  and  C_5
REMARK    5  A    between atoms: C_5  and  C_6
REMARK    6  A    between atoms: C_6  and  C_7
REMARK    7  A    between atoms: C_7  and  C_8
REMARK    8  A    between atoms: C_8  and  C_9
REMARK    9  A    between atoms: N_11  and  C_12
REMARK   10  A    between atoms: C_12  and  C_13
REMARK   11  A    between atoms: C_16  and  O_17
REMARK   12  A    between atoms: C_18  and  O_19
REMARK   13  A    between atoms: O_19  and  C_20
REMARK                            x       y       z     vdW  Elec       q    Type
REMARK                         _______ _______ _______ _____ _____    ______ ____
ROOT
ATOM      1  C   UNL     1       6.214   6.304  16.645  0.00  0.00    +0.000 C 
ATOM      2  O   UNL     1       7.398   6.581  16.828  0.00  0.00    +0.000 OA
ATOM      3  N   UNL     1       5.329   6.368  17.688  0.00  0.00    +0.000 N 
ATOM      4  H   UNL     1       5.727   6.767  18.532  0.00  0.00    +0.000 HD
ENDROOT
BRANCH   1   5
ATOM      5  C   UNL     1       5.704   5.837  15.294  0.00  0.00    +0.000 C 
BRANCH   5   6
ATOM      6  C   UNL     1       6.052   4.378  14.997  0.00  0.00    +0.000 C 
BRANCH   6   7
ATOM      7  C   UNL     1       5.490   3.847  13.680  0.00  0.00    +0.000 C 
BRANCH   7   8
ATOM      8  C   UNL     1       6.561   3.392  12.684  0.00  0.00    +0.000 C 
BRANCH   8   9
ATOM      9  C   UNL     1       5.953   3.173  11.302  0.00  0.00    +0.000 C 
BRANCH   9  10
ATOM     10  C   UNL     1       4.450   2.914  11.387  0.00  0.00    +0.000 C 
BRANCH  10  12
ATOM     11  C   UNL     1       3.007   3.836   9.539  0.00  0.00    +0.000 C 
ATOM     12  C   UNL     1       3.666   4.122  10.877  0.00  0.00    +0.000 C 
ENDBRANCH  10  12
ENDBRANCH   9  10
ENDBRANCH   8   9
ENDBRANCH   7   8
ENDBRANCH   6   7
ENDBRANCH   5   6
ENDBRANCH   1   5
BRANCH   3  13
ATOM     13  C   UNL     1       3.892   6.304  17.567  0.00  0.00    +0.000 C 
BRANCH  13  14
ATOM     14  C   UNL     1       3.301   5.014  18.046  0.00  0.00    +0.000 A 
ATOM     15  C   UNL     1       3.665   3.858  17.332  0.00  0.00    +0.000 A 
ATOM     16  C   UNL     1       3.070   2.633  17.622  0.00  0.00    +0.000 A 
ATOM     17  C   UNL     1       2.107   2.569  18.621  0.00  0.00    +0.000 A 
ATOM     18  C   UNL     1       1.737   3.698  19.377  0.00  0.00    +0.000 A 
ATOM     19  C   UNL     1       2.379   4.923  19.116  0.00  0.00    +0.000 A 
ATOM     20  I   UNL     1       2.133   6.612  20.403  0.00  0.00    +0.000 I 
BRANCH  17  21
ATOM     21  O   UNL     1       1.509   1.362  18.878  0.00  0.00    +0.000 OA
ATOM     22  H   UNL     1       1.979   0.922  19.602  0.00  0.00    +0.000 HD
ENDBRANCH  17  21
BRANCH  18  23
ATOM     23  O   UNL     1       0.854   3.470  20.402  0.00  0.00    +0.000 OA
ATOM     24  C   UNL     1       1.413   2.934  21.598  0.00  0.00    +0.000 C 
ENDBRANCH  18  23
ENDBRANCH  13  14
ENDBRANCH   3  13
TORSDOF 11
ENDMDL
MODEL 4
REMARK VINA RESULT:      -6.5      3.709      5.938
REMARK  Name = 
REMARK  13 active torsions:
REMARK  status: ('A' for Active; 'I' for Inactive)
REMARK    1  A    between atoms: C_1  and  C_2
REMARK    2  A    between atoms: C_2  and  C_3
REMARK    3  A    between atoms: C_3  and  C_4
REMARK    4  A    between atoms: C_4  and  C_5
REMARK    5  A    between atoms: C_5  and  C_6
REMARK    6  A    between atoms: C_6  and  C_7
REMARK    7  A    between atoms: C_7  and  C_8
REMARK    8  A    between atoms: C_8  and  C_9
REMARK    9  A    between atoms: N_11  and  C_12
REMARK   10  A    between atoms: C_12  and  C_13
REMARK   11  A    between atoms: C_16  and  O_17
REMARK   12  A    between atoms: C_18  and  O_19
REMARK   13  A    between atoms: O_19  and  C_20
REMARK                            x       y       z     vdW  Elec       q    Type
REMARK                         _______ _______ _______ _____ _____    ______ ____
ROOT
ATOM      1  C   UNL     1       6.769   4.487  16.566  0.00  0.00    +0.000 C 
ATOM      2  O   UNL     1       7.883   4.391  17.077  0.00  0.00    +0.000 OA
ATOM      3  N   UNL     1       5.722   3.762  17.070  0.00  0.00    +0.000 N 
ATOM      4  H   UNL     1       5.946   3.275  17.931  0.00  0.00    +0.000 HD
ENDROOT
BRANCH   1   5
ATOM      5  C   UNL     1       6.523   5.355  15.345  0.00  0.00    +0.000 C 
BRANCH   5   6
ATOM      6  C   UNL     1       7.536   5.110  14.225  0.00  0.00    +0.000 C 
BRANCH   6   7
ATOM      7  C   UNL     1       6.937   4.545  12.940  0.00  0.00    +0.000 C 
BRANCH   7   8
ATOM      8  C   UNL     1       5.707   3.659  13.163  0.00  0.00    +0.000 C 
BRANCH   8   9
ATOM      9  C   UNL     1       5.442   2.787  11.940  0.00  0.00    +0.000 C 
BRANCH   9  10
ATOM     10  C   UNL     1       6.700   2.614  11.092  0.00  0.00    +0.000 C 
BRANCH  10  12
ATOM     11  C   UNL     1       6.022   0.189  11.162  0.00  0.00    +0.000 C 
ATOM     12  C   UNL     1       7.185   1.166  11.136  0.00  0.00    +0.000 C 
ENDBRANCH  10  12
ENDBRANCH   9  10
ENDBRANCH   8   9
ENDBRANCH   7   8
ENDBRANCH   6   7
ENDBRANCH   5   6
ENDBRANCH   1   5
BRANCH   3  13
ATOM     13  C   UNL     1       4.333   3.954  16.726  0.00  0.00    +0.000 C 
BRANCH  13  14
ATOM     14  C   UNL     1       3.548   4.692  17.766  0.00  0.00    +0.000 A 
ATOM     15  C   UNL     1       3.671   6.093  17.762  0.00  0.00    +0.000 A 
ATOM     16  C   UNL     1       3.081   6.856  18.766  0.00  0.00    +0.000 A 
ATOM     17  C   UNL     1       2.375   6.214  19.776  0.00  0.00    +0.000 A 
ATOM     18  C   UNL     1       2.205   4.816  19.798  0.00  0.00    +0.000 A 
ATOM     19  C   UNL     1       2.759   4.054  18.753  0.00  0.00    +0.000 A 
ATOM     20  I   UNL     1       2.296   1.980  18.512  0.00  0.00    +0.000 I 
BRANCH  17  21
ATOM     21  O   UNL     1       1.822   6.975  20.774  0.00  0.00    +0.000 OA
ATOM     22  H   UNL     1       2.503   7.556  21.145  0.00  0.00    +0.000 HD
ENDBRANCH  17  21
BRANCH  18  23
ATOM     23  O   UNL     1       1.396   4.327  20.792  0.00  0.00    +0.000 OA
ATOM     24  C   UNL     1       2.033   3.507  21.768  0.00  0.00    +0.000 C 
ENDBRANCH  18  23
ENDBRANCH  13  14
ENDBRANCH   3  13
TORSDOF 11
ENDMDL
MODEL 5
REMARK VINA RESULT:      -6.4      1.987      2.631
REMARK  Name = 
REMARK  13 active torsions:
REMARK  status: ('A' for Active; 'I' for Inactive)
REMARK    1  A    between atoms: C_1  and  C_2
REMARK    2  A    between atoms: C_2  and  C_3
REMARK    3  A    between atoms: C_3  and  C_4
REMARK    4  A    between atoms: C_4  and  C_5
REMARK    5  A    between atoms: C_5  and  C_6
REMARK    6  A    between atoms: C_6  and  C_7
REMARK    7  A    between atoms: C_7  and  C_8
REMARK    8  A    between atoms: C_8  and  C_9
REMARK    9  A    between atoms: N_11  and  C_12
REMARK   10  A    between atoms: C_12  and  C_13
REMARK   11  A    between atoms: C_16  and  O_17
REMARK   12  A    between atoms: C_18  and  O_19
REMARK   13  A    between atoms: O_19  and  C_20
REMARK                            x       y       z     vdW  Elec       q    Type
REMARK                         _______ _______ _______ _____ _____    ______ ____
ROOT
ATOM      1  C   UNL     1       6.342   6.131  16.411  0.00  0.00    +0.000 C 
ATOM      2  O   UNL     1       6.967   5.775  15.413  0.00  0.00    +0.000 OA
ATOM      3  N   UNL     1       4.976   6.030  16.432  0.00  0.00    +0.000 N 
ATOM      4  H   UNL     1       4.595   5.541  15.629  0.00  0.00    +0.000 HD
ENDROOT
BRANCH   1   5
ATOM      5  C   UNL     1       7.040   6.736  17.615  0.00  0.00    +0.000 C 
BRANCH   5   6
ATOM      6  C   UNL     1       7.761   8.046  17.291  0.00  0.00    +0.000 C 
BRANCH   6   7
ATOM      7  C   UNL     1       8.463   8.695  18.482  0.00  0.00    +0.000 C 
BRANCH   7   8
ATOM      8  C   UNL     1       8.892  10.144  18.238  0.00  0.00    +0.000 C 
BRANCH   8   9
ATOM      9  C   UNL     1       9.559  10.726  19.480  0.00  0.00    +0.000 C 
BRANCH   9  10
ATOM     10  C   UNL     1      10.905  11.365  19.146  0.00  0.00    +0.000 C 
BRANCH  10  12
ATOM     11  C   UNL     1      10.423  13.496  20.399  0.00  0.00    +0.000 C 
ATOM     12  C   UNL     1      10.773  12.884  19.054  0.00  0.00    +0.000 C 
ENDBRANCH  10  12
ENDBRANCH   9  10
ENDBRANCH   8   9
ENDBRANCH   7   8
ENDBRANCH   6   7
ENDBRANCH   5   6
ENDBRANCH   1   5
BRANCH   3  13
ATOM     13  C   UNL     1       4.148   6.185  17.604  0.00  0.00    +0.000 C 
BRANCH  13  14
ATOM     14  C   UNL     1       3.496   4.915  18.057  0.00  0.00    +0.000 A 
ATOM     15  C   UNL     1       3.913   3.736  17.414  0.00  0.00    +0.000 A 
ATOM     16  C   UNL     1       3.277   2.526  17.677  0.00  0.00    +0.000 A 
ATOM     17  C   UNL     1       2.219   2.500  18.578  0.00  0.00    +0.000 A 
ATOM     18  C   UNL     1       1.792   3.654  19.263  0.00  0.00    +0.000 A 
ATOM     19  C   UNL     1       2.472   4.864  19.033  0.00  0.00    +0.000 A 
ATOM     20  I   UNL     1       2.124   6.591  20.244  0.00  0.00    +0.000 I 
BRANCH  17  21
ATOM     21  O   UNL     1       1.583   1.307  18.807  0.00  0.00    +0.000 OA
ATOM     22  H   UNL     1       0.773   1.272  18.277  0.00  0.00    +0.000 HD
ENDBRANCH  17  21
BRANCH  18  23
ATOM     23  O   UNL     1       0.810   3.463  20.202  0.00  0.00    +0.000 OA
ATOM     24  C   UNL     1       1.238   2.925  21.451  0.00  0.00    +0.000 C 
ENDBRANCH  18  23
ENDBRANCH  13  14
ENDBRANCH   3  13
TORSDOF 11
ENDMDL
MODEL 6
REMARK VINA RESULT:      -6.4      2.946      5.484
REMARK  Name = 
REMARK  13 active torsions:
REMARK  status: ('A' for Active; 'I' for Inactive)
REMARK    1  A    between atoms: C_1  and  C_2
REMARK    2  A    between atoms: C_2  and  C_3
REMARK    3  A    between atoms: C_3  and  C_4
REMARK    4  A    between atoms: C_4  and  C_5
REMARK    5  A    between atoms: C_5  and  C_6
REMARK    6  A    between atoms: C_6  and  C_7
REMARK    7  A    between atoms: C_7  and  C_8
REMARK    8  A    between atoms: C_8  and  C_9
REMARK    9  A    between atoms: N_11  and  C_12
REMARK   10  A    between atoms: C_12  and  C_13
REMARK   11  A    between atoms: C_16  and  O_17
REMARK   12  A    between atoms: C_18  and  O_19
REMARK   13  A    between atoms: O_19  and  C_20
REMARK                            x       y       z     vdW  Elec       q    Type
REMARK                         _______ _______ _______ _____ _____    ______ ____
ROOT
ATOM      1  C   UNL     1       7.036   6.969  17.087  0.00  0.00    +0.000 C 
ATOM      2  O   UNL     1       7.965   7.773  17.046  0.00  0.00    +0.000 OA
ATOM      3  N   UNL     1       5.743   7.421  17.087  0.00  0.00    +0.000 N 
ATOM      4  H   UNL     1       5.664   8.420  16.930  0.00  0.00    +0.000 HD
ENDROOT
BRANCH   1   5
ATOM      5  C   UNL     1       7.279   5.475  17.193  0.00  0.00    +0.000 C 
BRANCH   5   6
ATOM      6  C   UNL     1       7.404   4.793  15.830  0.00  0.00    +0.000 C 
BRANCH   6   7
ATOM      7  C   UNL     1       6.344   3.730  15.552  0.00  0.00    +0.000 C 
BRANCH   7   8
ATOM      8  C   UNL     1       5.609   3.916  14.221  0.00  0.00    +0.000 C 
BRANCH   8   9
ATOM      9  C   UNL     1       6.581   4.331  13.121  0.00  0.00    +0.000 C 
BRANCH   9  10
ATOM     10  C   UNL     1       6.536   3.362  11.941  0.00  0.00    +0.000 C 
BRANCH  10  12
ATOM     11  C   UNL     1       4.173   3.506  11.081  0.00  0.00    +0.000 C 
ATOM     12  C   UNL     1       5.175   2.673  11.861  0.00  0.00    +0.000 C 
ENDBRANCH  10  12
ENDBRANCH   9  10
ENDBRANCH   8   9
ENDBRANCH   7   8
ENDBRANCH   6   7
ENDBRANCH   5   6
ENDBRANCH   1   5
BRANCH   3  13
ATOM     13  C   UNL     1       4.573   6.597  16.895  0.00  0.00    +0.000 C 
BRANCH  13  14
ATOM     14  C   UNL     1       3.552   6.730  17.983  0.00  0.00    +0.000 A 
ATOM     15  C   UNL     1       2.873   7.960  18.053  0.00  0.00    +0.000 A 
ATOM     16  C   UNL     1       1.998   8.223  19.103  0.00  0.00    +0.000 A 
ATOM     17  C   UNL     1       1.812   7.259  20.086  0.00  0.00    +0.000 A 
ATOM     18  C   UNL     1       2.452   6.005  20.035  0.00  0.00    +0.000 A 
ATOM     19  C   UNL     1       3.294   5.723  18.943  0.00  0.00    +0.000 A 
ATOM     20  I   UNL     1       4.057   3.756  18.597  0.00  0.00    +0.000 I 
BRANCH  17  21
ATOM     21  O   UNL     1       0.969   7.542  21.130  0.00  0.00    +0.000 OA
ATOM     22  H   UNL     1       0.053   7.516  20.815  0.00  0.00    +0.000 HD
ENDBRANCH  17  21
BRANCH  18  23
ATOM     23  O   UNL     1       2.094   5.110  21.010  0.00  0.00    +0.000 OA
ATOM     24  C   UNL     1       1.126   4.133  20.635  0.00  0.00    +0.000 C 
ENDBRANCH  18  23
ENDBRANCH  13  14
ENDBRANCH   3  13
TORSDOF 11
ENDMDL
MODEL 7
REMARK VINA RESULT:      -6.3      3.376      5.796
REMARK  Name = 
REMARK  13 active torsions:
REMARK  status: ('A' for Active; 'I' for Inactive)
REMARK    1  A    between atoms: C_1  and  C_2
REMARK    2  A    between atoms: C_2  and  C_3
REMARK    3  A    between atoms: C_3  and  C_4
REMARK    4  A    between atoms: C_4  and  C_5
REMARK    5  A    between atoms: C_5  and  C_6
REMARK    6  A    between atoms: C_6  and  C_7
REMARK    7  A    between atoms: C_7  and  C_8
REMARK    8  A    between atoms: C_8  and  C_9
REMARK    9  A    between atoms: N_11  and  C_12
REMARK   10  A    between atoms: C_12  and  C_13
REMARK   11  A    between atoms: C_16  and  O_17
REMARK   12  A    between atoms: C_18  and  O_19
REMARK   13  A    between atoms: O_19  and  C_20
REMARK                            x       y       z     vdW  Elec       q    Type
REMARK                         _______ _______ _______ _____ _____    ______ ____
ROOT
ATOM      1  C   UNL     1       6.690   4.813  16.864  0.00  0.00    +0.000 C 
ATOM      2  O   UNL     1       7.841   4.746  17.289  0.00  0.00    +0.000 OA
ATOM      3  N   UNL     1       5.808   3.797  17.119  0.00  0.00    +0.000 N 
ATOM      4  H   UNL     1       6.170   3.101  17.763  0.00  0.00    +0.000 HD
ENDROOT
BRANCH   1   5
ATOM      5  C   UNL     1       6.221   5.977  16.009  0.00  0.00    +0.000 C 
BRANCH   5   6
ATOM      6  C   UNL     1       5.874   5.564  14.577  0.00  0.00    +0.000 C 
BRANCH   6   7
ATOM      7  C   UNL     1       6.779   4.481  13.993  0.00  0.00    +0.000 C 
BRANCH   7   8
ATOM      8  C   UNL     1       6.022   3.346  13.298  0.00  0.00    +0.000 C 
BRANCH   8   9
ATOM      9  C   UNL     1       5.610   3.756  11.888  0.00  0.00    +0.000 C 
BRANCH   9  10
ATOM     10  C   UNL     1       4.727   2.695  11.232  0.00  0.00    +0.000 C 
BRANCH  10  12
ATOM     11  C   UNL     1       3.173   4.024   9.761  0.00  0.00    +0.000 C 
ATOM     12  C   UNL     1       3.305   3.220  11.043  0.00  0.00    +0.000 C 
ENDBRANCH  10  12
ENDBRANCH   9  10
ENDBRANCH   8   9
ENDBRANCH   7   8
ENDBRANCH   6   7
ENDBRANCH   5   6
ENDBRANCH   1   5
BRANCH   3  13
ATOM     13  C   UNL     1       4.384   3.852  16.891  0.00  0.00    +0.000 C 
BRANCH  13  14
ATOM     14  C   UNL     1       3.610   4.448  18.026  0.00  0.00    +0.000 A 
ATOM     15  C   UNL     1       3.291   5.813  17.914  0.00  0.00    +0.000 A 
ATOM     16  C   UNL     1       2.685   6.485  18.972  0.00  0.00    +0.000 A 
ATOM     17  C   UNL     1       2.407   5.791  20.143  0.00  0.00    +0.000 A 
ATOM     18  C   UNL     1       2.686   4.417  20.282  0.00  0.00    +0.000 A 
ATOM     19  C   UNL     1       3.250   3.731  19.191  0.00  0.00    +0.000 A 
ATOM     20  I   UNL     1       3.416   1.599  19.175  0.00  0.00    +0.000 I 
BRANCH  17  21
ATOM     21  O   UNL     1       1.835   6.471  21.187  0.00  0.00    +0.000 OA
ATOM     22  H   UNL     1       1.003   6.869  20.890  0.00  0.00    +0.000 HD
ENDBRANCH  17  21
BRANCH  18  23
ATOM     23  O   UNL     1       2.261   3.836  21.450  0.00  0.00    +0.000 OA
ATOM     24  C   UNL     1       1.134   2.969  21.341  0.00  0.00    +0.000 C 
ENDBRANCH  18  23
ENDBRANCH  13  14
ENDBRANCH   3  13
TORSDOF 11
ENDMDL
MODEL 8
REMARK VINA RESULT:      -6.2      0.947      1.119
REMARK  Name = 
REMARK  13 active torsions:
REMARK  status: ('A' for Active; 'I' for Inactive)
REMARK    1  A    between atoms: C_1  and  C_2
REMARK    2  A    between atoms: C_2  and  C_3
REMARK    3  A    between atoms: C_3  and  C_4
REMARK    4  A    between atoms: C_4  and  C_5
REMARK    5  A    between atoms: C_5  and  C_6
REMARK    6  A    between atoms: C_6  and  C_7
REMARK    7  A    between atoms: C_7  and  C_8
REMARK    8  A    between atoms: C_8  and  C_9
REMARK    9  A    between atoms: N_11  and  C_12
REMARK   10  A    between atoms: C_12  and  C_13
REMARK   11  A    between atoms: C_16  and  O_17
REMARK   12  A    between atoms: C_18  and  O_19
REMARK   13  A    between atoms: O_19  and  C_20
REMARK                            x       y       z     vdW  Elec       q    Type
REMARK                         _______ _______ _______ _____ _____    ______ ____
ROOT
ATOM      1  C   UNL     1       7.028   5.367  18.036  0.00  0.00    +0.000 C 
ATOM      2  O   UNL     1       7.988   5.044  18.733  0.00  0.00    +0.000 OA
ATOM      3  N   UNL     1       6.126   4.418  17.634  0.00  0.00    +0.000 N 
ATOM      4  H   UNL     1       6.276   3.511  18.063  0.00  0.00    +0.000 HD
ENDROOT
BRANCH   1   5
ATOM      5  C   UNL     1       6.836   6.795  17.556  0.00  0.00    +0.000 C 
BRANCH   5   6
ATOM      6  C   UNL     1       8.136   7.601  17.548  0.00  0.00    +0.000 C 
BRANCH   6   7
ATOM      7  C   UNL     1       7.974   9.069  17.933  0.00  0.00    +0.000 C 
BRANCH   7   8
ATOM      8  C   UNL     1       8.988   9.556  18.973  0.00  0.00    +0.000 C 
BRANCH   8   9
ATOM      9  C   UNL     1       9.638  10.861  18.523  0.00  0.00    +0.000 C 
BRANCH   9  10
ATOM     10  C   UNL     1       8.633  11.772  17.820  0.00  0.00    +0.000 C 
BRANCH  10  12
ATOM     11  C   UNL     1       9.840  13.642  19.002  0.00  0.00    +0.000 C 
ATOM     12  C   UNL     1       9.182  13.194  17.709  0.00  0.00    +0.000 C 
ENDBRANCH  10  12
ENDBRANCH   9  10
ENDBRANCH   8   9
ENDBRANCH   7   8
ENDBRANCH   6   7
ENDBRANCH   5   6
ENDBRANCH   1   5
BRANCH   3  13
ATOM     13  C   UNL     1       4.847   4.690  17.024  0.00  0.00    +0.000 C 
BRANCH  13  14
ATOM     14  C   UNL     1       3.779   5.074  18.001  0.00  0.00    +0.000 A 
ATOM     15  C   UNL     1       3.534   6.451  18.149  0.00  0.00    +0.000 A 
ATOM     16  C   UNL     1       2.650   6.910  19.122  0.00  0.00    +0.000 A 
ATOM     17  C   UNL     1       2.019   5.989  19.950  0.00  0.00    +0.000 A 
ATOM     18  C   UNL     1       2.217   4.602  19.814  0.00  0.00    +0.000 A 
ATOM     19  C   UNL     1       3.070   4.140  18.794  0.00  0.00    +0.000 A 
ATOM     20  I   UNL     1       3.192   2.065  18.291  0.00  0.00    +0.000 I 
BRANCH  17  21
ATOM     21  O   UNL     1       1.173   6.456  20.923  0.00  0.00    +0.000 OA
ATOM     22  H   UNL     1       1.058   7.412  20.811  0.00  0.00    +0.000 HD
ENDBRANCH  17  21
BRANCH  18  23
ATOM     23  O   UNL     1       1.449   3.805  20.625  0.00  0.00    +0.000 OA
ATOM     24  C   UNL     1       2.114   3.235  21.750  0.00  0.00    +0.000 C 
ENDBRANCH  18  23
ENDBRANCH  13  14
ENDBRANCH   3  13
TORSDOF 11
ENDMDL
MODEL 9
REMARK VINA RESULT:      -6.2      3.387      5.185
REMARK  Name = 
REMARK  13 active torsions:
REMARK  status: ('A' for Active; 'I' for Inactive)
REMARK    1  A    between atoms: C_1  and  C_2
REMARK    2  A    between atoms: C_2  and  C_3
REMARK    3  A    between atoms: C_3  and  C_4
REMARK    4  A    between atoms: C_4  and  C_5
REMARK    5  A    between atoms: C_5  and  C_6
REMARK    6  A    between atoms: C_6  and  C_7
REMARK    7  A    between atoms: C_7  and  C_8
REMARK    8  A    between atoms: C_8  and  C_9
REMARK    9  A    between atoms: N_11  and  C_12
REMARK   10  A    between atoms: C_12  and  C_13
REMARK   11  A    between atoms: C_16  and  O_17
REMARK   12  A    between atoms: C_18  and  O_19
REMARK   13  A    between atoms: O_19  and  C_20
REMARK                            x       y       z     vdW  Elec       q    Type
REMARK                         _______ _______ _______ _____ _____    ______ ____
ROOT
ATOM      1  C   UNL     1       6.551   6.348  17.514  0.00  0.00    +0.000 C 
ATOM      2  O   UNL     1       7.547   6.699  18.144  0.00  0.00    +0.000 OA
ATOM      3  N   UNL     1       5.338   6.269  18.145  0.00  0.00    +0.000 N 
ATOM      4  H   UNL     1       5.351   6.635  19.092  0.00  0.00    +0.000 HD
ENDROOT
BRANCH   1   5
ATOM      5  C   UNL     1       6.632   5.943  16.054  0.00  0.00    +0.000 C 
BRANCH   5   6
ATOM      6  C   UNL     1       7.079   4.493  15.861  0.00  0.00    +0.000 C 
BRANCH   6   7
ATOM      7  C   UNL     1       6.080   3.615  15.111  0.00  0.00    +0.000 C 
BRANCH   7   8
ATOM      8  C   UNL     1       5.530   4.251  13.831  0.00  0.00    +0.000 C 
BRANCH   8   9
ATOM      9  C   UNL     1       5.826   3.371  12.621  0.00  0.00    +0.000 C 
BRANCH   9  10
ATOM     10  C   UNL     1       7.143   3.762  11.953  0.00  0.00    +0.000 C 
BRANCH  10  12
ATOM     11  C   UNL     1       8.536   5.705  12.747  0.00  0.00    +0.000 C 
ATOM     12  C   UNL     1       7.315   5.280  11.950  0.00  0.00    +0.000 C 
ENDBRANCH  10  12
ENDBRANCH   9  10
ENDBRANCH   8   9
ENDBRANCH   7   8
ENDBRANCH   6   7
ENDBRANCH   5   6
ENDBRANCH   1   5
BRANCH   3  13
ATOM     13  C   UNL     1       4.065   6.105  17.486  0.00  0.00    +0.000 C 
BRANCH  13  14
ATOM     14  C   UNL     1       3.318   4.876  17.906  0.00  0.00    +0.000 A 
ATOM     15  C   UNL     1       3.563   3.711  17.158  0.00  0.00    +0.000 A 
ATOM     16  C   UNL     1       2.825   2.554  17.392  0.00  0.00    +0.000 A 
ATOM     17  C   UNL     1       1.838   2.568  18.370  0.00  0.00    +0.000 A 
ATOM     18  C   UNL     1       1.583   3.707  19.159  0.00  0.00    +0.000 A 
ATOM     19  C   UNL     1       2.367   4.857  18.955  0.00  0.00    +0.000 A 
ATOM     20  I   UNL     1       2.288   6.519  20.298  0.00  0.00    +0.000 I 
BRANCH  17  21
ATOM     21  O   UNL     1       1.100   1.431  18.571  0.00  0.00    +0.000 OA
ATOM     22  H   UNL     1       0.372   1.407  17.932  0.00  0.00    +0.000 HD
ENDBRANCH  17  21
BRANCH  18  23
ATOM     23  O   UNL     1       0.657   3.547  20.158  0.00  0.00    +0.000 OA
ATOM     24  C   UNL     1       1.124   2.913  21.346  0.00  0.00    +0.000 C 
ENDBRANCH  18  23
ENDBRANCH  13  14
ENDBRANCH   3  13
TORSDOF 11
ENDMDL
