MODEL 1
REMARK VINA RESULT:      -7.5      0.000      0.000
REMARK  Name = 
REMARK  8 active torsions:
REMARK  status: ('A' for Active; 'I' for Inactive)
REMARK    1  A    between atoms: C_1  and  C_2
REMARK    2  A    between atoms: C_2  and  C_3
REMARK    3  A    between atoms: C_3  and  O_4
REMARK    4  A    between atoms: O_4  and  C_5
REMARK    5  A    between atoms: C_9  and  N_10
REMARK    6  A    between atoms: N_13  and  S_14
REMARK    7  A    between atoms: S_14  and  C_17
REMARK    8  A    between atoms: C_20  and  C_21
REMARK                            x       y       z     vdW  Elec       q    Type
REMARK                         _______ _______ _______ _____ _____    ______ ____
ROOT
ATOM      1  N   UNL     1       2.135   6.912  19.431  0.00  0.00    +0.000 N 
ATOM      2  C   UNL     1       2.057   8.183  18.920  0.00  0.00    +0.000 C 
ATOM      3  O   UNL     1       2.555   8.535  17.862  0.00  0.00    +0.000 OA
ATOM      4  N   UNL     1       1.333   9.098  19.673  0.00  0.00    +0.000 N 
ATOM      5  H   UNL     1       1.633   6.708  20.286  0.00  0.00    +0.000 HD
ATOM      6  H   UNL     1       0.806   8.885  20.511  0.00  0.00    +0.000 HD
ENDROOT
BRANCH   1  11
ATOM      7  C   UNL     1       4.979   4.660  18.592  0.00  0.00    +0.000 A 
ATOM      8  C   UNL     1       4.388   3.772  17.689  0.00  0.00    +0.000 A 
ATOM      9  C   UNL     1       3.045   3.903  17.371  0.00  0.00    +0.000 A 
ATOM     10  C   UNL     1       2.294   4.929  17.945  0.00  0.00    +0.000 A 
ATOM     11  C   UNL     1       2.866   5.846  18.834  0.00  0.00    +0.000 A 
ATOM     12  C   UNL     1       4.224   5.709  19.137  0.00  0.00    +0.000 A 
BRANCH   7  13
ATOM     13  O   UNL     1       6.309   4.439  18.841  0.00  0.00    +0.000 OA
BRANCH  13  14
ATOM     14  C   UNL     1       7.163   4.654  17.714  0.00  0.00    +0.000 C 
BRANCH  14  16
ATOM     15  C   UNL     1       7.934   6.938  18.365  0.00  0.00    +0.000 C 
ATOM     16  C   UNL     1       7.150   6.131  17.343  0.00  0.00    +0.000 C 
ENDBRANCH  14  16
ENDBRANCH  13  14
ENDBRANCH   7  13
ENDBRANCH   1  11
BRANCH   4  17
ATOM     17  S   UNL     1       1.189  10.687  19.140  0.00  0.00    +0.000 S 
ATOM     18  O   UNL     1       1.297  11.513  20.330  0.00  0.00    +0.000 OA
ATOM     19  O   UNL     1       2.069  10.900  18.020  0.00  0.00    +0.000 OA
BRANCH  17  20
ATOM     20  C   UNL     1      -0.509  10.766  18.603  0.00  0.00    +0.000 A 
ATOM     21  C   UNL     1      -1.356  11.712  19.185  0.00  0.00    +0.000 A 
ATOM     22  C   UNL     1      -2.703  11.746  18.823  0.00  0.00    +0.000 A 
ATOM     23  C   UNL     1      -3.208  10.846  17.875  0.00  0.00    +0.000 A 
ATOM     24  C   UNL     1      -4.658  10.872  17.485  0.00  0.00    +0.000 C 
ATOM     25  C   UNL     1      -2.344   9.911  17.287  0.00  0.00    +0.000 A 
ATOM     26  C   UNL     1      -0.993   9.871  17.646  0.00  0.00    +0.000 A 
ENDBRANCH  17  20
ENDBRANCH   4  17
TORSDOF 6
ENDMDL
MODEL 2
REMARK VINA RESULT:      -7.5      5.436      8.654
REMARK  Name = 
REMARK  8 active torsions:
REMARK  status: ('A' for Active; 'I' for Inactive)
REMARK    1  A    between atoms: C_1  and  C_2
REMARK    2  A    between atoms: C_2  and  C_3
REMARK    3  A    between atoms: C_3  and  O_4
REMARK    4  A    between atoms: O_4  and  C_5
REMARK    5  A    between atoms: C_9  and  N_10
REMARK    6  A    between atoms: N_13  and  S_14
REMARK    7  A    between atoms: S_14  and  C_17
REMARK    8  A    between atoms: C_20  and  C_21
REMARK                            x       y       z     vdW  Elec       q    Type
REMARK                         _______ _______ _______ _____ _____    ______ ____
ROOT
ATOM      1  N   UNL     1       8.073   9.376  17.864  0.00  0.00    +0.000 N 
ATOM      2  C   UNL     1       8.090   8.016  18.042  0.00  0.00    +0.000 C 
ATOM      3  O   UNL     1       8.780   7.435  18.866  0.00  0.00    +0.000 OA
ATOM      4  N   UNL     1       7.234   7.284  17.231  0.00  0.00    +0.000 N 
ATOM      5  H   UNL     1       7.418   9.762  17.196  0.00  0.00    +0.000 HD
ATOM      6  H   UNL     1       6.557   7.674  16.586  0.00  0.00    +0.000 HD
ENDROOT
BRANCH   1  11
ATOM      7  C   UNL     1      10.525  12.111  18.475  0.00  0.00    +0.000 A 
ATOM      8  C   UNL     1      10.594  12.130  19.870  0.00  0.00    +0.000 A 
ATOM      9  C   UNL     1       9.817  11.254  20.612  0.00  0.00    +0.000 A 
ATOM     10  C   UNL     1       8.979  10.349  19.960  0.00  0.00    +0.000 A 
ATOM     11  C   UNL     1       8.907  10.292  18.564  0.00  0.00    +0.000 A 
ATOM     12  C   UNL     1       9.704  11.174  17.828  0.00  0.00    +0.000 A 
BRANCH   7  13
ATOM     13  O   UNL     1      11.329  13.020  17.838  0.00  0.00    +0.000 OA
BRANCH  13  14
ATOM     14  C   UNL     1      11.482  14.260  18.534  0.00  0.00    +0.000 C 
BRANCH  14  16
ATOM     15  C   UNL     1      11.133  15.955  16.732  0.00  0.00    +0.000 C 
ATOM     16  C   UNL     1      10.520  15.288  17.952  0.00  0.00    +0.000 C 
ENDBRANCH  14  16
ENDBRANCH  13  14
ENDBRANCH   7  13
ENDBRANCH   1  11
BRANCH   4  17
ATOM     17  S   UNL     1       7.189   5.607  17.362  0.00  0.00    +0.000 S 
ATOM     18  O   UNL     1       7.672   5.099  16.090  0.00  0.00    +0.000 OA
ATOM     19  O   UNL     1       7.816   5.205  18.595  0.00  0.00    +0.000 OA
BRANCH  17  20
ATOM     20  C   UNL     1       5.441   5.267  17.430  0.00  0.00    +0.000 A 
ATOM     21  C   UNL     1       4.574   6.279  17.848  0.00  0.00    +0.000 A 
ATOM     22  C   UNL     1       3.209   6.011  17.967  0.00  0.00    +0.000 A 
ATOM     23  C   UNL     1       2.704   4.740  17.662  0.00  0.00    +0.000 A 
ATOM     24  C   UNL     1       1.238   4.443  17.794  0.00  0.00    +0.000 C 
ATOM     25  C   UNL     1       3.584   3.738  17.229  0.00  0.00    +0.000 A 
ATOM     26  C   UNL     1       4.952   3.999  17.107  0.00  0.00    +0.000 A 
ENDBRANCH  17  20
ENDBRANCH   4  17
TORSDOF 6
ENDMDL
MODEL 3
REMARK VINA RESULT:      -7.5      0.977      1.468
REMARK  Name = 
REMARK  8 active torsions:
REMARK  status: ('A' for Active; 'I' for Inactive)
REMARK    1  A    between atoms: C_1  and  C_2
REMARK    2  A    between atoms: C_2  and  C_3
REMARK    3  A    between atoms: C_3  and  O_4
REMARK    4  A    between atoms: O_4  and  C_5
REMARK    5  A    between atoms: C_9  and  N_10
REMARK    6  A    between atoms: N_13  and  S_14
REMARK    7  A    between atoms: S_14  and  C_17
REMARK    8  A    between atoms: C_20  and  C_21
REMARK                            x       y       z     vdW  Elec       q    Type
REMARK                         _______ _______ _______ _____ _____    ______ ____
ROOT
ATOM      1  N   UNL     1       2.489   7.422  17.900  0.00  0.00    +0.000 N 
ATOM      2  C   UNL     1       1.898   8.169  18.887  0.00  0.00    +0.000 C 
ATOM      3  O   UNL     1       1.848   7.845  20.064  0.00  0.00    +0.000 OA
ATOM      4  N   UNL     1       1.351   9.381  18.489  0.00  0.00    +0.000 N 
ATOM      5  H   UNL     1       2.531   7.811  16.967  0.00  0.00    +0.000 HD
ATOM      6  H   UNL     1       1.422   9.783  17.562  0.00  0.00    +0.000 HD
ENDROOT
BRANCH   1  11
ATOM      7  C   UNL     1       5.003   4.802  18.726  0.00  0.00    +0.000 A 
ATOM      8  C   UNL     1       4.281   3.628  18.498  0.00  0.00    +0.000 A 
ATOM      9  C   UNL     1       2.957   3.698  18.092  0.00  0.00    +0.000 A 
ATOM     10  C   UNL     1       2.357   4.943  17.899  0.00  0.00    +0.000 A 
ATOM     11  C   UNL     1       3.063   6.135  18.097  0.00  0.00    +0.000 A 
ATOM     12  C   UNL     1       4.401   6.049  18.496  0.00  0.00    +0.000 A 
BRANCH   7  13
ATOM     13  O   UNL     1       6.300   4.620  19.130  0.00  0.00    +0.000 OA
BRANCH  13  14
ATOM     14  C   UNL     1       7.278   5.062  18.186  0.00  0.00    +0.000 C 
BRANCH  14  16
ATOM     15  C   UNL     1       7.688   7.478  17.703  0.00  0.00    +0.000 C 
ATOM     16  C   UNL     1       7.924   6.347  18.690  0.00  0.00    +0.000 C 
ENDBRANCH  14  16
ENDBRANCH  13  14
ENDBRANCH   7  13
ENDBRANCH   1  11
BRANCH   4  17
ATOM     17  S   UNL     1       0.591  10.366  19.622  0.00  0.00    +0.000 S 
ATOM     18  O   UNL     1       0.340   9.518  20.775  0.00  0.00    +0.000 OA
ATOM     19  O   UNL     1       1.331  11.593  19.765  0.00  0.00    +0.000 OA
BRANCH  17  20
ATOM     20  C   UNL     1      -0.986  10.691  18.860  0.00  0.00    +0.000 A 
ATOM     21  C   UNL     1      -1.304  10.044  17.664  0.00  0.00    +0.000 A 
ATOM     22  C   UNL     1      -2.507  10.334  17.021  0.00  0.00    +0.000 A 
ATOM     23  C   UNL     1      -3.402  11.262  17.571  0.00  0.00    +0.000 A 
ATOM     24  C   UNL     1      -4.697  11.584  16.882  0.00  0.00    +0.000 C 
ATOM     25  C   UNL     1      -3.079  11.894  18.780  0.00  0.00    +0.000 A 
ATOM     26  C   UNL     1      -1.874  11.607  19.430  0.00  0.00    +0.000 A 
ENDBRANCH  17  20
ENDBRANCH   4  17
TORSDOF 6
ENDMDL
MODEL 4
REMARK VINA RESULT:      -7.4      1.842      3.256
REMARK  Name = 
REMARK  8 active torsions:
REMARK  status: ('A' for Active; 'I' for Inactive)
REMARK    1  A    between atoms: C_1  and  C_2
REMARK    2  A    between atoms: C_2  and  C_3
REMARK    3  A    between atoms: C_3  and  O_4
REMARK    4  A    between atoms: O_4  and  C_5
REMARK    5  A    between atoms: C_9  and  N_10
REMARK    6  A    between atoms: N_13  and  S_14
REMARK    7  A    between atoms: S_14  and  C_17
REMARK    8  A    between atoms: C_20  and  C_21
REMARK                            x       y       z     vdW  Elec       q    Type
REMARK                         _______ _______ _______ _____ _____    ______ ____
ROOT
ATOM      1  N   UNL     1       2.686   7.653  17.796  0.00  0.00    +0.000 N 
ATOM      2  C   UNL     1       2.029   8.365  18.766  0.00  0.00    +0.000 C 
ATOM      3  O   UNL     1       1.788   7.947  19.888  0.00  0.00    +0.000 OA
ATOM      4  N   UNL     1       1.649   9.656  18.423  0.00  0.00    +0.000 N 
ATOM      5  H   UNL     1       2.890   8.115  16.919  0.00  0.00    +0.000 HD
ATOM      6  H   UNL     1       1.882  10.127  17.558  0.00  0.00    +0.000 HD
ENDROOT
BRANCH   1  11
ATOM      7  C   UNL     1       2.539   3.936  17.980  0.00  0.00    +0.000 A 
ATOM      8  C   UNL     1       3.876   3.606  18.216  0.00  0.00    +0.000 A 
ATOM      9  C   UNL     1       4.831   4.608  18.294  0.00  0.00    +0.000 A 
ATOM     10  C   UNL     1       4.449   5.942  18.150  0.00  0.00    +0.000 A 
ATOM     11  C   UNL     1       3.114   6.303  17.937  0.00  0.00    +0.000 A 
ATOM     12  C   UNL     1       2.160   5.283  17.870  0.00  0.00    +0.000 A 
BRANCH   7  13
ATOM     13  O   UNL     1       1.678   2.872  17.915  0.00  0.00    +0.000 OA
BRANCH  13  14
ATOM     14  C   UNL     1       1.611   2.094  19.113  0.00  0.00    +0.000 C 
BRANCH  14  16
ATOM     15  C   UNL     1       1.706   2.842  21.495  0.00  0.00    +0.000 C 
ATOM     16  C   UNL     1       0.911   2.899  20.201  0.00  0.00    +0.000 C 
ENDBRANCH  14  16
ENDBRANCH  13  14
ENDBRANCH   7  13
ENDBRANCH   1  11
BRANCH   4  17
ATOM     17  S   UNL     1       0.826  10.608  19.539  0.00  0.00    +0.000 S 
ATOM     18  O   UNL     1       0.683   9.786  20.729  0.00  0.00    +0.000 OA
ATOM     19  O   UNL     1       1.448  11.904  19.617  0.00  0.00    +0.000 OA
BRANCH  17  20
ATOM     20  C   UNL     1      -0.793  10.753  18.809  0.00  0.00    +0.000 A 
ATOM     21  C   UNL     1      -1.089  10.002  17.669  0.00  0.00    +0.000 A 
ATOM     22  C   UNL     1      -2.329  10.150  17.047  0.00  0.00    +0.000 A 
ATOM     23  C   UNL     1      -3.281  11.040  17.563  0.00  0.00    +0.000 A 
ATOM     24  C   UNL     1      -4.616  11.210  16.896  0.00  0.00    +0.000 C 
ATOM     25  C   UNL     1      -2.978  11.778  18.716  0.00  0.00    +0.000 A 
ATOM     26  C   UNL     1      -1.737  11.634  19.344  0.00  0.00    +0.000 A 
ENDBRANCH  17  20
ENDBRANCH   4  17
TORSDOF 6
ENDMDL
MODEL 5
REMARK VINA RESULT:      -7.4      2.131      2.821
REMARK  Name = 
REMARK  8 active torsions:
REMARK  status: ('A' for Active; 'I' for Inactive)
REMARK    1  A    between atoms: C_1  and  C_2
REMARK    2  A    between atoms: C_2  and  C_3
REMARK    3  A    between atoms: C_3  and  O_4
REMARK    4  A    between atoms: O_4  and  C_5
REMARK    5  A    between atoms: C_9  and  N_10
REMARK    6  A    between atoms: N_13  and  S_14
REMARK    7  A    between atoms: S_14  and  C_17
REMARK    8  A    between atoms: C_20  and  C_21
REMARK                            x       y       z     vdW  Elec       q    Type
REMARK                         _______ _______ _______ _____ _____    ______ ____
ROOT
ATOM      1  N   UNL     1       2.309   6.963  19.815  0.00  0.00    +0.000 N 
ATOM      2  C   UNL     1       1.853   8.048  19.110  0.00  0.00    +0.000 C 
ATOM      3  O   UNL     1       1.884   8.145  17.893  0.00  0.00    +0.000 OA
ATOM      4  N   UNL     1       1.303   9.076  19.863  0.00  0.00    +0.000 N 
ATOM      5  H   UNL     1       2.180   6.956  20.818  0.00  0.00    +0.000 HD
ATOM      6  H   UNL     1       1.145   9.054  20.863  0.00  0.00    +0.000 HD
ENDROOT
BRANCH   1  11
ATOM      7  C   UNL     1       4.987   4.550  18.881  0.00  0.00    +0.000 A 
ATOM      8  C   UNL     1       4.285   3.626  18.103  0.00  0.00    +0.000 A 
ATOM      9  C   UNL     1       2.922   3.786  17.902  0.00  0.00    +0.000 A 
ATOM     10  C   UNL     1       2.263   4.878  18.468  0.00  0.00    +0.000 A 
ATOM     11  C   UNL     1       2.945   5.832  19.231  0.00  0.00    +0.000 A 
ATOM     12  C   UNL     1       4.321   5.663  19.417  0.00  0.00    +0.000 A 
BRANCH   7  13
ATOM     13  O   UNL     1       6.327   4.295  19.021  0.00  0.00    +0.000 OA
BRANCH  13  14
ATOM     14  C   UNL     1       7.150   4.908  18.025  0.00  0.00    +0.000 C 
BRANCH  14  16
ATOM     15  C   UNL     1       7.544   7.334  17.582  0.00  0.00    +0.000 C 
ATOM     16  C   UNL     1       7.735   6.202  18.577  0.00  0.00    +0.000 C 
ENDBRANCH  14  16
ENDBRANCH  13  14
ENDBRANCH   7  13
ENDBRANCH   1  11
BRANCH   4  17
ATOM     17  S   UNL     1       0.726  10.457  19.094  0.00  0.00    +0.000 S 
ATOM     18  O   UNL     1       1.893  11.106  18.521  0.00  0.00    +0.000 OA
ATOM     19  O   UNL     1      -0.398  10.111  18.264  0.00  0.00    +0.000 OA
BRANCH  17  20
ATOM     20  C   UNL     1       0.186  11.467  20.459  0.00  0.00    +0.000 A 
ATOM     21  C   UNL     1      -0.683  10.915  21.403  0.00  0.00    +0.000 A 
ATOM     22  C   UNL     1      -1.166  11.710  22.444  0.00  0.00    +0.000 A 
ATOM     23  C   UNL     1      -0.778  13.052  22.553  0.00  0.00    +0.000 A 
ATOM     24  C   UNL     1      -1.298  13.916  23.665  0.00  0.00    +0.000 C 
ATOM     25  C   UNL     1       0.107  13.590  21.607  0.00  0.00    +0.000 A 
ATOM     26  C   UNL     1       0.595  12.799  20.562  0.00  0.00    +0.000 A 
ENDBRANCH  17  20
ENDBRANCH   4  17
TORSDOF 6
ENDMDL
MODEL 6
REMARK VINA RESULT:      -7.4      1.072      1.166
REMARK  Name = 
REMARK  8 active torsions:
REMARK  status: ('A' for Active; 'I' for Inactive)
REMARK    1  A    between atoms: C_1  and  C_2
REMARK    2  A    between atoms: C_2  and  C_3
REMARK    3  A    between atoms: C_3  and  O_4
REMARK    4  A    between atoms: O_4  and  C_5
REMARK    5  A    between atoms: C_9  and  N_10
REMARK    6  A    between atoms: N_13  and  S_14
REMARK    7  A    between atoms: S_14  and  C_17
REMARK    8  A    between atoms: C_20  and  C_21
REMARK                            x       y       z     vdW  Elec       q    Type
REMARK                         _______ _______ _______ _____ _____    ______ ____
ROOT
ATOM      1  N   UNL     1       2.489   7.121  18.177  0.00  0.00    +0.000 N 
ATOM      2  C   UNL     1       1.928   7.989  19.077  0.00  0.00    +0.000 C 
ATOM      3  O   UNL     1       1.955   7.842  20.290  0.00  0.00    +0.000 OA
ATOM      4  N   UNL     1       1.319   9.115  18.539  0.00  0.00    +0.000 N 
ATOM      5  H   UNL     1       2.466   7.368  17.196  0.00  0.00    +0.000 HD
ATOM      6  H   UNL     1       1.324   9.376  17.561  0.00  0.00    +0.000 HD
ENDROOT
BRANCH   1  11
ATOM      7  C   UNL     1       5.178   4.629  18.832  0.00  0.00    +0.000 A 
ATOM      8  C   UNL     1       4.442   3.497  19.188  0.00  0.00    +0.000 A 
ATOM      9  C   UNL     1       3.057   3.559  19.233  0.00  0.00    +0.000 A 
ATOM     10  C   UNL     1       2.407   4.750  18.909  0.00  0.00    +0.000 A 
ATOM     11  C   UNL     1       3.118   5.892  18.525  0.00  0.00    +0.000 A 
ATOM     12  C   UNL     1       4.513   5.812  18.474  0.00  0.00    +0.000 A 
BRANCH   7  13
ATOM     13  O   UNL     1       6.539   4.462  18.824  0.00  0.00    +0.000 OA
BRANCH  13  14
ATOM     14  C   UNL     1       7.227   5.273  17.869  0.00  0.00    +0.000 C 
BRANCH  14  16
ATOM     15  C   UNL     1       7.787   7.702  17.711  0.00  0.00    +0.000 C 
ATOM     16  C   UNL     1       7.867   6.459  18.580  0.00  0.00    +0.000 C 
ENDBRANCH  14  16
ENDBRANCH  13  14
ENDBRANCH   7  13
ENDBRANCH   1  11
BRANCH   4  17
ATOM     17  S   UNL     1       0.589  10.236  19.559  0.00  0.00    +0.000 S 
ATOM     18  O   UNL     1       0.228   9.501  20.760  0.00  0.00    +0.000 OA
ATOM     19  O   UNL     1       1.411  11.415  19.645  0.00  0.00    +0.000 OA
BRANCH  17  20
ATOM     20  C   UNL     1      -0.928  10.613  18.703  0.00  0.00    +0.000 A 
ATOM     21  C   UNL     1      -1.790  11.568  19.247  0.00  0.00    +0.000 A 
ATOM     22  C   UNL     1      -3.011  11.830  18.624  0.00  0.00    +0.000 A 
ATOM     23  C   UNL     1      -3.373  11.149  17.453  0.00  0.00    +0.000 A 
ATOM     24  C   UNL     1      -4.687  11.421  16.780  0.00  0.00    +0.000 C 
ATOM     25  C   UNL     1      -2.492  10.204  16.909  0.00  0.00    +0.000 A 
ATOM     26  C   UNL     1      -1.267   9.937  17.528  0.00  0.00    +0.000 A 
ENDBRANCH  17  20
ENDBRANCH   4  17
TORSDOF 6
ENDMDL
MODEL 7
REMARK VINA RESULT:      -7.4      0.595      1.272
REMARK  Name = 
REMARK  8 active torsions:
REMARK  status: ('A' for Active; 'I' for Inactive)
REMARK    1  A    between atoms: C_1  and  C_2
REMARK    2  A    between atoms: C_2  and  C_3
REMARK    3  A    between atoms: C_3  and  O_4
REMARK    4  A    between atoms: O_4  and  C_5
REMARK    5  A    between atoms: C_9  and  N_10
REMARK    6  A    between atoms: N_13  and  S_14
REMARK    7  A    between atoms: S_14  and  C_17
REMARK    8  A    between atoms: C_20  and  C_21
REMARK                            x       y       z     vdW  Elec       q    Type
REMARK                         _______ _______ _______ _____ _____    ______ ____
ROOT
ATOM      1  N   UNL     1       1.917   6.893  19.655  0.00  0.00    +0.000 N 
ATOM      2  C   UNL     1       1.867   8.159  19.131  0.00  0.00    +0.000 C 
ATOM      3  O   UNL     1       2.361   8.487  18.063  0.00  0.00    +0.000 OA
ATOM      4  N   UNL     1       1.176   9.101  19.882  0.00  0.00    +0.000 N 
ATOM      5  H   UNL     1       1.421   6.712  20.518  0.00  0.00    +0.000 HD
ATOM      6  H   UNL     1       0.654   8.912  20.729  0.00  0.00    +0.000 HD
ENDROOT
BRANCH   1  11
ATOM      7  C   UNL     1       4.688   4.549  18.819  0.00  0.00    +0.000 A 
ATOM      8  C   UNL     1       4.066   3.676  17.923  0.00  0.00    +0.000 A 
ATOM      9  C   UNL     1       2.727   3.846  17.609  0.00  0.00    +0.000 A 
ATOM     10  C   UNL     1       2.010   4.898  18.180  0.00  0.00    +0.000 A 
ATOM     11  C   UNL     1       2.613   5.802  19.062  0.00  0.00    +0.000 A 
ATOM     12  C   UNL     1       3.967   5.624  19.361  0.00  0.00    +0.000 A 
BRANCH   7  13
ATOM     13  O   UNL     1       6.011   4.289  19.065  0.00  0.00    +0.000 OA
BRANCH  13  14
ATOM     14  C   UNL     1       6.917   5.202  18.440  0.00  0.00    +0.000 C 
BRANCH  14  16
ATOM     15  C   UNL     1       7.051   5.123  15.947  0.00  0.00    +0.000 C 
ATOM     16  C   UNL     1       7.573   4.525  17.243  0.00  0.00    +0.000 C 
ENDBRANCH  14  16
ENDBRANCH  13  14
ENDBRANCH   7  13
ENDBRANCH   1  11
BRANCH   4  17
ATOM     17  S   UNL     1       1.067  10.688  19.333  0.00  0.00    +0.000 S 
ATOM     18  O   UNL     1       1.145  11.522  20.520  0.00  0.00    +0.000 OA
ATOM     19  O   UNL     1       1.986  10.883  18.242  0.00  0.00    +0.000 OA
BRANCH  17  20
ATOM     20  C   UNL     1      -0.611  10.781  18.740  0.00  0.00    +0.000 A 
ATOM     21  C   UNL     1      -0.985   9.992  17.651  0.00  0.00    +0.000 A 
ATOM     22  C   UNL     1      -2.277  10.098  17.134  0.00  0.00    +0.000 A 
ATOM     23  C   UNL     1      -3.201  10.983  17.705  0.00  0.00    +0.000 A 
ATOM     24  C   UNL     1      -4.591  11.108  17.150  0.00  0.00    +0.000 C 
ATOM     25  C   UNL     1      -2.818  11.759  18.808  0.00  0.00    +0.000 A 
ATOM     26  C   UNL     1      -1.525  11.657  19.331  0.00  0.00    +0.000 A 
ENDBRANCH  17  20
ENDBRANCH   4  17
TORSDOF 6
ENDMDL
MODEL 8
REMARK VINA RESULT:      -7.4      1.800      3.031
REMARK  Name = 
REMARK  8 active torsions:
REMARK  status: ('A' for Active; 'I' for Inactive)
REMARK    1  A    between atoms: C_1  and  C_2
REMARK    2  A    between atoms: C_2  and  C_3
REMARK    3  A    between atoms: C_3  and  O_4
REMARK    4  A    between atoms: O_4  and  C_5
REMARK    5  A    between atoms: C_9  and  N_10
REMARK    6  A    between atoms: N_13  and  S_14
REMARK    7  A    between atoms: S_14  and  C_17
REMARK    8  A    between atoms: C_20  and  C_21
REMARK                            x       y       z     vdW  Elec       q    Type
REMARK                         _______ _______ _______ _____ _____    ______ ____
ROOT
ATOM      1  N   UNL     1       2.532   7.463  17.735  0.00  0.00    +0.000 N 
ATOM      2  C   UNL     1       1.959   8.229  18.718  0.00  0.00    +0.000 C 
ATOM      3  O   UNL     1       1.965   7.946  19.907  0.00  0.00    +0.000 OA
ATOM      4  N   UNL     1       1.363   9.411  18.301  0.00  0.00    +0.000 N 
ATOM      5  H   UNL     1       2.525   7.820  16.787  0.00  0.00    +0.000 HD
ATOM      6  H   UNL     1       1.386   9.781  17.359  0.00  0.00    +0.000 HD
ENDROOT
BRANCH   1  11
ATOM      7  C   UNL     1       2.929   3.778  18.087  0.00  0.00    +0.000 A 
ATOM      8  C   UNL     1       4.290   3.661  18.382  0.00  0.00    +0.000 A 
ATOM      9  C   UNL     1       5.083   4.797  18.444  0.00  0.00    +0.000 A 
ATOM     10  C   UNL     1       4.514   6.052  18.226  0.00  0.00    +0.000 A 
ATOM     11  C   UNL     1       3.149   6.200  17.952  0.00  0.00    +0.000 A 
ATOM     12  C   UNL     1       2.360   5.047  17.903  0.00  0.00    +0.000 A 
BRANCH   7  13
ATOM     13  O   UNL     1       2.238   2.595  18.045  0.00  0.00    +0.000 OA
BRANCH  13  14
ATOM     14  C   UNL     1       2.083   1.957  19.315  0.00  0.00    +0.000 C 
BRANCH  14  16
ATOM     15  C   UNL     1       1.757   3.009  21.556  0.00  0.00    +0.000 C 
ATOM     16  C   UNL     1       1.144   2.782  20.185  0.00  0.00    +0.000 C 
ENDBRANCH  14  16
ENDBRANCH  13  14
ENDBRANCH   7  13
ENDBRANCH   1  11
BRANCH   4  17
ATOM     17  S   UNL     1       0.621  10.415  19.429  0.00  0.00    +0.000 S 
ATOM     18  O   UNL     1       0.389   9.588  20.600  0.00  0.00    +0.000 OA
ATOM     19  O   UNL     1       1.362  11.645  19.539  0.00  0.00    +0.000 OA
BRANCH  17  20
ATOM     20  C   UNL     1      -0.969  10.727  18.687  0.00  0.00    +0.000 A 
ATOM     21  C   UNL     1      -1.835  11.632  19.305  0.00  0.00    +0.000 A 
ATOM     22  C   UNL     1      -3.108  11.841  18.773  0.00  0.00    +0.000 A 
ATOM     23  C   UNL     1      -3.519  11.157  17.621  0.00  0.00    +0.000 A 
ATOM     24  C   UNL     1      -4.889  11.372  17.046  0.00  0.00    +0.000 C 
ATOM     25  C   UNL     1      -2.634  10.263  17.001  0.00  0.00    +0.000 A 
ATOM     26  C   UNL     1      -1.357  10.049  17.529  0.00  0.00    +0.000 A 
ENDBRANCH  17  20
ENDBRANCH   4  17
TORSDOF 6
ENDMDL
MODEL 9
REMARK VINA RESULT:      -7.3      5.767      8.734
REMARK  Name = 
REMARK  8 active torsions:
REMARK  status: ('A' for Active; 'I' for Inactive)
REMARK    1  A    between atoms: C_1  and  C_2
REMARK    2  A    between atoms: C_2  and  C_3
REMARK    3  A    between atoms: C_3  and  O_4
REMARK    4  A    between atoms: O_4  and  C_5
REMARK    5  A    between atoms: C_9  and  N_10
REMARK    6  A    between atoms: N_13  and  S_14
REMARK    7  A    between atoms: S_14  and  C_17
REMARK    8  A    between atoms: C_20  and  C_21
REMARK                            x       y       z     vdW  Elec       q    Type
REMARK                         _______ _______ _______ _____ _____    ______ ____
ROOT
ATOM      1  N   UNL     1       7.910   8.929  17.639  0.00  0.00    +0.000 N 
ATOM      2  C   UNL     1       7.987   7.609  18.002  0.00  0.00    +0.000 C 
ATOM      3  O   UNL     1       8.596   7.194  18.977  0.00  0.00    +0.000 OA
ATOM      4  N   UNL     1       7.293   6.715  17.199  0.00  0.00    +0.000 N 
ATOM      5  H   UNL     1       7.328   9.174  16.849  0.00  0.00    +0.000 HD
ATOM      6  H   UNL     1       6.685   6.964  16.429  0.00  0.00    +0.000 HD
ENDROOT
BRANCH   1  11
ATOM      7  C   UNL     1       9.405  12.284  18.256  0.00  0.00    +0.000 A 
ATOM      8  C   UNL     1       9.923  12.136  19.545  0.00  0.00    +0.000 A 
ATOM      9  C   UNL     1       9.762  10.936  20.221  0.00  0.00    +0.000 A 
ATOM     10  C   UNL     1       9.095   9.878  19.604  0.00  0.00    +0.000 A 
ATOM     11  C   UNL     1       8.587   9.990  18.305  0.00  0.00    +0.000 A 
ATOM     12  C   UNL     1       8.765  11.202  17.631  0.00  0.00    +0.000 A 
BRANCH   7  13
ATOM     13  O   UNL     1       9.613  13.510  17.680  0.00  0.00    +0.000 OA
BRANCH  13  14
ATOM     14  C   UNL     1      10.922  13.688  17.132  0.00  0.00    +0.000 C 
BRANCH  14  16
ATOM     15  C   UNL     1      10.843  15.733  18.564  0.00  0.00    +0.000 C 
ATOM     16  C   UNL     1      11.322  15.154  17.243  0.00  0.00    +0.000 C 
ENDBRANCH  14  16
ENDBRANCH  13  14
ENDBRANCH   7  13
ENDBRANCH   1  11
BRANCH   4  17
ATOM     17  S   UNL     1       7.334   5.070  17.552  0.00  0.00    +0.000 S 
ATOM     18  O   UNL     1       7.720   4.411  16.317  0.00  0.00    +0.000 OA
ATOM     19  O   UNL     1       8.088   4.857  18.761  0.00  0.00    +0.000 OA
BRANCH  17  20
ATOM     20  C   UNL     1       5.616   4.688  17.832  0.00  0.00    +0.000 A 
ATOM     21  C   UNL     1       4.880   4.096  16.803  0.00  0.00    +0.000 A 
ATOM     22  C   UNL     1       3.519   3.848  16.982  0.00  0.00    +0.000 A 
ATOM     23  C   UNL     1       2.888   4.179  18.189  0.00  0.00    +0.000 A 
ATOM     24  C   UNL     1       1.423   3.921  18.387  0.00  0.00    +0.000 C 
ATOM     25  C   UNL     1       3.641   4.759  19.220  0.00  0.00    +0.000 A 
ATOM     26  C   UNL     1       5.006   5.011  19.047  0.00  0.00    +0.000 A 
ENDBRANCH  17  20
ENDBRANCH   4  17
TORSDOF 6
ENDMDL
