MODEL 1
REMARK VINA RESULT:      -6.9      0.000      0.000
REMARK  Name = 
REMARK  7 active torsions:
REMARK  status: ('A' for Active; 'I' for Inactive)
REMARK    1  A    between atoms: C_1  and  C_2
REMARK    2  A    between atoms: C_2  and  C_3
REMARK    3  A    between atoms: C_4  and  C_5
REMARK    4  A    between atoms: C_6  and  C_7
REMARK    5  A    between atoms: C_6  and  C_8
REMARK    6  A    between atoms: C_9  and  C_10
REMARK    7  A    between atoms: C_16  and  C_17
REMARK                            x       y       z     vdW  Elec       q    Type
REMARK                         _______ _______ _______ _____ _____    ______ ____
ROOT
ATOM      1  C   UNL     1       6.271   7.198  17.239  0.00  0.00    +0.000 C 
ATOM      2  C   UNL     1       7.415   7.303  17.957  0.00  0.00    +0.000 C 
ATOM      3  C   UNL     1       7.964   6.213  18.857  0.00  0.00    +0.000 C 
ENDROOT
BRANCH   1   5
ATOM      4  C   UNL     1       4.263   5.864  17.906  0.00  0.00    +0.000 C 
ATOM      5  C   UNL     1       5.413   6.031  17.232  0.00  0.00    +0.000 C 
BRANCH   4   7
ATOM      6  C   UNL     1       1.923   4.756  17.781  0.00  0.00    +0.000 C 
ATOM      7  C   UNL     1       3.431   4.654  17.859  0.00  0.00    +0.000 C 
ATOM      8  C   UNL     1       4.037   3.450  17.889  0.00  0.00    +0.000 C 
BRANCH   8   9
ATOM      9  C   UNL     1       3.306   2.163  17.851  0.00  0.00    +0.000 C 
ATOM     10  O   UNL     1       3.726   1.179  18.446  0.00  0.00    +0.000 OA
ENDBRANCH   8   9
ENDBRANCH   4   7
ENDBRANCH   1   5
BRANCH   2  11
ATOM     11  C   UNL     1       8.205   8.540  17.889  0.00  0.00    +0.000 C 
ATOM     12  C   UNL     1       8.689   9.205  18.955  0.00  0.00    +0.000 C 
BRANCH  12  13
ATOM     13  C   UNL     1       9.470  10.447  18.914  0.00  0.00    +0.000 A 
ATOM     14  C   UNL     1       9.764  11.132  17.735  0.00  0.00    +0.000 A 
ATOM     15  C   UNL     1      10.461  12.338  17.786  0.00  0.00    +0.000 A 
ATOM     16  C   UNL     1      10.836  12.832  19.025  0.00  0.00    +0.000 A 
ATOM     17  N   UNL     1      10.560  12.214  20.190  0.00  0.00    +0.000 NA
ATOM     18  C   UNL     1       9.883  11.045  20.107  0.00  0.00    +0.000 A 
ENDBRANCH  12  13
ENDBRANCH   2  11
TORSDOF 5
ENDMDL
MODEL 2
REMARK VINA RESULT:      -6.8      0.715      1.154
REMARK  Name = 
REMARK  7 active torsions:
REMARK  status: ('A' for Active; 'I' for Inactive)
REMARK    1  A    between atoms: C_1  and  C_2
REMARK    2  A    between atoms: C_2  and  C_3
REMARK    3  A    between atoms: C_4  and  C_5
REMARK    4  A    between atoms: C_6  and  C_7
REMARK    5  A    between atoms: C_6  and  C_8
REMARK    6  A    between atoms: C_9  and  C_10
REMARK    7  A    between atoms: C_16  and  C_17
REMARK                            x       y       z     vdW  Elec       q    Type
REMARK                         _______ _______ _______ _____ _____    ______ ____
ROOT
ATOM      1  C   UNL     1       6.254   7.421  17.181  0.00  0.00    +0.000 C 
ATOM      2  C   UNL     1       7.399   7.516  17.899  0.00  0.00    +0.000 C 
ATOM      3  C   UNL     1       7.968   6.400  18.754  0.00  0.00    +0.000 C 
ENDROOT
BRANCH   1   5
ATOM      4  C   UNL     1       4.434   5.907  17.987  0.00  0.00    +0.000 C 
ATOM      5  C   UNL     1       5.413   6.243  17.132  0.00  0.00    +0.000 C 
BRANCH   4   7
ATOM      6  C   UNL     1       2.101   4.789  17.829  0.00  0.00    +0.000 C 
ATOM      7  C   UNL     1       3.610   4.694  17.885  0.00  0.00    +0.000 C 
ATOM      8  C   UNL     1       4.226   3.496  17.845  0.00  0.00    +0.000 C 
BRANCH   8   9
ATOM      9  C   UNL     1       3.503   2.207  17.746  0.00  0.00    +0.000 C 
ATOM     10  O   UNL     1       3.325   1.505  18.734  0.00  0.00    +0.000 OA
ENDBRANCH   8   9
ENDBRANCH   4   7
ENDBRANCH   1   5
BRANCH   2  11
ATOM     11  C   UNL     1       8.170   8.766  17.878  0.00  0.00    +0.000 C 
ATOM     12  C   UNL     1       8.767   9.323  18.948  0.00  0.00    +0.000 C 
BRANCH  12  13
ATOM     13  C   UNL     1       9.531  10.576  18.955  0.00  0.00    +0.000 A 
ATOM     14  C   UNL     1       9.936  11.223  20.124  0.00  0.00    +0.000 A 
ATOM     15  C   UNL     1      10.711  12.379  20.046  0.00  0.00    +0.000 A 
ATOM     16  C   UNL     1      11.070  12.850  18.794  0.00  0.00    +0.000 A 
ATOM     17  N   UNL     1      10.718  12.250  17.640  0.00  0.00    +0.000 NA
ATOM     18  C   UNL     1       9.964  11.130  17.749  0.00  0.00    +0.000 A 
ENDBRANCH  12  13
ENDBRANCH   2  11
TORSDOF 5
ENDMDL
MODEL 3
REMARK VINA RESULT:      -6.6      1.262      1.752
REMARK  Name = 
REMARK  7 active torsions:
REMARK  status: ('A' for Active; 'I' for Inactive)
REMARK    1  A    between atoms: C_1  and  C_2
REMARK    2  A    between atoms: C_2  and  C_3
REMARK    3  A    between atoms: C_4  and  C_5
REMARK    4  A    between atoms: C_6  and  C_7
REMARK    5  A    between atoms: C_6  and  C_8
REMARK    6  A    between atoms: C_9  and  C_10
REMARK    7  A    between atoms: C_16  and  C_17
REMARK                            x       y       z     vdW  Elec       q    Type
REMARK                         _______ _______ _______ _____ _____    ______ ____
ROOT
ATOM      1  C   UNL     1       6.567   7.588  17.079  0.00  0.00    +0.000 C 
ATOM      2  C   UNL     1       7.624   7.760  17.910  0.00  0.00    +0.000 C 
ATOM      3  C   UNL     1       8.182   6.682  18.819  0.00  0.00    +0.000 C 
ENDROOT
BRANCH   1   5
ATOM      4  C   UNL     1       4.750   5.970  17.654  0.00  0.00    +0.000 C 
ATOM      5  C   UNL     1       5.824   6.353  16.944  0.00  0.00    +0.000 C 
BRANCH   4   7
ATOM      6  C   UNL     1       4.590   3.621  16.568  0.00  0.00    +0.000 C 
ATOM      7  C   UNL     1       4.032   4.700  17.471  0.00  0.00    +0.000 C 
ATOM      8  C   UNL     1       2.865   4.518  18.121  0.00  0.00    +0.000 C 
BRANCH   8   9
ATOM      9  C   UNL     1       2.052   3.285  18.013  0.00  0.00    +0.000 C 
ATOM     10  O   UNL     1       0.836   3.339  17.875  0.00  0.00    +0.000 OA
ENDBRANCH   8   9
ENDBRANCH   4   7
ENDBRANCH   1   5
BRANCH   2  11
ATOM     11  C   UNL     1       8.301   9.063  17.967  0.00  0.00    +0.000 C 
ATOM     12  C   UNL     1       9.034   9.506  19.005  0.00  0.00    +0.000 C 
BRANCH  12  13
ATOM     13  C   UNL     1       9.710  10.806  19.091  0.00  0.00    +0.000 A 
ATOM     14  C   UNL     1      10.071  11.406  20.298  0.00  0.00    +0.000 A 
ATOM     15  C   UNL     1      10.763  12.616  20.293  0.00  0.00    +0.000 A 
ATOM     16  C   UNL     1      11.085  13.188  19.074  0.00  0.00    +0.000 A 
ATOM     17  N   UNL     1      10.772  12.638  17.884  0.00  0.00    +0.000 NA
ATOM     18  C   UNL     1      10.099  11.463  17.922  0.00  0.00    +0.000 A 
ENDBRANCH  12  13
ENDBRANCH   2  11
TORSDOF 5
ENDMDL
MODEL 4
REMARK VINA RESULT:      -6.6      4.548      9.067
REMARK  Name = 
REMARK  7 active torsions:
REMARK  status: ('A' for Active; 'I' for Inactive)
REMARK    1  A    between atoms: C_1  and  C_2
REMARK    2  A    between atoms: C_2  and  C_3
REMARK    3  A    between atoms: C_4  and  C_5
REMARK    4  A    between atoms: C_6  and  C_7
REMARK    5  A    between atoms: C_6  and  C_8
REMARK    6  A    between atoms: C_9  and  C_10
REMARK    7  A    between atoms: C_16  and  C_17
REMARK                            x       y       z     vdW  Elec       q    Type
REMARK                         _______ _______ _______ _____ _____    ______ ____
ROOT
ATOM      1  C   UNL     1       7.349   7.834  17.631  0.00  0.00    +0.000 C 
ATOM      2  C   UNL     1       7.211   6.617  18.211  0.00  0.00    +0.000 C 
ATOM      3  C   UNL     1       8.189   6.028  19.208  0.00  0.00    +0.000 C 
ENDROOT
BRANCH   1   5
ATOM      4  C   UNL     1       8.409   9.902  18.555  0.00  0.00    +0.000 C 
ATOM      5  C   UNL     1       8.450   8.741  17.883  0.00  0.00    +0.000 C 
BRANCH   4   7
ATOM      6  C   UNL     1      10.367  11.318  17.615  0.00  0.00    +0.000 C 
ATOM      7  C   UNL     1       9.564  10.783  18.781  0.00  0.00    +0.000 C 
ATOM      8  C   UNL     1       9.895  11.103  20.048  0.00  0.00    +0.000 C 
BRANCH   8   9
ATOM      9  C   UNL     1      11.037  11.977  20.400  0.00  0.00    +0.000 C 
ATOM     10  O   UNL     1      10.878  13.174  20.605  0.00  0.00    +0.000 OA
ENDBRANCH   8   9
ENDBRANCH   4   7
ENDBRANCH   1   5
BRANCH   2  11
ATOM     11  C   UNL     1       6.051   5.779  17.876  0.00  0.00    +0.000 C 
ATOM     12  C   UNL     1       5.129   5.350  18.758  0.00  0.00    +0.000 C 
BRANCH  12  13
ATOM     13  C   UNL     1       3.971   4.503  18.451  0.00  0.00    +0.000 A 
ATOM     14  C   UNL     1       2.755   5.005  17.983  0.00  0.00    +0.000 A 
ATOM     15  C   UNL     1       1.720   4.128  17.659  0.00  0.00    +0.000 A 
ATOM     16  C   UNL     1       1.937   2.768  17.802  0.00  0.00    +0.000 A 
ATOM     17  N   UNL     1       3.098   2.238  18.233  0.00  0.00    +0.000 NA
ATOM     18  C   UNL     1       4.084   3.115  18.542  0.00  0.00    +0.000 A 
ENDBRANCH  12  13
ENDBRANCH   2  11
TORSDOF 5
ENDMDL
MODEL 5
REMARK VINA RESULT:      -6.6      1.207      1.309
REMARK  Name = 
REMARK  7 active torsions:
REMARK  status: ('A' for Active; 'I' for Inactive)
REMARK    1  A    between atoms: C_1  and  C_2
REMARK    2  A    between atoms: C_2  and  C_3
REMARK    3  A    between atoms: C_4  and  C_5
REMARK    4  A    between atoms: C_6  and  C_7
REMARK    5  A    between atoms: C_6  and  C_8
REMARK    6  A    between atoms: C_9  and  C_10
REMARK    7  A    between atoms: C_16  and  C_17
REMARK                            x       y       z     vdW  Elec       q    Type
REMARK                         _______ _______ _______ _____ _____    ______ ____
ROOT
ATOM      1  C   UNL     1       6.244   7.203  17.229  0.00  0.00    +0.000 C 
ATOM      2  C   UNL     1       7.425   7.449  17.846  0.00  0.00    +0.000 C 
ATOM      3  C   UNL     1       8.073   6.520  18.853  0.00  0.00    +0.000 C 
ENDROOT
BRANCH   1   5
ATOM      4  C   UNL     1       4.363   5.907  18.246  0.00  0.00    +0.000 C 
ATOM      5  C   UNL     1       5.436   6.021  17.447  0.00  0.00    +0.000 C 
BRANCH   4   7
ATOM      6  C   UNL     1       2.360   4.663  19.325  0.00  0.00    +0.000 C 
ATOM      7  C   UNL     1       3.579   4.677  18.428  0.00  0.00    +0.000 C 
ATOM      8  C   UNL     1       3.968   3.561  17.780  0.00  0.00    +0.000 C 
BRANCH   8   9
ATOM      9  C   UNL     1       3.261   2.264  17.887  0.00  0.00    +0.000 C 
ATOM     10  O   UNL     1       2.218   2.060  17.278  0.00  0.00    +0.000 OA
ENDBRANCH   8   9
ENDBRANCH   4   7
ENDBRANCH   1   5
BRANCH   2  11
ATOM     11  C   UNL     1       8.158   8.687  17.549  0.00  0.00    +0.000 C 
ATOM     12  C   UNL     1       8.591   9.567  18.470  0.00  0.00    +0.000 C 
BRANCH  12  13
ATOM     13  C   UNL     1       9.313  10.815  18.199  0.00  0.00    +0.000 A 
ATOM     14  C   UNL     1      10.705  10.913  18.197  0.00  0.00    +0.000 A 
ATOM     15  C   UNL     1      11.317  12.123  17.871  0.00  0.00    +0.000 A 
ATOM     16  C   UNL     1      10.513  13.203  17.545  0.00  0.00    +0.000 A 
ATOM     17  N   UNL     1       9.167  13.151  17.518  0.00  0.00    +0.000 NA
ATOM     18  C   UNL     1       8.603  11.962  17.840  0.00  0.00    +0.000 A 
ENDBRANCH  12  13
ENDBRANCH   2  11
TORSDOF 5
ENDMDL
MODEL 6
REMARK VINA RESULT:      -6.4      4.397      8.955
REMARK  Name = 
REMARK  7 active torsions:
REMARK  status: ('A' for Active; 'I' for Inactive)
REMARK    1  A    between atoms: C_1  and  C_2
REMARK    2  A    between atoms: C_2  and  C_3
REMARK    3  A    between atoms: C_4  and  C_5
REMARK    4  A    between atoms: C_6  and  C_7
REMARK    5  A    between atoms: C_6  and  C_8
REMARK    6  A    between atoms: C_9  and  C_10
REMARK    7  A    between atoms: C_16  and  C_17
REMARK                            x       y       z     vdW  Elec       q    Type
REMARK                         _______ _______ _______ _____ _____    ______ ____
ROOT
ATOM      1  C   UNL     1       7.175   7.526  17.538  0.00  0.00    +0.000 C 
ATOM      2  C   UNL     1       7.154   6.377  18.257  0.00  0.00    +0.000 C 
ATOM      3  C   UNL     1       8.166   6.019  19.327  0.00  0.00    +0.000 C 
ENDROOT
BRANCH   1   5
ATOM      4  C   UNL     1       7.973   9.812  18.163  0.00  0.00    +0.000 C 
ATOM      5  C   UNL     1       8.167   8.570  17.692  0.00  0.00    +0.000 C 
BRANCH   4   7
ATOM      6  C   UNL     1       8.894  12.170  17.603  0.00  0.00    +0.000 C 
ATOM      7  C   UNL     1       9.023  10.832  18.298  0.00  0.00    +0.000 C 
ATOM      8  C   UNL     1      10.104  10.551  19.052  0.00  0.00    +0.000 C 
BRANCH   8   9
ATOM      9  C   UNL     1      11.226  11.495  19.259  0.00  0.00    +0.000 C 
ATOM     10  O   UNL     1      11.707  11.672  20.372  0.00  0.00    +0.000 OA
ENDBRANCH   8   9
ENDBRANCH   4   7
ENDBRANCH   1   5
BRANCH   2  11
ATOM     11  C   UNL     1       6.099   5.385  18.012  0.00  0.00    +0.000 C 
ATOM     12  C   UNL     1       4.877   5.402  18.577  0.00  0.00    +0.000 C 
BRANCH  12  13
ATOM     13  C   UNL     1       3.811   4.418  18.358  0.00  0.00    +0.000 A 
ATOM     14  C   UNL     1       4.044   3.126  17.883  0.00  0.00    +0.000 A 
ATOM     15  C   UNL     1       2.983   2.230  17.758  0.00  0.00    +0.000 A 
ATOM     16  C   UNL     1       1.715   2.652  18.124  0.00  0.00    +0.000 A 
ATOM     17  N   UNL     1       1.446   3.882  18.602  0.00  0.00    +0.000 NA
ATOM     18  C   UNL     1       2.497   4.730  18.711  0.00  0.00    +0.000 A 
ENDBRANCH  12  13
ENDBRANCH   2  11
TORSDOF 5
ENDMDL
MODEL 7
REMARK VINA RESULT:      -6.4      4.436      9.077
REMARK  Name = 
REMARK  7 active torsions:
REMARK  status: ('A' for Active; 'I' for Inactive)
REMARK    1  A    between atoms: C_1  and  C_2
REMARK    2  A    between atoms: C_2  and  C_3
REMARK    3  A    between atoms: C_4  and  C_5
REMARK    4  A    between atoms: C_6  and  C_7
REMARK    5  A    between atoms: C_6  and  C_8
REMARK    6  A    between atoms: C_9  and  C_10
REMARK    7  A    between atoms: C_16  and  C_17
REMARK                            x       y       z     vdW  Elec       q    Type
REMARK                         _______ _______ _______ _____ _____    ______ ____
ROOT
ATOM      1  C   UNL     1       7.272   7.702  17.421  0.00  0.00    +0.000 C 
ATOM      2  C   UNL     1       7.199   6.537  18.111  0.00  0.00    +0.000 C 
ATOM      3  C   UNL     1       8.150   6.140  19.223  0.00  0.00    +0.000 C 
ENDROOT
BRANCH   1   5
ATOM      4  C   UNL     1       8.400   9.505  18.735  0.00  0.00    +0.000 C 
ATOM      5  C   UNL     1       8.269   8.727  17.649  0.00  0.00    +0.000 C 
BRANCH   4   7
ATOM      6  C   UNL     1       9.737  11.098  20.284  0.00  0.00    +0.000 C 
ATOM      7  C   UNL     1       9.437  10.532  18.912  0.00  0.00    +0.000 C 
ATOM      8  C   UNL     1      10.113  10.962  17.828  0.00  0.00    +0.000 C 
BRANCH   8   9
ATOM      9  C   UNL     1      11.174  11.993  17.881  0.00  0.00    +0.000 C 
ATOM     10  O   UNL     1      12.268  11.751  18.377  0.00  0.00    +0.000 OA
ENDBRANCH   8   9
ENDBRANCH   4   7
ENDBRANCH   1   5
BRANCH   2  11
ATOM     11  C   UNL     1       6.144   5.566  17.789  0.00  0.00    +0.000 C 
ATOM     12  C   UNL     1       5.427   4.878  18.696  0.00  0.00    +0.000 C 
BRANCH  12  13
ATOM     13  C   UNL     1       4.378   3.895  18.401  0.00  0.00    +0.000 A 
ATOM     14  C   UNL     1       4.150   2.758  19.176  0.00  0.00    +0.000 A 
ATOM     15  C   UNL     1       3.095   1.902  18.863  0.00  0.00    +0.000 A 
ATOM     16  C   UNL     1       2.286   2.218  17.783  0.00  0.00    +0.000 A 
ATOM     17  N   UNL     1       2.457   3.313  17.017  0.00  0.00    +0.000 NA
ATOM     18  C   UNL     1       3.492   4.124  17.346  0.00  0.00    +0.000 A 
ENDBRANCH  12  13
ENDBRANCH   2  11
TORSDOF 5
ENDMDL
MODEL 8
REMARK VINA RESULT:      -6.4      5.652      8.003
REMARK  Name = 
REMARK  7 active torsions:
REMARK  status: ('A' for Active; 'I' for Inactive)
REMARK    1  A    between atoms: C_1  and  C_2
REMARK    2  A    between atoms: C_2  and  C_3
REMARK    3  A    between atoms: C_4  and  C_5
REMARK    4  A    between atoms: C_6  and  C_7
REMARK    5  A    between atoms: C_6  and  C_8
REMARK    6  A    between atoms: C_9  and  C_10
REMARK    7  A    between atoms: C_16  and  C_17
REMARK                            x       y       z     vdW  Elec       q    Type
REMARK                         _______ _______ _______ _____ _____    ______ ____
ROOT
ATOM      1  C   UNL     1       2.314   7.368  19.794  0.00  0.00    +0.000 C 
ATOM      2  C   UNL     1       2.430   6.021  19.711  0.00  0.00    +0.000 C 
ATOM      3  C   UNL     1       1.673   5.041  20.586  0.00  0.00    +0.000 C 
ENDROOT
BRANCH   1   5
ATOM      4  C   UNL     1       0.947   9.298  20.606  0.00  0.00    +0.000 C 
ATOM      5  C   UNL     1       1.451   8.060  20.729  0.00  0.00    +0.000 C 
BRANCH   4   7
ATOM      6  C   UNL     1      -0.500   9.168  22.754  0.00  0.00    +0.000 C 
ATOM      7  C   UNL     1       0.072   9.950  21.592  0.00  0.00    +0.000 C 
ATOM      8  C   UNL     1      -0.212  11.259  21.438  0.00  0.00    +0.000 C 
BRANCH   8   9
ATOM      9  C   UNL     1      -1.082  12.022  22.362  0.00  0.00    +0.000 C 
ATOM     10  O   UNL     1      -2.286  12.123  22.159  0.00  0.00    +0.000 OA
ENDBRANCH   8   9
ENDBRANCH   4   7
ENDBRANCH   1   5
BRANCH   2  11
ATOM     11  C   UNL     1       3.342   5.429  18.723  0.00  0.00    +0.000 C 
ATOM     12  C   UNL     1       4.273   6.108  18.028  0.00  0.00    +0.000 C 
BRANCH  12  13
ATOM     13  C   UNL     1       5.187   5.543  17.028  0.00  0.00    +0.000 A 
ATOM     14  C   UNL     1       4.877   4.430  16.246  0.00  0.00    +0.000 A 
ATOM     15  C   UNL     1       5.776   3.990  15.276  0.00  0.00    +0.000 A 
ATOM     16  C   UNL     1       6.961   4.686  15.109  0.00  0.00    +0.000 A 
ATOM     17  N   UNL     1       7.296   5.775  15.829  0.00  0.00    +0.000 NA
ATOM     18  C   UNL     1       6.402   6.178  16.764  0.00  0.00    +0.000 A 
ENDBRANCH  12  13
ENDBRANCH   2  11
TORSDOF 5
ENDMDL
MODEL 9
REMARK VINA RESULT:      -6.4      1.000      1.342
REMARK  Name = 
REMARK  7 active torsions:
REMARK  status: ('A' for Active; 'I' for Inactive)
REMARK    1  A    between atoms: C_1  and  C_2
REMARK    2  A    between atoms: C_2  and  C_3
REMARK    3  A    between atoms: C_4  and  C_5
REMARK    4  A    between atoms: C_6  and  C_7
REMARK    5  A    between atoms: C_6  and  C_8
REMARK    6  A    between atoms: C_9  and  C_10
REMARK    7  A    between atoms: C_16  and  C_17
REMARK                            x       y       z     vdW  Elec       q    Type
REMARK                         _______ _______ _______ _____ _____    ______ ____
ROOT
ATOM      1  C   UNL     1       5.801   7.260  17.183  0.00  0.00    +0.000 C 
ATOM      2  C   UNL     1       7.050   7.234  17.707  0.00  0.00    +0.000 C 
ATOM      3  C   UNL     1       7.703   6.003  18.303  0.00  0.00    +0.000 C 
ENDROOT
BRANCH   1   5
ATOM      4  C   UNL     1       4.273   5.528  18.142  0.00  0.00    +0.000 C 
ATOM      5  C   UNL     1       4.915   6.115  17.120  0.00  0.00    +0.000 C 
BRANCH   4   7
ATOM      6  C   UNL     1       3.877   3.077  17.397  0.00  0.00    +0.000 C 
ATOM      7  C   UNL     1       3.382   4.366  18.017  0.00  0.00    +0.000 C 
ATOM      8  C   UNL     1       2.115   4.472  18.464  0.00  0.00    +0.000 C 
BRANCH   8   9
ATOM      9  C   UNL     1       1.126   3.372  18.389  0.00  0.00    +0.000 C 
ATOM     10  O   UNL     1       0.821   2.726  19.384  0.00  0.00    +0.000 OA
ENDBRANCH   8   9
ENDBRANCH   4   7
ENDBRANCH   1   5
BRANCH   2  11
ATOM     11  C   UNL     1       7.858   8.461  17.722  0.00  0.00    +0.000 C 
ATOM     12  C   UNL     1       8.462   8.974  18.809  0.00  0.00    +0.000 C 
BRANCH  12  13
ATOM     13  C   UNL     1       9.264  10.203  18.852  0.00  0.00    +0.000 A 
ATOM     14  C   UNL     1       9.675  10.893  17.711  0.00  0.00    +0.000 A 
ATOM     15  C   UNL     1      10.385  12.085  17.838  0.00  0.00    +0.000 A 
ATOM     16  C   UNL     1      10.655  12.562  19.110  0.00  0.00    +0.000 A 
ATOM     17  N   UNL     1      10.264  11.939  20.239  0.00  0.00    +0.000 NA
ATOM     18  C   UNL     1       9.577  10.782  20.083  0.00  0.00    +0.000 A 
ENDBRANCH  12  13
ENDBRANCH   2  11
TORSDOF 5
ENDMDL
