MODEL 1
REMARK VINA RESULT:      -8.1      0.000      0.000
REMARK  Name = 
REMARK  7 active torsions:
REMARK  status: ('A' for Active; 'I' for Inactive)
REMARK    1  A    between atoms: C_1  and  O_2
REMARK    2  A    between atoms: O_2  and  C_3
REMARK    3  A    between atoms: N_5  and  C_6
REMARK    4  A    between atoms: C_11  and  N_12
REMARK    5  A    between atoms: C_13  and  C_15
REMARK    6  A    between atoms: C_29  and  C_30
REMARK    7  A    between atoms: C_33  and  C_34
REMARK                            x       y       z     vdW  Elec       q    Type
REMARK                         _______ _______ _______ _____ _____    ______ ____
ROOT
ATOM      1  C   UNL     1      -4.029  13.925  22.018  0.00  0.00    +0.000 C 
ATOM      2  C   UNL     1      -3.433  12.562  21.526  0.00  0.00    +0.000 C 
ATOM      3  N   UNL     1      -2.018  12.515  21.126  0.00  0.00    +0.000 N 
ATOM      4  C   UNL     1      -0.997  12.746  22.142  0.00  0.00    +0.000 C 
ATOM      5  C   UNL     1      -1.716  12.090  19.825  0.00  0.00    +0.000 C 
ATOM      6  O   UNL     1      -2.568  11.689  19.031  0.00  0.00    +0.000 OA
ATOM      7  C   UNL     1      -0.315  12.106  19.333  0.00  0.00    +0.000 A 
ATOM      8  C   UNL     1       0.262  10.866  19.012  0.00  0.00    +0.000 A 
ATOM      9  C   UNL     1       1.518  10.797  18.403  0.00  0.00    +0.000 A 
ATOM     10  C   UNL     1       2.183  11.999  18.130  0.00  0.00    +0.000 A 
ATOM     11  C   UNL     1       1.602  13.248  18.435  0.00  0.00    +0.000 A 
ATOM     12  C   UNL     1       0.337  13.309  19.020  0.00  0.00    +0.000 A 
ATOM     13  O   UNL     1      -0.358  14.444  19.286  0.00  0.00    +0.000 OA
ATOM     14  C   UNL     1       0.174  15.744  19.058  0.00  0.00    +0.000 C 
ATOM     15  C   UNL     1      -0.805  16.847  19.606  0.00  0.00    +0.000 C 
ATOM     16  C   UNL     1      -0.272  17.459  20.911  0.00  0.00    +0.000 C 
ATOM     17  N   UNL     1      -2.249  16.500  19.723  0.00  0.00    +0.000 NA
ATOM     18  C   UNL     1      -2.525  15.597  20.847  0.00  0.00    +0.000 C 
ATOM     19  C   UNL     1      -3.978  15.125  21.010  0.00  0.00    +0.000 C 
ATOM     20  C   UNL     1      -4.815  16.324  21.494  0.00  0.00    +0.000 C 
ATOM     21  H   UNL     1      -2.532  16.026  18.862  0.00  0.00    +0.000 HD
ENDROOT
BRANCH   9  22
ATOM     22  N   UNL     1       2.138   9.577  18.024  0.00  0.00    +0.000 N 
ATOM     23  C   UNL     1       2.203   8.410  18.781  0.00  0.00    +0.000 C 
ATOM     24  O   UNL     1       1.719   8.294  19.903  0.00  0.00    +0.000 OA
ATOM     25  H   UNL     1       2.586   9.527  17.112  0.00  0.00    +0.000 HD
BRANCH  23  26
ATOM     26  C   UNL     1       2.946   7.308  18.150  0.00  0.00    +0.000 A 
ATOM     27  N   UNL     1       3.969   7.455  17.327  0.00  0.00    +0.000 NA
ATOM     28  C   UNL     1       4.388   6.192  16.898  0.00  0.00    +0.000 A 
ATOM     29  C   UNL     1       5.414   5.916  15.968  0.00  0.00    +0.000 A 
ATOM     30  C   UNL     1       5.727   4.590  15.637  0.00  0.00    +0.000 A 
ATOM     31  C   UNL     1       5.055   3.529  16.237  0.00  0.00    +0.000 A 
ATOM     32  C   UNL     1       4.036   3.771  17.161  0.00  0.00    +0.000 A 
ATOM     33  C   UNL     1       3.710   5.106  17.460  0.00  0.00    +0.000 A 
ATOM     34  S   UNL     1       2.479   5.694  18.499  0.00  0.00    +0.000 S 
ENDBRANCH  23  26
ENDBRANCH   9  22
BRANCH   1  36
ATOM     35  C   UNL     1      -5.448  13.028  23.780  0.00  0.00    +0.000 C 
ATOM     36  O   UNL     1      -5.363  13.724  22.541  0.00  0.00    +0.000 OA
ENDBRANCH   1  36
TORSDOF 3
ENDMDL
MODEL 2
REMARK VINA RESULT:      -8.0      1.575      1.940
REMARK  Name = 
REMARK  7 active torsions:
REMARK  status: ('A' for Active; 'I' for Inactive)
REMARK    1  A    between atoms: C_1  and  O_2
REMARK    2  A    between atoms: O_2  and  C_3
REMARK    3  A    between atoms: N_5  and  C_6
REMARK    4  A    between atoms: C_11  and  N_12
REMARK    5  A    between atoms: C_13  and  C_15
REMARK    6  A    between atoms: C_29  and  C_30
REMARK    7  A    between atoms: C_33  and  C_34
REMARK                            x       y       z     vdW  Elec       q    Type
REMARK                         _______ _______ _______ _____ _____    ______ ____
ROOT
ATOM      1  C   UNL     1      -5.545  14.193  21.468  0.00  0.00    +0.000 C 
ATOM      2  C   UNL     1      -4.936  12.796  21.102  0.00  0.00    +0.000 C 
ATOM      3  N   UNL     1      -3.473  12.642  21.109  0.00  0.00    +0.000 N 
ATOM      4  C   UNL     1      -2.763  12.768  22.377  0.00  0.00    +0.000 C 
ATOM      5  C   UNL     1      -2.850  12.221  19.925  0.00  0.00    +0.000 C 
ATOM      6  O   UNL     1      -3.472  11.908  18.911  0.00  0.00    +0.000 OA
ATOM      7  C   UNL     1      -1.370  12.133  19.842  0.00  0.00    +0.000 A 
ATOM      8  C   UNL     1      -0.817  10.857  19.642  0.00  0.00    +0.000 A 
ATOM      9  C   UNL     1       0.550  10.698  19.402  0.00  0.00    +0.000 A 
ATOM     10  C   UNL     1       1.351  11.848  19.377  0.00  0.00    +0.000 A 
ATOM     11  C   UNL     1       0.799  13.133  19.561  0.00  0.00    +0.000 A 
ATOM     12  C   UNL     1      -0.571  13.285  19.775  0.00  0.00    +0.000 A 
ATOM     13  O   UNL     1      -1.228  14.467  19.886  0.00  0.00    +0.000 OA
ATOM     14  C   UNL     1      -0.561  15.724  19.871  0.00  0.00    +0.000 C 
ATOM     15  C   UNL     1      -1.572  16.892  20.173  0.00  0.00    +0.000 C 
ATOM     16  C   UNL     1      -1.382  17.430  21.600  0.00  0.00    +0.000 C 
ATOM     17  N   UNL     1      -3.012  16.661  19.870  0.00  0.00    +0.000 NA
ATOM     18  C   UNL     1      -3.656  15.760  20.833  0.00  0.00    +0.000 C 
ATOM     19  C   UNL     1      -5.127  15.405  20.566  0.00  0.00    +0.000 C 
ATOM     20  C   UNL     1      -5.977  16.658  20.850  0.00  0.00    +0.000 C 
ATOM     21  H   UNL     1      -3.077  16.230  18.944  0.00  0.00    +0.000 HD
ENDROOT
BRANCH   9  22
ATOM     22  N   UNL     1       1.161   9.441  19.158  0.00  0.00    +0.000 N 
ATOM     23  C   UNL     1       1.506   8.487  20.113  0.00  0.00    +0.000 C 
ATOM     24  O   UNL     1       1.319   8.626  21.318  0.00  0.00    +0.000 OA
ATOM     25  H   UNL     1       1.378   9.188  18.196  0.00  0.00    +0.000 HD
BRANCH  23  26
ATOM     26  C   UNL     1       2.165   7.287  19.574  0.00  0.00    +0.000 A 
ATOM     27  N   UNL     1       2.209   6.111  20.174  0.00  0.00    +0.000 NA
ATOM     28  C   UNL     1       2.953   5.229  19.384  0.00  0.00    +0.000 A 
ATOM     29  C   UNL     1       3.284   3.893  19.697  0.00  0.00    +0.000 A 
ATOM     30  C   UNL     1       4.039   3.125  18.799  0.00  0.00    +0.000 A 
ATOM     31  C   UNL     1       4.449   3.655  17.579  0.00  0.00    +0.000 A 
ATOM     32  C   UNL     1       4.135   4.973  17.241  0.00  0.00    +0.000 A 
ATOM     33  C   UNL     1       3.405   5.743  18.165  0.00  0.00    +0.000 A 
ATOM     34  S   UNL     1       2.936   7.387  18.044  0.00  0.00    +0.000 S 
ENDBRANCH  23  26
ENDBRANCH   9  22
BRANCH   1  36
ATOM     35  C   UNL     1      -7.612  13.121  20.759  0.00  0.00    +0.000 C 
ATOM     36  O   UNL     1      -6.983  14.089  21.591  0.00  0.00    +0.000 OA
ENDBRANCH   1  36
TORSDOF 3
ENDMDL
MODEL 3
REMARK VINA RESULT:      -8.0      1.151      1.225
REMARK  Name = 
REMARK  7 active torsions:
REMARK  status: ('A' for Active; 'I' for Inactive)
REMARK    1  A    between atoms: C_1  and  O_2
REMARK    2  A    between atoms: O_2  and  C_3
REMARK    3  A    between atoms: N_5  and  C_6
REMARK    4  A    between atoms: C_11  and  N_12
REMARK    5  A    between atoms: C_13  and  C_15
REMARK    6  A    between atoms: C_29  and  C_30
REMARK    7  A    between atoms: C_33  and  C_34
REMARK                            x       y       z     vdW  Elec       q    Type
REMARK                         _______ _______ _______ _____ _____    ______ ____
ROOT
ATOM      1  C   UNL     1      -5.552  13.753  21.281  0.00  0.00    +0.000 C 
ATOM      2  C   UNL     1      -4.853  12.443  20.780  0.00  0.00    +0.000 C 
ATOM      3  N   UNL     1      -3.384  12.379  20.793  0.00  0.00    +0.000 N 
ATOM      4  C   UNL     1      -2.694  12.414  22.077  0.00  0.00    +0.000 C 
ATOM      5  C   UNL     1      -2.726  12.125  19.580  0.00  0.00    +0.000 C 
ATOM      6  O   UNL     1      -3.319  11.883  18.529  0.00  0.00    +0.000 OA
ATOM      7  C   UNL     1      -1.243  12.137  19.511  0.00  0.00    +0.000 A 
ATOM      8  C   UNL     1      -0.609  10.927  19.186  0.00  0.00    +0.000 A 
ATOM      9  C   UNL     1       0.767  10.879  18.951  0.00  0.00    +0.000 A 
ATOM     10  C   UNL     1       1.494  12.072  19.058  0.00  0.00    +0.000 A 
ATOM     11  C   UNL     1       0.861  13.294  19.369  0.00  0.00    +0.000 A 
ATOM     12  C   UNL     1      -0.517  13.337  19.576  0.00  0.00    +0.000 A 
ATOM     13  O   UNL     1      -1.249  14.459  19.802  0.00  0.00    +0.000 OA
ATOM     14  C   UNL     1      -0.661  15.748  19.928  0.00  0.00    +0.000 C 
ATOM     15  C   UNL     1      -1.746  16.813  20.336  0.00  0.00    +0.000 C 
ATOM     16  C   UNL     1      -1.603  17.208  21.815  0.00  0.00    +0.000 C 
ATOM     17  N   UNL     1      -3.166  16.527  19.989  0.00  0.00    +0.000 NA
ATOM     18  C   UNL     1      -3.760  15.492  20.843  0.00  0.00    +0.000 C 
ATOM     19  C   UNL     1      -5.204  15.077  20.518  0.00  0.00    +0.000 C 
ATOM     20  C   UNL     1      -6.133  16.238  20.919  0.00  0.00    +0.000 C 
ATOM     21  H   UNL     1      -3.196  16.194  19.023  0.00  0.00    +0.000 HD
ENDROOT
BRANCH   9  22
ATOM     22  N   UNL     1       1.458   9.694  18.585  0.00  0.00    +0.000 N 
ATOM     23  C   UNL     1       1.728   8.604  19.409  0.00  0.00    +0.000 C 
ATOM     24  O   UNL     1       1.393   8.537  20.587  0.00  0.00    +0.000 OA
ATOM     25  H   UNL     1       1.800   9.610  17.630  0.00  0.00    +0.000 HD
BRANCH  23  26
ATOM     26  C   UNL     1       2.499   7.526  18.770  0.00  0.00    +0.000 A 
ATOM     27  N   UNL     1       3.406   7.699  17.825  0.00  0.00    +0.000 NA
ATOM     28  C   UNL     1       3.896   6.448  17.435  0.00  0.00    +0.000 A 
ATOM     29  C   UNL     1       4.833   6.193  16.411  0.00  0.00    +0.000 A 
ATOM     30  C   UNL     1       5.235   4.878  16.135  0.00  0.00    +0.000 A 
ATOM     31  C   UNL     1       4.738   3.811  16.879  0.00  0.00    +0.000 A 
ATOM     32  C   UNL     1       3.810   4.033  17.898  0.00  0.00    +0.000 A 
ATOM     33  C   UNL     1       3.392   5.354  18.144  0.00  0.00    +0.000 A 
ATOM     34  S   UNL     1       2.232   5.909  19.278  0.00  0.00    +0.000 S 
ENDBRANCH  23  26
ENDBRANCH   9  22
BRANCH   1  36
ATOM     35  C   UNL     1      -7.401  12.319  21.955  0.00  0.00    +0.000 C 
ATOM     36  O   UNL     1      -6.982  13.548  21.371  0.00  0.00    +0.000 OA
ENDBRANCH   1  36
TORSDOF 3
ENDMDL
MODEL 4
REMARK VINA RESULT:      -7.9      1.147      1.368
REMARK  Name = 
REMARK  7 active torsions:
REMARK  status: ('A' for Active; 'I' for Inactive)
REMARK    1  A    between atoms: C_1  and  O_2
REMARK    2  A    between atoms: O_2  and  C_3
REMARK    3  A    between atoms: N_5  and  C_6
REMARK    4  A    between atoms: C_11  and  N_12
REMARK    5  A    between atoms: C_13  and  C_15
REMARK    6  A    between atoms: C_29  and  C_30
REMARK    7  A    between atoms: C_33  and  C_34
REMARK                            x       y       z     vdW  Elec       q    Type
REMARK                         _______ _______ _______ _____ _____    ______ ____
ROOT
ATOM      1  C   UNL     1      -4.154  14.749  22.013  0.00  0.00    +0.000 C 
ATOM      2  C   UNL     1      -3.723  13.262  21.772  0.00  0.00    +0.000 C 
ATOM      3  N   UNL     1      -2.322  12.983  21.420  0.00  0.00    +0.000 N 
ATOM      4  C   UNL     1      -1.285  13.263  22.406  0.00  0.00    +0.000 C 
ATOM      5  C   UNL     1      -2.068  12.310  20.216  0.00  0.00    +0.000 C 
ATOM      6  O   UNL     1      -2.959  11.882  19.482  0.00  0.00    +0.000 OA
ATOM      7  C   UNL     1      -0.674  12.078  19.762  0.00  0.00    +0.000 A 
ATOM      8  C   UNL     1      -0.246  10.744  19.669  0.00  0.00    +0.000 A 
ATOM      9  C   UNL     1       0.994  10.425  19.110  0.00  0.00    +0.000 A 
ATOM     10  C   UNL     1       1.799  11.478  18.654  0.00  0.00    +0.000 A 
ATOM     11  C   UNL     1       1.368  12.819  18.730  0.00  0.00    +0.000 A 
ATOM     12  C   UNL     1       0.118  13.126  19.266  0.00  0.00    +0.000 A 
ATOM     13  O   UNL     1      -0.438  14.364  19.321  0.00  0.00    +0.000 OA
ATOM     14  C   UNL     1       0.246  15.534  18.889  0.00  0.00    +0.000 C 
ATOM     15  C   UNL     1      -0.598  16.821  19.220  0.00  0.00    +0.000 C 
ATOM     16  C   UNL     1       0.000  17.580  20.416  0.00  0.00    +0.000 C 
ATOM     17  N   UNL     1      -2.073  16.670  19.360  0.00  0.00    +0.000 NA
ATOM     18  C   UNL     1      -2.458  16.010  20.614  0.00  0.00    +0.000 C 
ATOM     19  C   UNL     1      -3.958  15.745  20.819  0.00  0.00    +0.000 C 
ATOM     20  C   UNL     1      -4.648  17.098  21.074  0.00  0.00    +0.000 C 
ATOM     21  H   UNL     1      -2.408  16.093  18.585  0.00  0.00    +0.000 HD
ENDROOT
BRANCH   9  22
ATOM     22  N   UNL     1       1.466   9.096  18.957  0.00  0.00    +0.000 N 
ATOM     23  C   UNL     1       1.733   8.188  19.979  0.00  0.00    +0.000 C 
ATOM     24  O   UNL     1       1.591   8.438  21.171  0.00  0.00    +0.000 OA
ATOM     25  H   UNL     1       1.633   8.748  18.015  0.00  0.00    +0.000 HD
BRANCH  23  26
ATOM     26  C   UNL     1       2.252   6.888  19.527  0.00  0.00    +0.000 A 
ATOM     27  N   UNL     1       2.975   6.695  18.438  0.00  0.00    +0.000 NA
ATOM     28  C   UNL     1       3.248   5.329  18.312  0.00  0.00    +0.000 A 
ATOM     29  C   UNL     1       3.942   4.703  17.255  0.00  0.00    +0.000 A 
ATOM     30  C   UNL     1       4.143   3.315  17.268  0.00  0.00    +0.000 A 
ATOM     31  C   UNL     1       3.688   2.541  18.331  0.00  0.00    +0.000 A 
ATOM     32  C   UNL     1       2.999   3.132  19.391  0.00  0.00    +0.000 A 
ATOM     33  C   UNL     1       2.776   4.521  19.350  0.00  0.00    +0.000 A 
ATOM     34  S   UNL     1       1.918   5.494  20.471  0.00  0.00    +0.000 S 
ENDBRANCH  23  26
ENDBRANCH   9  22
BRANCH   1  36
ATOM     35  C   UNL     1      -6.435  13.902  21.930  0.00  0.00    +0.000 C 
ATOM     36  O   UNL     1      -5.504  14.796  22.531  0.00  0.00    +0.000 OA
ENDBRANCH   1  36
TORSDOF 3
ENDMDL
MODEL 5
REMARK VINA RESULT:      -7.9      1.499      1.939
REMARK  Name = 
REMARK  7 active torsions:
REMARK  status: ('A' for Active; 'I' for Inactive)
REMARK    1  A    between atoms: C_1  and  O_2
REMARK    2  A    between atoms: O_2  and  C_3
REMARK    3  A    between atoms: N_5  and  C_6
REMARK    4  A    between atoms: C_11  and  N_12
REMARK    5  A    between atoms: C_13  and  C_15
REMARK    6  A    between atoms: C_29  and  C_30
REMARK    7  A    between atoms: C_33  and  C_34
REMARK                            x       y       z     vdW  Elec       q    Type
REMARK                         _______ _______ _______ _____ _____    ______ ____
ROOT
ATOM      1  C   UNL     1      -3.617  15.035  22.081  0.00  0.00    +0.000 C 
ATOM      2  C   UNL     1      -3.293  13.515  21.882  0.00  0.00    +0.000 C 
ATOM      3  N   UNL     1      -1.936  13.132  21.465  0.00  0.00    +0.000 N 
ATOM      4  C   UNL     1      -0.827  13.385  22.379  0.00  0.00    +0.000 C 
ATOM      5  C   UNL     1      -1.795  12.396  20.280  0.00  0.00    +0.000 C 
ATOM      6  O   UNL     1      -2.751  11.997  19.616  0.00  0.00    +0.000 OA
ATOM      7  C   UNL     1      -0.446  12.057  19.759  0.00  0.00    +0.000 A 
ATOM      8  C   UNL     1      -0.109  10.695  19.702  0.00  0.00    +0.000 A 
ATOM      9  C   UNL     1       1.075  10.275  19.088  0.00  0.00    +0.000 A 
ATOM     10  C   UNL     1       1.915  11.254  18.543  0.00  0.00    +0.000 A 
ATOM     11  C   UNL     1       1.574  12.622  18.583  0.00  0.00    +0.000 A 
ATOM     12  C   UNL     1       0.379  13.030  19.174  0.00  0.00    +0.000 A 
ATOM     13  O   UNL     1      -0.095  14.302  19.205  0.00  0.00    +0.000 OA
ATOM     14  C   UNL     1       0.634  15.408  18.685  0.00  0.00    +0.000 C 
ATOM     15  C   UNL     1      -0.107  16.759  19.005  0.00  0.00    +0.000 C 
ATOM     16  C   UNL     1       0.605  17.525  20.131  0.00  0.00    +0.000 C 
ATOM     17  N   UNL     1      -1.578  16.709  19.234  0.00  0.00    +0.000 NA
ATOM     18  C   UNL     1      -1.930  16.126  20.535  0.00  0.00    +0.000 C 
ATOM     19  C   UNL     1      -3.429  15.968  20.835  0.00  0.00    +0.000 C 
ATOM     20  C   UNL     1      -4.017  17.372  21.068  0.00  0.00    +0.000 C 
ATOM     21  H   UNL     1      -1.993  16.124  18.505  0.00  0.00    +0.000 HD
ENDROOT
BRANCH   9  22
ATOM     22  N   UNL     1       1.453   8.912  18.968  0.00  0.00    +0.000 N 
ATOM     23  C   UNL     1       1.758   8.041  20.012  0.00  0.00    +0.000 C 
ATOM     24  O   UNL     1       1.736   8.358  21.196  0.00  0.00    +0.000 OA
ATOM     25  H   UNL     1       1.515   8.509  18.036  0.00  0.00    +0.000 HD
BRANCH  23  26
ATOM     26  C   UNL     1       2.158   6.690  19.588  0.00  0.00    +0.000 A 
ATOM     27  N   UNL     1       1.895   5.577  20.251  0.00  0.00    +0.000 NA
ATOM     28  C   UNL     1       2.466   4.499  19.567  0.00  0.00    +0.000 A 
ATOM     29  C   UNL     1       2.464   3.148  19.974  0.00  0.00    +0.000 A 
ATOM     30  C   UNL     1       3.078   2.171  19.177  0.00  0.00    +0.000 A 
ATOM     31  C   UNL     1       3.672   2.511  17.965  0.00  0.00    +0.000 A 
ATOM     32  C   UNL     1       3.688   3.840  17.536  0.00  0.00    +0.000 A 
ATOM     33  C   UNL     1       3.097   4.814  18.360  0.00  0.00    +0.000 A 
ATOM     34  S   UNL     1       3.024   6.510  18.117  0.00  0.00    +0.000 S 
ENDBRANCH  23  26
ENDBRANCH   9  22
BRANCH   1  36
ATOM     35  C   UNL     1      -4.958  15.415  24.076  0.00  0.00    +0.000 C 
ATOM     36  O   UNL     1      -4.929  15.190  22.670  0.00  0.00    +0.000 OA
ENDBRANCH   1  36
TORSDOF 3
ENDMDL
MODEL 6
REMARK VINA RESULT:      -7.8      2.382      4.142
REMARK  Name = 
REMARK  7 active torsions:
REMARK  status: ('A' for Active; 'I' for Inactive)
REMARK    1  A    between atoms: C_1  and  O_2
REMARK    2  A    between atoms: O_2  and  C_3
REMARK    3  A    between atoms: N_5  and  C_6
REMARK    4  A    between atoms: C_11  and  N_12
REMARK    5  A    between atoms: C_13  and  C_15
REMARK    6  A    between atoms: C_29  and  C_30
REMARK    7  A    between atoms: C_33  and  C_34
REMARK                            x       y       z     vdW  Elec       q    Type
REMARK                         _______ _______ _______ _____ _____    ______ ____
ROOT
ATOM      1  C   UNL     1      -0.031  16.284  19.341  0.00  0.00    +0.000 C 
ATOM      2  C   UNL     1       0.651  14.937  18.921  0.00  0.00    +0.000 C 
ATOM      3  N   UNL     1       0.125  13.679  19.471  0.00  0.00    +0.000 N 
ATOM      4  C   UNL     1      -1.224  13.264  19.101  0.00  0.00    +0.000 C 
ATOM      5  C   UNL     1       1.003  12.859  20.194  0.00  0.00    +0.000 C 
ATOM      6  O   UNL     1       2.202  13.106  20.326  0.00  0.00    +0.000 OA
ATOM      7  C   UNL     1       0.511  11.620  20.850  0.00  0.00    +0.000 A 
ATOM      8  C   UNL     1       1.030  10.402  20.383  0.00  0.00    +0.000 A 
ATOM      9  C   UNL     1       0.740   9.202  21.038  0.00  0.00    +0.000 A 
ATOM     10  C   UNL     1      -0.090   9.252  22.165  0.00  0.00    +0.000 A 
ATOM     11  C   UNL     1      -0.602  10.475  22.648  0.00  0.00    +0.000 A 
ATOM     12  C   UNL     1      -0.286  11.671  22.004  0.00  0.00    +0.000 A 
ATOM     13  O   UNL     1      -0.650  12.912  22.417  0.00  0.00    +0.000 OA
ATOM     14  C   UNL     1      -1.483  13.134  23.549  0.00  0.00    +0.000 C 
ATOM     15  C   UNL     1      -1.848  14.660  23.678  0.00  0.00    +0.000 C 
ATOM     16  C   UNL     1      -3.301  14.917  23.249  0.00  0.00    +0.000 C 
ATOM     17  N   UNL     1      -0.920  15.651  23.066  0.00  0.00    +0.000 NA
ATOM     18  C   UNL     1      -1.010  15.681  21.601  0.00  0.00    +0.000 C 
ATOM     19  C   UNL     1      -0.041  16.625  20.871  0.00  0.00    +0.000 C 
ATOM     20  C   UNL     1      -0.496  18.072  21.139  0.00  0.00    +0.000 C 
ATOM     21  H   UNL     1       0.036  15.389  23.317  0.00  0.00    +0.000 HD
ENDROOT
BRANCH   9  22
ATOM     22  N   UNL     1       1.262   7.945  20.635  0.00  0.00    +0.000 N 
ATOM     23  C   UNL     1       1.969   7.677  19.466  0.00  0.00    +0.000 C 
ATOM     24  O   UNL     1       2.232   8.522  18.616  0.00  0.00    +0.000 OA
ATOM     25  H   UNL     1       1.117   7.144  21.246  0.00  0.00    +0.000 HD
BRANCH  23  26
ATOM     26  C   UNL     1       2.356   6.268  19.290  0.00  0.00    +0.000 A 
ATOM     27  N   UNL     1       2.884   5.757  18.192  0.00  0.00    +0.000 NA
ATOM     28  C   UNL     1       3.079   4.385  18.381  0.00  0.00    +0.000 A 
ATOM     29  C   UNL     1       3.567   3.465  17.429  0.00  0.00    +0.000 A 
ATOM     30  C   UNL     1       3.714   2.112  17.767  0.00  0.00    +0.000 A 
ATOM     31  C   UNL     1       3.409   1.661  19.048  0.00  0.00    +0.000 A 
ATOM     32  C   UNL     1       2.926   2.549  20.012  0.00  0.00    +0.000 A 
ATOM     33  C   UNL     1       2.753   3.897  19.650  0.00  0.00    +0.000 A 
ATOM     34  S   UNL     1       2.128   5.181  20.599  0.00  0.00    +0.000 S 
ENDBRANCH  23  26
ENDBRANCH   9  22
BRANCH   1  36
ATOM     35  C   UNL     1      -0.327  17.839  17.493  0.00  0.00    +0.000 C 
ATOM     36  O   UNL     1       0.500  17.375  18.554  0.00  0.00    +0.000 OA
ENDBRANCH   1  36
TORSDOF 3
ENDMDL
MODEL 7
REMARK VINA RESULT:      -7.8      0.901      1.288
REMARK  Name = 
REMARK  7 active torsions:
REMARK  status: ('A' for Active; 'I' for Inactive)
REMARK    1  A    between atoms: C_1  and  O_2
REMARK    2  A    between atoms: O_2  and  C_3
REMARK    3  A    between atoms: N_5  and  C_6
REMARK    4  A    between atoms: C_11  and  N_12
REMARK    5  A    between atoms: C_13  and  C_15
REMARK    6  A    between atoms: C_29  and  C_30
REMARK    7  A    between atoms: C_33  and  C_34
REMARK                            x       y       z     vdW  Elec       q    Type
REMARK                         _______ _______ _______ _____ _____    ______ ____
ROOT
ATOM      1  C   UNL     1      -3.989  14.432  22.182  0.00  0.00    +0.000 C 
ATOM      2  C   UNL     1      -3.502  12.993  21.799  0.00  0.00    +0.000 C 
ATOM      3  N   UNL     1      -2.108  12.813  21.367  0.00  0.00    +0.000 N 
ATOM      4  C   UNL     1      -1.040  13.061  22.330  0.00  0.00    +0.000 C 
ATOM      5  C   UNL     1      -1.878  12.255  20.101  0.00  0.00    +0.000 C 
ATOM      6  O   UNL     1      -2.781  11.846  19.371  0.00  0.00    +0.000 OA
ATOM      7  C   UNL     1      -0.497  12.130  19.572  0.00  0.00    +0.000 A 
ATOM      8  C   UNL     1      -0.014  10.830  19.349  0.00  0.00    +0.000 A 
ATOM      9  C   UNL     1       1.213  10.620  18.714  0.00  0.00    +0.000 A 
ATOM     10  C   UNL     1       1.948  11.744  18.316  0.00  0.00    +0.000 A 
ATOM     11  C   UNL     1       1.461  13.052  18.523  0.00  0.00    +0.000 A 
ATOM     12  C   UNL     1       0.224  13.252  19.134  0.00  0.00    +0.000 A 
ATOM     13  O   UNL     1      -0.384  14.452  19.316  0.00  0.00    +0.000 OA
ATOM     14  C   UNL     1       0.226  15.687  18.958  0.00  0.00    +0.000 C 
ATOM     15  C   UNL     1      -0.659  16.900  19.431  0.00  0.00    +0.000 C 
ATOM     16  C   UNL     1      -0.043  17.585  20.661  0.00  0.00    +0.000 C 
ATOM     17  N   UNL     1      -2.118  16.665  19.618  0.00  0.00    +0.000 NA
ATOM     18  C   UNL     1      -2.416  15.886  20.826  0.00  0.00    +0.000 C 
ATOM     19  C   UNL     1      -3.892  15.532  21.069  0.00  0.00    +0.000 C 
ATOM     20  C   UNL     1      -4.630  16.824  21.466  0.00  0.00    +0.000 C 
ATOM     21  H   UNL     1      -2.461  16.138  18.811  0.00  0.00    +0.000 HD
ENDROOT
BRANCH   9  22
ATOM     22  N   UNL     1       1.737   9.332  18.430  0.00  0.00    +0.000 N 
ATOM     23  C   UNL     1       1.907   8.287  19.336  0.00  0.00    +0.000 C 
ATOM     24  O   UNL     1       1.616   8.359  20.525  0.00  0.00    +0.000 OA
ATOM     25  H   UNL     1       2.025   9.127  17.475  0.00  0.00    +0.000 HD
BRANCH  23  26
ATOM     26  C   UNL     1       2.511   7.073  18.767  0.00  0.00    +0.000 A 
ATOM     27  N   UNL     1       2.195   5.836  19.107  0.00  0.00    +0.000 NA
ATOM     28  C   UNL     1       3.004   4.949  18.390  0.00  0.00    +0.000 A 
ATOM     29  C   UNL     1       3.021   3.542  18.507  0.00  0.00    +0.000 A 
ATOM     30  C   UNL     1       3.890   2.779  17.713  0.00  0.00    +0.000 A 
ATOM     31  C   UNL     1       4.726   3.391  16.784  0.00  0.00    +0.000 A 
ATOM     32  C   UNL     1       4.730   4.781  16.645  0.00  0.00    +0.000 A 
ATOM     33  C   UNL     1       3.877   5.536  17.470  0.00  0.00    +0.000 A 
ATOM     34  S   UNL     1       3.718   7.241  17.558  0.00  0.00    +0.000 S 
ENDBRANCH  23  26
ENDBRANCH   9  22
BRANCH   1  36
ATOM     35  C   UNL     1      -5.841  13.065  22.973  0.00  0.00    +0.000 C 
ATOM     36  O   UNL     1      -5.315  14.370  22.757  0.00  0.00    +0.000 OA
ENDBRANCH   1  36
TORSDOF 3
ENDMDL
MODEL 8
REMARK VINA RESULT:      -7.8      2.632      4.416
REMARK  Name = 
REMARK  7 active torsions:
REMARK  status: ('A' for Active; 'I' for Inactive)
REMARK    1  A    between atoms: C_1  and  O_2
REMARK    2  A    between atoms: O_2  and  C_3
REMARK    3  A    between atoms: N_5  and  C_6
REMARK    4  A    between atoms: C_11  and  N_12
REMARK    5  A    between atoms: C_13  and  C_15
REMARK    6  A    between atoms: C_29  and  C_30
REMARK    7  A    between atoms: C_33  and  C_34
REMARK                            x       y       z     vdW  Elec       q    Type
REMARK                         _______ _______ _______ _____ _____    ______ ____
ROOT
ATOM      1  C   UNL     1      -0.568  16.415  19.667  0.00  0.00    +0.000 C 
ATOM      2  C   UNL     1       0.241  15.105  19.376  0.00  0.00    +0.000 C 
ATOM      3  N   UNL     1      -0.262  13.832  19.913  0.00  0.00    +0.000 N 
ATOM      4  C   UNL     1      -1.531  13.315  19.414  0.00  0.00    +0.000 C 
ATOM      5  C   UNL     1       0.581  13.096  20.759  0.00  0.00    +0.000 C 
ATOM      6  O   UNL     1       1.739  13.428  21.012  0.00  0.00    +0.000 OA
ATOM      7  C   UNL     1       0.099  11.848  21.404  0.00  0.00    +0.000 A 
ATOM      8  C   UNL     1       0.744  10.654  21.044  0.00  0.00    +0.000 A 
ATOM      9  C   UNL     1       0.460   9.458  21.709  0.00  0.00    +0.000 A 
ATOM     10  C   UNL     1      -0.492   9.487  22.736  0.00  0.00    +0.000 A 
ATOM     11  C   UNL     1      -1.131  10.687  23.113  0.00  0.00    +0.000 A 
ATOM     12  C   UNL     1      -0.823  11.881  22.462  0.00  0.00    +0.000 A 
ATOM     13  O   UNL     1      -1.310  13.107  22.784  0.00  0.00    +0.000 OA
ATOM     14  C   UNL     1      -2.276  13.306  23.809  0.00  0.00    +0.000 C 
ATOM     15  C   UNL     1      -2.750  14.807  23.838  0.00  0.00    +0.000 C 
ATOM     16  C   UNL     1      -4.159  14.952  23.243  0.00  0.00    +0.000 C 
ATOM     17  N   UNL     1      -1.825  15.839  23.293  0.00  0.00    +0.000 NA
ATOM     18  C   UNL     1      -1.753  15.818  21.827  0.00  0.00    +0.000 C 
ATOM     19  C   UNL     1      -0.771  16.802  21.172  0.00  0.00    +0.000 C 
ATOM     20  C   UNL     1      -1.344  18.222  21.333  0.00  0.00    +0.000 C 
ATOM     21  H   UNL     1      -0.888  15.651  23.657  0.00  0.00    +0.000 HD
ENDROOT
BRANCH   9  22
ATOM     22  N   UNL     1       1.103   8.227  21.415  0.00  0.00    +0.000 N 
ATOM     23  C   UNL     1       1.637   7.844  20.187  0.00  0.00    +0.000 C 
ATOM     24  O   UNL     1       1.613   8.545  19.181  0.00  0.00    +0.000 OA
ATOM     25  H   UNL     1       1.195   7.540  22.160  0.00  0.00    +0.000 HD
BRANCH  23  26
ATOM     26  C   UNL     1       2.212   6.489  20.162  0.00  0.00    +0.000 A 
ATOM     27  N   UNL     1       1.810   5.480  20.914  0.00  0.00    +0.000 NA
ATOM     28  C   UNL     1       2.614   4.368  20.645  0.00  0.00    +0.000 A 
ATOM     29  C   UNL     1       2.550   3.109  21.280  0.00  0.00    +0.000 A 
ATOM     30  C   UNL     1       3.425   2.082  20.898  0.00  0.00    +0.000 A 
ATOM     31  C   UNL     1       4.348   2.277  19.874  0.00  0.00    +0.000 A 
ATOM     32  C   UNL     1       4.433   3.511  19.227  0.00  0.00    +0.000 A 
ATOM     33  C   UNL     1       3.572   4.543  19.642  0.00  0.00    +0.000 A 
ATOM     34  S   UNL     1       3.497   6.159  19.074  0.00  0.00    +0.000 S 
ENDBRANCH  23  26
ENDBRANCH   9  22
BRANCH   1  36
ATOM     35  C   UNL     1      -0.736  17.865  17.719  0.00  0.00    +0.000 C 
ATOM     36  O   UNL     1      -0.024  17.515  18.901  0.00  0.00    +0.000 OA
ENDBRANCH   1  36
TORSDOF 3
ENDMDL
MODEL 9
REMARK VINA RESULT:      -7.7      2.487      3.490
REMARK  Name = 
REMARK  7 active torsions:
REMARK  status: ('A' for Active; 'I' for Inactive)
REMARK    1  A    between atoms: C_1  and  O_2
REMARK    2  A    between atoms: O_2  and  C_3
REMARK    3  A    between atoms: N_5  and  C_6
REMARK    4  A    between atoms: C_11  and  N_12
REMARK    5  A    between atoms: C_13  and  C_15
REMARK    6  A    between atoms: C_29  and  C_30
REMARK    7  A    between atoms: C_33  and  C_34
REMARK                            x       y       z     vdW  Elec       q    Type
REMARK                         _______ _______ _______ _____ _____    ______ ____
ROOT
ATOM      1  C   UNL     1      -2.046  16.045  24.268  0.00  0.00    +0.000 C 
ATOM      2  C   UNL     1      -0.998  14.931  23.926  0.00  0.00    +0.000 C 
ATOM      3  N   UNL     1      -1.021  14.331  22.583  0.00  0.00    +0.000 N 
ATOM      4  C   UNL     1      -0.699  15.172  21.436  0.00  0.00    +0.000 C 
ATOM      5  C   UNL     1      -1.192  12.942  22.486  0.00  0.00    +0.000 C 
ATOM      6  O   UNL     1      -1.251  12.200  23.467  0.00  0.00    +0.000 OA
ATOM      7  C   UNL     1      -1.313  12.288  21.159  0.00  0.00    +0.000 A 
ATOM      8  C   UNL     1      -0.301  11.383  20.799  0.00  0.00    +0.000 A 
ATOM      9  C   UNL     1      -0.410  10.611  19.639  0.00  0.00    +0.000 A 
ATOM     10  C   UNL     1      -1.552  10.775  18.845  0.00  0.00    +0.000 A 
ATOM     11  C   UNL     1      -2.580  11.671  19.209  0.00  0.00    +0.000 A 
ATOM     12  C   UNL     1      -2.475  12.418  20.382  0.00  0.00    +0.000 A 
ATOM     13  O   UNL     1      -3.427  13.250  20.878  0.00  0.00    +0.000 OA
ATOM     14  C   UNL     1      -4.648  13.516  20.197  0.00  0.00    +0.000 C 
ATOM     15  C   UNL     1      -5.469  14.630  20.947  0.00  0.00    +0.000 C 
ATOM     16  C   UNL     1      -5.397  15.968  20.195  0.00  0.00    +0.000 C 
ATOM     17  N   UNL     1      -5.220  14.815  22.404  0.00  0.00    +0.000 NA
ATOM     18  C   UNL     1      -3.938  15.476  22.680  0.00  0.00    +0.000 C 
ATOM     19  C   UNL     1      -3.559  15.650  24.159  0.00  0.00    +0.000 C 
ATOM     20  C   UNL     1      -4.483  16.725  24.762  0.00  0.00    +0.000 C 
ATOM     21  H   UNL     1      -5.199  13.892  22.842  0.00  0.00    +0.000 HD
ENDROOT
BRANCH   9  22
ATOM     22  N   UNL     1       0.562   9.656  19.241  0.00  0.00    +0.000 N 
ATOM     23  C   UNL     1       1.050   8.601  20.008  0.00  0.00    +0.000 C 
ATOM     24  O   UNL     1       0.688   8.365  21.157  0.00  0.00    +0.000 OA
ATOM     25  H   UNL     1       0.956   9.729  18.305  0.00  0.00    +0.000 HD
BRANCH  23  26
ATOM     26  C   UNL     1       2.085   7.789  19.350  0.00  0.00    +0.000 A 
ATOM     27  N   UNL     1       2.594   6.670  19.833  0.00  0.00    +0.000 NA
ATOM     28  C   UNL     1       3.578   6.205  18.955  0.00  0.00    +0.000 A 
ATOM     29  C   UNL     1       4.399   5.071  19.135  0.00  0.00    +0.000 A 
ATOM     30  C   UNL     1       5.346   4.725  18.160  0.00  0.00    +0.000 A 
ATOM     31  C   UNL     1       5.471   5.473  16.992  0.00  0.00    +0.000 A 
ATOM     32  C   UNL     1       4.672   6.599  16.787  0.00  0.00    +0.000 A 
ATOM     33  C   UNL     1       3.749   6.954  17.787  0.00  0.00    +0.000 A 
ATOM     34  S   UNL     1       2.693   8.304  17.829  0.00  0.00    +0.000 S 
ENDBRANCH  23  26
ENDBRANCH   9  22
BRANCH   1  36
ATOM     35  C   UNL     1      -0.875  15.882  26.396  0.00  0.00    +0.000 C 
ATOM     36  O   UNL     1      -1.739  16.636  25.552  0.00  0.00    +0.000 OA
ENDBRANCH   1  36
TORSDOF 3
ENDMDL
