MODEL 1
REMARK VINA RESULT:      -8.2      0.000      0.000
REMARK  Name = 
REMARK  10 active torsions:
REMARK  status: ('A' for Active; 'I' for Inactive)
REMARK    1  A    between atoms: C_2  and  C_3
REMARK    2  A    between atoms: N_5  and  C_6
REMARK    3  A    between atoms: C_9  and  C_10
REMARK    4  A    between atoms: C_10  and  N_11
REMARK    5  A    between atoms: N_11  and  C_12
REMARK    6  A    between atoms: N_15  and  C_16
REMARK    7  A    between atoms: N_19  and  C_20
REMARK    8  A    between atoms: C_20  and  C_21
REMARK    9  A    between atoms: C_21  and  O_22
REMARK   10  A    between atoms: O_22  and  C_23
REMARK                            x       y       z     vdW  Elec       q    Type
REMARK                         _______ _______ _______ _____ _____    ______ ____
ROOT
ATOM      1  C   UNL     1       2.926   4.893  19.126  0.00  0.00    +0.000 A 
ATOM      2  N   UNL     1       4.190   4.948  18.648  0.00  0.00    +0.000 NA
ATOM      3  C   UNL     1       5.068   3.983  18.982  0.00  0.00    +0.000 A 
ATOM      4  N   UNL     1       6.332   3.906  18.383  0.00  0.00    +0.000 N 
ATOM      5  N   UNL     1       4.781   2.986  19.825  0.00  0.00    +0.000 NA
ATOM      6  C   UNL     1       3.514   2.938  20.278  0.00  0.00    +0.000 A 
ATOM      7  C   UNL     1       2.532   3.850  19.951  0.00  0.00    +0.000 A 
ATOM      8 CL   UNL     1       0.946   3.550  20.540  0.00  0.00    +0.000 Cl
ATOM      9  H   UNL     1       6.763   3.052  18.719  0.00  0.00    +0.000 HD
ENDROOT
BRANCH   4  10
ATOM     10  C   UNL     1       6.746   4.482  17.240  0.00  0.00    +0.000 A 
ATOM     11  C   UNL     1       7.329   5.747  17.023  0.00  0.00    +0.000 A 
ATOM     12  N   UNL     1       7.551   5.985  15.727  0.00  0.00    +0.000 NA
ATOM     13  N   UNL     1       7.067   4.887  15.117  0.00  0.00    +0.000 N 
ATOM     14  C   UNL     1       6.629   3.927  15.990  0.00  0.00    +0.000 A 
BRANCH  13  15
ATOM     15  C   UNL     1       7.018   4.836  13.673  0.00  0.00    +0.000 C 
BRANCH  15  16
ATOM     16  C   UNL     1       6.021   3.797  13.193  0.00  0.00    +0.000 C 
BRANCH  16  17
ATOM     17  O   UNL     1       6.600   3.051  12.119  0.00  0.00    +0.000 OA
ATOM     18  C   UNL     1       5.652   2.165  11.539  0.00  0.00    +0.000 C 
ENDBRANCH  16  17
ENDBRANCH  15  16
ENDBRANCH  13  15
ENDBRANCH   4  10
BRANCH   1  19
ATOM     19  N   UNL     1       2.124   5.903  18.618  0.00  0.00    +0.000 N 
ATOM     20  H   UNL     1       1.645   5.527  17.800  0.00  0.00    +0.000 HD
BRANCH  19  21
ATOM     21  C   UNL     1       2.622   7.250  18.417  0.00  0.00    +0.000 C 
BRANCH  21  25
ATOM     22  C   UNL     1       0.158  10.069  20.610  0.00  0.00    +0.000 A 
ATOM     23  C   UNL     1       0.439  10.249  19.254  0.00  0.00    +0.000 A 
ATOM     24  C   UNL     1       1.251   9.347  18.567  0.00  0.00    +0.000 A 
ATOM     25  C   UNL     1       1.793   8.231  19.213  0.00  0.00    +0.000 A 
ATOM     26  C   UNL     1       1.541   8.061  20.580  0.00  0.00    +0.000 A 
ATOM     27  C   UNL     1       0.735   8.978  21.274  0.00  0.00    +0.000 A 
BRANCH  22  30
ATOM     28  C   UNL     1      -0.261  12.155  21.895  0.00  0.00    +0.000 C 
ATOM     29  O   UNL     1       0.826  12.701  21.746  0.00  0.00    +0.000 OA
ATOM     30  N   UNL     1      -0.666  10.952  21.346  0.00  0.00    +0.000 N 
ATOM     31  H   UNL     1      -1.638  10.691  21.432  0.00  0.00    +0.000 HD
BRANCH  28  33
ATOM     32  C   UNL     1      -1.257  14.128  22.936  0.00  0.00    +0.000 C 
ATOM     33  C   UNL     1      -1.320  12.807  22.716  0.00  0.00    +0.000 C 
ENDBRANCH  28  33
ENDBRANCH  22  30
ENDBRANCH  21  25
ENDBRANCH  19  21
ENDBRANCH   1  19
TORSDOF 9
ENDMDL
MODEL 2
REMARK VINA RESULT:      -8.2      0.917      1.300
REMARK  Name = 
REMARK  10 active torsions:
REMARK  status: ('A' for Active; 'I' for Inactive)
REMARK    1  A    between atoms: C_2  and  C_3
REMARK    2  A    between atoms: N_5  and  C_6
REMARK    3  A    between atoms: C_9  and  C_10
REMARK    4  A    between atoms: C_10  and  N_11
REMARK    5  A    between atoms: N_11  and  C_12
REMARK    6  A    between atoms: N_15  and  C_16
REMARK    7  A    between atoms: N_19  and  C_20
REMARK    8  A    between atoms: C_20  and  C_21
REMARK    9  A    between atoms: C_21  and  O_22
REMARK   10  A    between atoms: O_22  and  C_23
REMARK                            x       y       z     vdW  Elec       q    Type
REMARK                         _______ _______ _______ _____ _____    ______ ____
ROOT
ATOM      1  C   UNL     1       2.929   4.806  19.187  0.00  0.00    +0.000 A 
ATOM      2  N   UNL     1       4.190   4.886  18.705  0.00  0.00    +0.000 NA
ATOM      3  C   UNL     1       5.077   3.918  19.003  0.00  0.00    +0.000 A 
ATOM      4  N   UNL     1       6.339   3.871  18.396  0.00  0.00    +0.000 N 
ATOM      5  N   UNL     1       4.803   2.892  19.814  0.00  0.00    +0.000 NA
ATOM      6  C   UNL     1       3.538   2.819  20.271  0.00  0.00    +0.000 A 
ATOM      7  C   UNL     1       2.548   3.733  19.979  0.00  0.00    +0.000 A 
ATOM      8 CL   UNL     1       0.967   3.402  20.566  0.00  0.00    +0.000 Cl
ATOM      9  H   UNL     1       6.778   3.010  18.701  0.00  0.00    +0.000 HD
ENDROOT
BRANCH   4  10
ATOM     10  C   UNL     1       6.743   4.488  17.270  0.00  0.00    +0.000 A 
ATOM     11  C   UNL     1       7.266   5.783  17.085  0.00  0.00    +0.000 A 
ATOM     12  N   UNL     1       7.497   6.056  15.798  0.00  0.00    +0.000 NA
ATOM     13  N   UNL     1       7.078   4.947  15.160  0.00  0.00    +0.000 N 
ATOM     14  C   UNL     1       6.674   3.951  16.009  0.00  0.00    +0.000 A 
BRANCH  13  15
ATOM     15  C   UNL     1       7.055   4.920  13.715  0.00  0.00    +0.000 C 
BRANCH  15  16
ATOM     16  C   UNL     1       6.400   3.652  13.199  0.00  0.00    +0.000 C 
BRANCH  16  17
ATOM     17  O   UNL     1       5.016   3.908  12.946  0.00  0.00    +0.000 OA
ATOM     18  C   UNL     1       4.566   3.207  11.793  0.00  0.00    +0.000 C 
ENDBRANCH  16  17
ENDBRANCH  15  16
ENDBRANCH  13  15
ENDBRANCH   4  10
BRANCH   1  19
ATOM     19  N   UNL     1       2.117   5.826  18.716  0.00  0.00    +0.000 N 
ATOM     20  H   UNL     1       1.546   5.436  17.967  0.00  0.00    +0.000 HD
BRANCH  19  21
ATOM     21  C   UNL     1       2.640   7.142  18.408  0.00  0.00    +0.000 C 
BRANCH  21  25
ATOM     22  C   UNL     1       0.511  10.161  20.684  0.00  0.00    +0.000 A 
ATOM     23  C   UNL     1       1.009   9.007  21.293  0.00  0.00    +0.000 A 
ATOM     24  C   UNL     1       1.671   8.035  20.546  0.00  0.00    +0.000 A 
ATOM     25  C   UNL     1       1.868   8.196  19.169  0.00  0.00    +0.000 A 
ATOM     26  C   UNL     1       1.345   9.336  18.547  0.00  0.00    +0.000 A 
ATOM     27  C   UNL     1       0.665  10.307  19.299  0.00  0.00    +0.000 A 
BRANCH  22  30
ATOM     28  C   UNL     1      -0.732  11.033  22.653  0.00  0.00    +0.000 C 
ATOM     29  O   UNL     1      -0.659  10.051  23.383  0.00  0.00    +0.000 OA
ATOM     30  N   UNL     1      -0.161  11.179  21.402  0.00  0.00    +0.000 N 
ATOM     31  H   UNL     1      -0.178  12.094  20.974  0.00  0.00    +0.000 HD
BRANCH  28  33
ATOM     32  C   UNL     1      -2.810  12.261  23.029  0.00  0.00    +0.000 C 
ATOM     33  C   UNL     1      -1.471  12.246  23.102  0.00  0.00    +0.000 C 
ENDBRANCH  28  33
ENDBRANCH  22  30
ENDBRANCH  21  25
ENDBRANCH  19  21
ENDBRANCH   1  19
TORSDOF 9
ENDMDL
MODEL 3
REMARK VINA RESULT:      -8.1      0.552      1.053
REMARK  Name = 
REMARK  10 active torsions:
REMARK  status: ('A' for Active; 'I' for Inactive)
REMARK    1  A    between atoms: C_2  and  C_3
REMARK    2  A    between atoms: N_5  and  C_6
REMARK    3  A    between atoms: C_9  and  C_10
REMARK    4  A    between atoms: C_10  and  N_11
REMARK    5  A    between atoms: N_11  and  C_12
REMARK    6  A    between atoms: N_15  and  C_16
REMARK    7  A    between atoms: N_19  and  C_20
REMARK    8  A    between atoms: C_20  and  C_21
REMARK    9  A    between atoms: C_21  and  O_22
REMARK   10  A    between atoms: O_22  and  C_23
REMARK                            x       y       z     vdW  Elec       q    Type
REMARK                         _______ _______ _______ _____ _____    ______ ____
ROOT
ATOM      1  C   UNL     1       2.845   4.841  19.235  0.00  0.00    +0.000 A 
ATOM      2  N   UNL     1       4.116   4.917  18.781  0.00  0.00    +0.000 NA
ATOM      3  C   UNL     1       5.001   3.962  19.124  0.00  0.00    +0.000 A 
ATOM      4  N   UNL     1       6.277   3.906  18.547  0.00  0.00    +0.000 N 
ATOM      5  N   UNL     1       4.713   2.955  19.955  0.00  0.00    +0.000 NA
ATOM      6  C   UNL     1       3.438   2.887  20.384  0.00  0.00    +0.000 A 
ATOM      7  C   UNL     1       2.450   3.787  20.046  0.00  0.00    +0.000 A 
ATOM      8 CL   UNL     1       0.858   3.462  20.603  0.00  0.00    +0.000 Cl
ATOM      9  H   UNL     1       6.713   3.056  18.885  0.00  0.00    +0.000 HD
ENDROOT
BRANCH   4  10
ATOM     10  C   UNL     1       6.704   4.496  17.416  0.00  0.00    +0.000 A 
ATOM     11  C   UNL     1       7.253   5.778  17.215  0.00  0.00    +0.000 A 
ATOM     12  N   UNL     1       7.502   6.024  15.925  0.00  0.00    +0.000 NA
ATOM     13  N   UNL     1       7.070   4.912  15.302  0.00  0.00    +0.000 N 
ATOM     14  C   UNL     1       6.638   3.939  16.164  0.00  0.00    +0.000 A 
BRANCH  13  15
ATOM     15  C   UNL     1       7.062   4.861  13.858  0.00  0.00    +0.000 C 
BRANCH  15  16
ATOM     16  C   UNL     1       6.030   3.870  13.348  0.00  0.00    +0.000 C 
BRANCH  16  17
ATOM     17  O   UNL     1       6.324   3.544  11.988  0.00  0.00    +0.000 OA
ATOM     18  C   UNL     1       5.864   2.239  11.661  0.00  0.00    +0.000 C 
ENDBRANCH  16  17
ENDBRANCH  15  16
ENDBRANCH  13  15
ENDBRANCH   4  10
BRANCH   1  19
ATOM     19  N   UNL     1       2.038   5.844  18.718  0.00  0.00    +0.000 N 
ATOM     20  H   UNL     1       1.392   5.406  18.063  0.00  0.00    +0.000 HD
BRANCH  19  21
ATOM     21  C   UNL     1       2.587   7.093  18.228  0.00  0.00    +0.000 C 
BRANCH  21  25
ATOM     22  C   UNL     1       0.547  10.437  20.094  0.00  0.00    +0.000 A 
ATOM     23  C   UNL     1       0.912   9.307  20.827  0.00  0.00    +0.000 A 
ATOM     24  C   UNL     1       1.547   8.230  20.210  0.00  0.00    +0.000 A 
ATOM     25  C   UNL     1       1.848   8.259  18.844  0.00  0.00    +0.000 A 
ATOM     26  C   UNL     1       1.458   9.376  18.096  0.00  0.00    +0.000 A 
ATOM     27  C   UNL     1       0.805  10.454  18.716  0.00  0.00    +0.000 A 
BRANCH  22  30
ATOM     28  C   UNL     1       0.553  12.643  21.239  0.00  0.00    +0.000 C 
ATOM     29  O   UNL     1       1.758  12.868  21.228  0.00  0.00    +0.000 OA
ATOM     30  N   UNL     1      -0.091  11.557  20.677  0.00  0.00    +0.000 N 
ATOM     31  H   UNL     1      -1.101  11.571  20.633  0.00  0.00    +0.000 HD
BRANCH  28  33
ATOM     32  C   UNL     1      -1.621  13.207  22.198  0.00  0.00    +0.000 C 
ATOM     33  C   UNL     1      -0.383  13.610  21.880  0.00  0.00    +0.000 C 
ENDBRANCH  28  33
ENDBRANCH  22  30
ENDBRANCH  21  25
ENDBRANCH  19  21
ENDBRANCH   1  19
TORSDOF 9
ENDMDL
MODEL 4
REMARK VINA RESULT:      -7.9      1.166      1.179
REMARK  Name = 
REMARK  10 active torsions:
REMARK  status: ('A' for Active; 'I' for Inactive)
REMARK    1  A    between atoms: C_2  and  C_3
REMARK    2  A    between atoms: N_5  and  C_6
REMARK    3  A    between atoms: C_9  and  C_10
REMARK    4  A    between atoms: C_10  and  N_11
REMARK    5  A    between atoms: N_11  and  C_12
REMARK    6  A    between atoms: N_15  and  C_16
REMARK    7  A    between atoms: N_19  and  C_20
REMARK    8  A    between atoms: C_20  and  C_21
REMARK    9  A    between atoms: C_21  and  O_22
REMARK   10  A    between atoms: O_22  and  C_23
REMARK                            x       y       z     vdW  Elec       q    Type
REMARK                         _______ _______ _______ _____ _____    ______ ____
ROOT
ATOM      1  C   UNL     1       2.936   4.832  19.430  0.00  0.00    +0.000 A 
ATOM      2  N   UNL     1       4.175   4.903  18.893  0.00  0.00    +0.000 NA
ATOM      3  C   UNL     1       5.059   3.916  19.132  0.00  0.00    +0.000 A 
ATOM      4  N   UNL     1       6.291   3.862  18.467  0.00  0.00    +0.000 N 
ATOM      5  N   UNL     1       4.806   2.879  19.936  0.00  0.00    +0.000 NA
ATOM      6  C   UNL     1       3.562   2.816  20.449  0.00  0.00    +0.000 A 
ATOM      7  C   UNL     1       2.574   3.750  20.219  0.00  0.00    +0.000 A 
ATOM      8 CL   UNL     1       1.017   3.432  20.871  0.00  0.00    +0.000 Cl
ATOM      9  H   UNL     1       6.730   2.988  18.736  0.00  0.00    +0.000 HD
ENDROOT
BRANCH   4  10
ATOM     10  C   UNL     1       6.653   4.493  17.335  0.00  0.00    +0.000 A 
ATOM     11  C   UNL     1       7.223   5.769  17.153  0.00  0.00    +0.000 A 
ATOM     12  N   UNL     1       7.387   6.070  15.861  0.00  0.00    +0.000 NA
ATOM     13  N   UNL     1       6.879   5.000  15.222  0.00  0.00    +0.000 N 
ATOM     14  C   UNL     1       6.483   3.998  16.067  0.00  0.00    +0.000 A 
BRANCH  13  15
ATOM     15  C   UNL     1       6.767   5.018  13.781  0.00  0.00    +0.000 C 
BRANCH  15  16
ATOM     16  C   UNL     1       6.289   3.678  13.250  0.00  0.00    +0.000 C 
BRANCH  16  17
ATOM     17  O   UNL     1       5.005   3.844  12.643  0.00  0.00    +0.000 OA
ATOM     18  C   UNL     1       4.808   2.905  11.594  0.00  0.00    +0.000 C 
ENDBRANCH  16  17
ENDBRANCH  15  16
ENDBRANCH  13  15
ENDBRANCH   4  10
BRANCH   1  19
ATOM     19  N   UNL     1       2.119   5.873  19.015  0.00  0.00    +0.000 N 
ATOM     20  H   UNL     1       1.333   5.460  18.514  0.00  0.00    +0.000 HD
BRANCH  19  21
ATOM     21  C   UNL     1       2.653   7.053  18.364  0.00  0.00    +0.000 C 
BRANCH  21  25
ATOM     22  C   UNL     1       0.605  10.612  19.767  0.00  0.00    +0.000 A 
ATOM     23  C   UNL     1       1.148  10.544  18.483  0.00  0.00    +0.000 A 
ATOM     24  C   UNL     1       1.823   9.403  18.053  0.00  0.00    +0.000 A 
ATOM     25  C   UNL     1       1.962   8.290  18.890  0.00  0.00    +0.000 A 
ATOM     26  C   UNL     1       1.446   8.363  20.190  0.00  0.00    +0.000 A 
ATOM     27  C   UNL     1       0.779   9.519  20.627  0.00  0.00    +0.000 A 
BRANCH  22  30
ATOM     28  C   UNL     1      -1.382  12.100  19.888  0.00  0.00    +0.000 C 
ATOM     29  O   UNL     1      -2.158  11.450  19.197  0.00  0.00    +0.000 OA
ATOM     30  N   UNL     1      -0.095  11.745  20.245  0.00  0.00    +0.000 N 
ATOM     31  H   UNL     1       0.380  12.306  20.938  0.00  0.00    +0.000 HD
BRANCH  28  33
ATOM     32  C   UNL     1      -1.654  13.626  21.776  0.00  0.00    +0.000 C 
ATOM     33  C   UNL     1      -1.808  13.408  20.462  0.00  0.00    +0.000 C 
ENDBRANCH  28  33
ENDBRANCH  22  30
ENDBRANCH  21  25
ENDBRANCH  19  21
ENDBRANCH   1  19
TORSDOF 9
ENDMDL
MODEL 5
REMARK VINA RESULT:      -7.8      2.403      3.491
REMARK  Name = 
REMARK  10 active torsions:
REMARK  status: ('A' for Active; 'I' for Inactive)
REMARK    1  A    between atoms: C_2  and  C_3
REMARK    2  A    between atoms: N_5  and  C_6
REMARK    3  A    between atoms: C_9  and  C_10
REMARK    4  A    between atoms: C_10  and  N_11
REMARK    5  A    between atoms: N_11  and  C_12
REMARK    6  A    between atoms: N_15  and  C_16
REMARK    7  A    between atoms: N_19  and  C_20
REMARK    8  A    between atoms: C_20  and  C_21
REMARK    9  A    between atoms: C_21  and  O_22
REMARK   10  A    between atoms: O_22  and  C_23
REMARK                            x       y       z     vdW  Elec       q    Type
REMARK                         _______ _______ _______ _____ _____    ______ ____
ROOT
ATOM      1  C   UNL     1       2.967   4.672  20.198  0.00  0.00    +0.000 A 
ATOM      2  N   UNL     1       4.199   4.870  19.677  0.00  0.00    +0.000 NA
ATOM      3  C   UNL     1       4.998   3.813  19.441  0.00  0.00    +0.000 A 
ATOM      4  N   UNL     1       6.210   3.951  18.753  0.00  0.00    +0.000 N 
ATOM      5  N   UNL     1       4.667   2.556  19.754  0.00  0.00    +0.000 NA
ATOM      6  C   UNL     1       3.430   2.375  20.256  0.00  0.00    +0.000 A 
ATOM      7  C   UNL     1       2.524   3.389  20.484  0.00  0.00    +0.000 A 
ATOM      8 CL   UNL     1       0.955   2.942  21.022  0.00  0.00    +0.000 Cl
ATOM      9  H   UNL     1       6.575   3.016  18.614  0.00  0.00    +0.000 HD
ENDROOT
BRANCH   4  10
ATOM     10  C   UNL     1       6.609   4.970  17.969  0.00  0.00    +0.000 A 
ATOM     11  C   UNL     1       7.007   4.970  16.618  0.00  0.00    +0.000 A 
ATOM     12  N   UNL     1       7.393   6.181  16.205  0.00  0.00    +0.000 NA
ATOM     13  N   UNL     1       7.280   6.942  17.309  0.00  0.00    +0.000 N 
ATOM     14  C   UNL     1       6.753   6.271  18.381  0.00  0.00    +0.000 A 
BRANCH  13  15
ATOM     15  C   UNL     1       7.737   8.313  17.281  0.00  0.00    +0.000 C 
BRANCH  15  16
ATOM     16  C   UNL     1       8.526   8.655  18.532  0.00  0.00    +0.000 C 
BRANCH  16  17
ATOM     17  O   UNL     1       8.771  10.064  18.561  0.00  0.00    +0.000 OA
ATOM     18  C   UNL     1       9.488  10.436  19.731  0.00  0.00    +0.000 C 
ENDBRANCH  16  17
ENDBRANCH  15  16
ENDBRANCH  13  15
ENDBRANCH   4  10
BRANCH   1  19
ATOM     19  N   UNL     1       2.237   5.847  20.293  0.00  0.00    +0.000 N 
ATOM     20  H   UNL     1       1.253   5.589  20.357  0.00  0.00    +0.000 HD
BRANCH  19  21
ATOM     21  C   UNL     1       2.475   6.971  19.408  0.00  0.00    +0.000 C 
BRANCH  21  25
ATOM     22  C   UNL     1       0.281  10.464  20.756  0.00  0.00    +0.000 A 
ATOM     23  C   UNL     1       0.680  10.324  19.425  0.00  0.00    +0.000 A 
ATOM     24  C   UNL     1       1.404   9.207  19.011  0.00  0.00    +0.000 A 
ATOM     25  C   UNL     1       1.737   8.190  19.913  0.00  0.00    +0.000 A 
ATOM     26  C   UNL     1       1.366   8.338  21.254  0.00  0.00    +0.000 A 
ATOM     27  C   UNL     1       0.650   9.471  21.674  0.00  0.00    +0.000 A 
BRANCH  22  30
ATOM     28  C   UNL     1       0.073  12.792  21.602  0.00  0.00    +0.000 C 
ATOM     29  O   UNL     1       1.242  13.145  21.499  0.00  0.00    +0.000 OA
ATOM     30  N   UNL     1      -0.461  11.575  21.222  0.00  0.00    +0.000 N 
ATOM     31  H   UNL     1      -1.466  11.471  21.229  0.00  0.00    +0.000 HD
BRANCH  28  33
ATOM     32  C   UNL     1      -1.596  13.389  23.283  0.00  0.00    +0.000 C 
ATOM     33  C   UNL     1      -0.945  13.726  22.161  0.00  0.00    +0.000 C 
ENDBRANCH  28  33
ENDBRANCH  22  30
ENDBRANCH  21  25
ENDBRANCH  19  21
ENDBRANCH   1  19
TORSDOF 9
ENDMDL
MODEL 6
REMARK VINA RESULT:      -7.6      1.165      1.248
REMARK  Name = 
REMARK  10 active torsions:
REMARK  status: ('A' for Active; 'I' for Inactive)
REMARK    1  A    between atoms: C_2  and  C_3
REMARK    2  A    between atoms: N_5  and  C_6
REMARK    3  A    between atoms: C_9  and  C_10
REMARK    4  A    between atoms: C_10  and  N_11
REMARK    5  A    between atoms: N_11  and  C_12
REMARK    6  A    between atoms: N_15  and  C_16
REMARK    7  A    between atoms: N_19  and  C_20
REMARK    8  A    between atoms: C_20  and  C_21
REMARK    9  A    between atoms: C_21  and  O_22
REMARK   10  A    between atoms: O_22  and  C_23
REMARK                            x       y       z     vdW  Elec       q    Type
REMARK                         _______ _______ _______ _____ _____    ______ ____
ROOT
ATOM      1  C   UNL     1       3.006   5.414  18.621  0.00  0.00    +0.000 A 
ATOM      2  N   UNL     1       4.185   5.245  17.981  0.00  0.00    +0.000 NA
ATOM      3  C   UNL     1       5.036   4.290  18.400  0.00  0.00    +0.000 A 
ATOM      4  N   UNL     1       6.189   3.967  17.671  0.00  0.00    +0.000 N 
ATOM      5  N   UNL     1       4.814   3.523  19.472  0.00  0.00    +0.000 NA
ATOM      6  C   UNL     1       3.628   3.694  20.087  0.00  0.00    +0.000 A 
ATOM      7  C   UNL     1       2.671   4.609  19.700  0.00  0.00    +0.000 A 
ATOM      8 CL   UNL     1       1.175   4.595  20.544  0.00  0.00    +0.000 Cl
ATOM      9  H   UNL     1       6.607   3.163  18.127  0.00  0.00    +0.000 HD
ENDROOT
BRANCH   4  10
ATOM     10  C   UNL     1       6.465   4.249  16.385  0.00  0.00    +0.000 A 
ATOM     11  C   UNL     1       6.955   5.435  15.803  0.00  0.00    +0.000 A 
ATOM     12  N   UNL     1       7.044   5.347  14.473  0.00  0.00    +0.000 NA
ATOM     13  N   UNL     1       6.569   4.116  14.207  0.00  0.00    +0.000 N 
ATOM     14  C   UNL     1       6.266   3.394  15.330  0.00  0.00    +0.000 A 
BRANCH  13  15
ATOM     15  C   UNL     1       6.392   3.702  12.833  0.00  0.00    +0.000 C 
BRANCH  15  16
ATOM     16  C   UNL     1       4.940   3.822  12.405  0.00  0.00    +0.000 C 
BRANCH  16  17
ATOM     17  O   UNL     1       4.693   2.918  11.325  0.00  0.00    +0.000 OA
ATOM     18  C   UNL     1       3.426   3.165  10.729  0.00  0.00    +0.000 C 
ENDBRANCH  16  17
ENDBRANCH  15  16
ENDBRANCH  13  15
ENDBRANCH   4  10
BRANCH   1  19
ATOM     19  N   UNL     1       2.206   6.369  18.013  0.00  0.00    +0.000 N 
ATOM     20  H   UNL     1       1.908   5.989  17.116  0.00  0.00    +0.000 HD
BRANCH  19  21
ATOM     21  C   UNL     1       2.599   7.763  17.938  0.00  0.00    +0.000 C 
BRANCH  21  25
ATOM     22  C   UNL     1      -0.011  10.133  20.467  0.00  0.00    +0.000 A 
ATOM     23  C   UNL     1       0.003  10.296  19.080  0.00  0.00    +0.000 A 
ATOM     24  C   UNL     1       0.863   9.544  18.282  0.00  0.00    +0.000 A 
ATOM     25  C   UNL     1       1.724   8.596  18.846  0.00  0.00    +0.000 A 
ATOM     26  C   UNL     1       1.737   8.449  20.239  0.00  0.00    +0.000 A 
ATOM     27  C   UNL     1       0.880   9.218  21.043  0.00  0.00    +0.000 A 
BRANCH  22  30
ATOM     28  C   UNL     1      -0.875  10.808  22.698  0.00  0.00    +0.000 C 
ATOM     29  O   UNL     1      -0.078  10.206  23.408  0.00  0.00    +0.000 OA
ATOM     30  N   UNL     1      -0.871  10.868  21.317  0.00  0.00    +0.000 N 
ATOM     31  H   UNL     1      -1.499  11.519  20.866  0.00  0.00    +0.000 HD
BRANCH  28  33
ATOM     32  C   UNL     1      -2.086  12.906  23.012  0.00  0.00    +0.000 C 
ATOM     33  C   UNL     1      -1.973  11.605  23.314  0.00  0.00    +0.000 C 
ENDBRANCH  28  33
ENDBRANCH  22  30
ENDBRANCH  21  25
ENDBRANCH  19  21
ENDBRANCH   1  19
TORSDOF 9
ENDMDL
MODEL 7
REMARK VINA RESULT:      -7.6      2.018      2.340
REMARK  Name = 
REMARK  10 active torsions:
REMARK  status: ('A' for Active; 'I' for Inactive)
REMARK    1  A    between atoms: C_2  and  C_3
REMARK    2  A    between atoms: N_5  and  C_6
REMARK    3  A    between atoms: C_9  and  C_10
REMARK    4  A    between atoms: C_10  and  N_11
REMARK    5  A    between atoms: N_11  and  C_12
REMARK    6  A    between atoms: N_15  and  C_16
REMARK    7  A    between atoms: N_19  and  C_20
REMARK    8  A    between atoms: C_20  and  C_21
REMARK    9  A    between atoms: C_21  and  O_22
REMARK   10  A    between atoms: O_22  and  C_23
REMARK                            x       y       z     vdW  Elec       q    Type
REMARK                         _______ _______ _______ _____ _____    ______ ____
ROOT
ATOM      1  C   UNL     1       3.117   4.850  19.661  0.00  0.00    +0.000 A 
ATOM      2  N   UNL     1       4.337   4.906  19.081  0.00  0.00    +0.000 NA
ATOM      3  C   UNL     1       5.185   3.869  19.215  0.00  0.00    +0.000 A 
ATOM      4  N   UNL     1       6.388   3.810  18.499  0.00  0.00    +0.000 N 
ATOM      5  N   UNL     1       4.916   2.788  19.955  0.00  0.00    +0.000 NA
ATOM      6  C   UNL     1       3.690   2.742  20.512  0.00  0.00    +0.000 A 
ATOM      7  C   UNL     1       2.737   3.731  20.387  0.00  0.00    +0.000 A 
ATOM      8 CL   UNL     1       1.192   3.432  21.077  0.00  0.00    +0.000 Cl
ATOM      9  H   UNL     1       6.797   2.902  18.689  0.00  0.00    +0.000 HD
ENDROOT
BRANCH   4  10
ATOM     10  C   UNL     1       6.736   4.504  17.401  0.00  0.00    +0.000 A 
ATOM     11  C   UNL     1       7.132   5.850  17.268  0.00  0.00    +0.000 A 
ATOM     12  N   UNL     1       7.342   6.192  15.993  0.00  0.00    +0.000 NA
ATOM     13  N   UNL     1       7.036   5.072  15.312  0.00  0.00    +0.000 N 
ATOM     14  C   UNL     1       6.726   4.011  16.120  0.00  0.00    +0.000 A 
BRANCH  13  15
ATOM     15  C   UNL     1       7.023   5.097  13.867  0.00  0.00    +0.000 C 
BRANCH  15  16
ATOM     16  C   UNL     1       6.229   3.933  13.303  0.00  0.00    +0.000 C 
BRANCH  16  17
ATOM     17  O   UNL     1       6.807   3.528  12.059  0.00  0.00    +0.000 OA
ATOM     18  C   UNL     1       6.264   2.291  11.619  0.00  0.00    +0.000 C 
ENDBRANCH  16  17
ENDBRANCH  15  16
ENDBRANCH  13  15
ENDBRANCH   4  10
BRANCH   1  19
ATOM     19  N   UNL     1       2.333   5.950  19.352  0.00  0.00    +0.000 N 
ATOM     20  H   UNL     1       1.786   5.710  18.526  0.00  0.00    +0.000 HD
BRANCH  19  21
ATOM     21  C   UNL     1       2.881   7.292  19.302  0.00  0.00    +0.000 C 
BRANCH  21  25
ATOM     22  C   UNL     1      -0.361  10.122  18.748  0.00  0.00    +0.000 A 
ATOM     23  C   UNL     1       0.433   9.707  17.678  0.00  0.00    +0.000 A 
ATOM     24  C   UNL     1       1.486   8.814  17.874  0.00  0.00    +0.000 A 
ATOM     25  C   UNL     1       1.765   8.299  19.145  0.00  0.00    +0.000 A 
ATOM     26  C   UNL     1       0.991   8.734  20.228  0.00  0.00    +0.000 A 
ATOM     27  C   UNL     1      -0.059   9.645  20.031  0.00  0.00    +0.000 A 
BRANCH  22  30
ATOM     28  C   UNL     1      -2.705  10.682  18.137  0.00  0.00    +0.000 C 
ATOM     29  O   UNL     1      -3.120   9.556  17.892  0.00  0.00    +0.000 OA
ATOM     30  N   UNL     1      -1.445  11.019  18.597  0.00  0.00    +0.000 N 
ATOM     31  H   UNL     1      -1.284  11.971  18.895  0.00  0.00    +0.000 HD
BRANCH  28  33
ATOM     32  C   UNL     1      -4.737  11.729  17.275  0.00  0.00    +0.000 C 
ATOM     33  C   UNL     1      -3.600  11.862  17.973  0.00  0.00    +0.000 C 
ENDBRANCH  28  33
ENDBRANCH  22  30
ENDBRANCH  21  25
ENDBRANCH  19  21
ENDBRANCH   1  19
TORSDOF 9
ENDMDL
MODEL 8
REMARK VINA RESULT:      -7.6      1.813      2.191
REMARK  Name = 
REMARK  10 active torsions:
REMARK  status: ('A' for Active; 'I' for Inactive)
REMARK    1  A    between atoms: C_2  and  C_3
REMARK    2  A    between atoms: N_5  and  C_6
REMARK    3  A    between atoms: C_9  and  C_10
REMARK    4  A    between atoms: C_10  and  N_11
REMARK    5  A    between atoms: N_11  and  C_12
REMARK    6  A    between atoms: N_15  and  C_16
REMARK    7  A    between atoms: N_19  and  C_20
REMARK    8  A    between atoms: C_20  and  C_21
REMARK    9  A    between atoms: C_21  and  O_22
REMARK   10  A    between atoms: O_22  and  C_23
REMARK                            x       y       z     vdW  Elec       q    Type
REMARK                         _______ _______ _______ _____ _____    ______ ____
ROOT
ATOM      1  C   UNL     1       3.029   4.853  19.588  0.00  0.00    +0.000 A 
ATOM      2  N   UNL     1       4.265   4.904  19.041  0.00  0.00    +0.000 NA
ATOM      3  C   UNL     1       5.109   3.869  19.211  0.00  0.00    +0.000 A 
ATOM      4  N   UNL     1       6.332   3.803  18.529  0.00  0.00    +0.000 N 
ATOM      5  N   UNL     1       4.820   2.797  19.956  0.00  0.00    +0.000 NA
ATOM      6  C   UNL     1       3.580   2.756  20.479  0.00  0.00    +0.000 A 
ATOM      7  C   UNL     1       2.630   3.742  20.317  0.00  0.00    +0.000 A 
ATOM      8 CL   UNL     1       1.067   3.451  20.967  0.00  0.00    +0.000 Cl
ATOM      9  H   UNL     1       6.736   2.897  18.741  0.00  0.00    +0.000 HD
ENDROOT
BRANCH   4  10
ATOM     10  C   UNL     1       6.709   4.485  17.433  0.00  0.00    +0.000 A 
ATOM     11  C   UNL     1       7.068   5.840  17.288  0.00  0.00    +0.000 A 
ATOM     12  N   UNL     1       7.327   6.161  16.017  0.00  0.00    +0.000 NA
ATOM     13  N   UNL     1       7.090   5.017  15.348  0.00  0.00    +0.000 N 
ATOM     14  C   UNL     1       6.776   3.963  16.165  0.00  0.00    +0.000 A 
BRANCH  13  15
ATOM     15  C   UNL     1       7.146   5.011  13.904  0.00  0.00    +0.000 C 
BRANCH  15  16
ATOM     16  C   UNL     1       6.102   4.078  13.317  0.00  0.00    +0.000 C 
BRANCH  16  17
ATOM     17  O   UNL     1       6.604   3.517  12.101  0.00  0.00    +0.000 OA
ATOM     18  C   UNL     1       5.828   2.397  11.694  0.00  0.00    +0.000 C 
ENDBRANCH  16  17
ENDBRANCH  15  16
ENDBRANCH  13  15
ENDBRANCH   4  10
BRANCH   1  19
ATOM     19  N   UNL     1       2.253   5.949  19.245  0.00  0.00    +0.000 N 
ATOM     20  H   UNL     1       2.749   6.453  18.511  0.00  0.00    +0.000 HD
BRANCH  19  21
ATOM     21  C   UNL     1       1.676   6.824  20.247  0.00  0.00    +0.000 C 
BRANCH  21  25
ATOM     22  C   UNL     1       1.412  10.908  18.806  0.00  0.00    +0.000 A 
ATOM     23  C   UNL     1       0.860  10.532  20.033  0.00  0.00    +0.000 A 
ATOM     24  C   UNL     1       0.933   9.211  20.473  0.00  0.00    +0.000 A 
ATOM     25  C   UNL     1       1.573   8.231  19.706  0.00  0.00    +0.000 A 
ATOM     26  C   UNL     1       2.102   8.595  18.462  0.00  0.00    +0.000 A 
ATOM     27  C   UNL     1       2.015   9.923  18.013  0.00  0.00    +0.000 A 
BRANCH  22  30
ATOM     28  C   UNL     1       1.978  13.326  18.918  0.00  0.00    +0.000 C 
ATOM     29  O   UNL     1       2.731  13.308  19.885  0.00  0.00    +0.000 OA
ATOM     30  N   UNL     1       1.370  12.237  18.322  0.00  0.00    +0.000 N 
ATOM     31  H   UNL     1       0.892  12.379  17.443  0.00  0.00    +0.000 HD
BRANCH  28  33
ATOM     32  C   UNL     1       2.564  15.603  18.256  0.00  0.00    +0.000 C 
ATOM     33  C   UNL     1       1.658  14.615  18.242  0.00  0.00    +0.000 C 
ENDBRANCH  28  33
ENDBRANCH  22  30
ENDBRANCH  21  25
ENDBRANCH  19  21
ENDBRANCH   1  19
TORSDOF 9
ENDMDL
MODEL 9
REMARK VINA RESULT:      -7.4      1.027      1.073
REMARK  Name = 
REMARK  10 active torsions:
REMARK  status: ('A' for Active; 'I' for Inactive)
REMARK    1  A    between atoms: C_2  and  C_3
REMARK    2  A    between atoms: N_5  and  C_6
REMARK    3  A    between atoms: C_9  and  C_10
REMARK    4  A    between atoms: C_10  and  N_11
REMARK    5  A    between atoms: N_11  and  C_12
REMARK    6  A    between atoms: N_15  and  C_16
REMARK    7  A    between atoms: N_19  and  C_20
REMARK    8  A    between atoms: C_20  and  C_21
REMARK    9  A    between atoms: C_21  and  O_22
REMARK   10  A    between atoms: O_22  and  C_23
REMARK                            x       y       z     vdW  Elec       q    Type
REMARK                         _______ _______ _______ _____ _____    ______ ____
ROOT
ATOM      1  C   UNL     1       2.952   4.607  19.664  0.00  0.00    +0.000 A 
ATOM      2  N   UNL     1       4.161   4.734  19.073  0.00  0.00    +0.000 NA
ATOM      3  C   UNL     1       5.107   3.801  19.290  0.00  0.00    +0.000 A 
ATOM      4  N   UNL     1       6.311   3.800  18.573  0.00  0.00    +0.000 N 
ATOM      5  N   UNL     1       4.944   2.765  20.119  0.00  0.00    +0.000 NA
ATOM      6  C   UNL     1       3.727   2.646  20.686  0.00  0.00    +0.000 A 
ATOM      7  C   UNL     1       2.682   3.522  20.484  0.00  0.00    +0.000 A 
ATOM      8 CL   UNL     1       1.173   3.133  21.207  0.00  0.00    +0.000 Cl
ATOM      9  H   UNL     1       6.807   2.956  18.837  0.00  0.00    +0.000 HD
ENDROOT
BRANCH   4  10
ATOM     10  C   UNL     1       6.591   4.430  17.418  0.00  0.00    +0.000 A 
ATOM     11  C   UNL     1       7.276   5.640  17.190  0.00  0.00    +0.000 A 
ATOM     12  N   UNL     1       7.301   5.970  15.895  0.00  0.00    +0.000 NA
ATOM     13  N   UNL     1       6.593   4.989  15.306  0.00  0.00    +0.000 N 
ATOM     14  C   UNL     1       6.198   4.006  16.174  0.00  0.00    +0.000 A 
BRANCH  13  15
ATOM     15  C   UNL     1       6.294   5.074  13.894  0.00  0.00    +0.000 C 
BRANCH  15  16
ATOM     16  C   UNL     1       5.692   3.778  13.380  0.00  0.00    +0.000 C 
BRANCH  16  17
ATOM     17  O   UNL     1       6.613   3.158  12.479  0.00  0.00    +0.000 OA
ATOM     18  C   UNL     1       7.383   4.129  11.783  0.00  0.00    +0.000 C 
ENDBRANCH  16  17
ENDBRANCH  15  16
ENDBRANCH  13  15
ENDBRANCH   4  10
BRANCH   1  19
ATOM     19  N   UNL     1       2.063   5.596  19.268  0.00  0.00    +0.000 N 
ATOM     20  H   UNL     1       1.350   5.149  18.693  0.00  0.00    +0.000 HD
BRANCH  19  21
ATOM     21  C   UNL     1       2.517   6.864  18.731  0.00  0.00    +0.000 C 
BRANCH  21  25
ATOM     22  C   UNL     1       0.624  10.147  20.843  0.00  0.00    +0.000 A 
ATOM     23  C   UNL     1       0.856  10.204  19.468  0.00  0.00    +0.000 A 
ATOM     24  C   UNL     1       1.486   9.152  18.806  0.00  0.00    +0.000 A 
ATOM     25  C   UNL     1       1.888   8.004  19.498  0.00  0.00    +0.000 A 
ATOM     26  C   UNL     1       1.686   7.953  20.882  0.00  0.00    +0.000 A 
ATOM     27  C   UNL     1       1.064   9.020  21.551  0.00  0.00    +0.000 A 
BRANCH  22  30
ATOM     28  C   UNL     1      -0.816  11.017  22.674  0.00  0.00    +0.000 C 
ATOM     29  O   UNL     1      -1.007   9.973  23.287  0.00  0.00    +0.000 OA
ATOM     30  N   UNL     1      -0.018  11.186  21.557  0.00  0.00    +0.000 N 
ATOM     31  H   UNL     1       0.166  12.128  21.241  0.00  0.00    +0.000 HD
BRANCH  28  33
ATOM     32  C   UNL     1      -2.787  12.380  23.145  0.00  0.00    +0.000 C 
ATOM     33  C   UNL     1      -1.450  12.284  23.135  0.00  0.00    +0.000 C 
ENDBRANCH  28  33
ENDBRANCH  22  30
ENDBRANCH  21  25
ENDBRANCH  19  21
ENDBRANCH   1  19
TORSDOF 9
ENDMDL
