MODEL 1
REMARK VINA RESULT:      -7.8      0.000      0.000
REMARK  Name = 
REMARK  6 active torsions:
REMARK  status: ('A' for Active; 'I' for Inactive)
REMARK    1  A    between atoms: C_1  and  N_2
REMARK    2  A    between atoms: C_12  and  N_13
REMARK    3  A    between atoms: C_14  and  C_16
REMARK    4  A    between atoms: C_16  and  N_17
REMARK    5  A    between atoms: N_20  and  C_21
REMARK    6  A    between atoms: C_21  and  C_22
REMARK                            x       y       z     vdW  Elec       q    Type
REMARK                         _______ _______ _______ _____ _____    ______ ____
ROOT
ATOM      1  N   UNL     1       2.291   6.789  18.629  0.00  0.00    +0.000 N 
ATOM      2  C   UNL     1       2.056   8.145  18.529  0.00  0.00    +0.000 C 
ATOM      3  O   UNL     1       2.017   8.744  17.466  0.00  0.00    +0.000 OA
ATOM      4  H   UNL     1       2.532   6.453  19.556  0.00  0.00    +0.000 HD
ENDROOT
BRANCH   1  16
ATOM      5  C   UNL     1       6.668   4.060  16.026  0.00  0.00    +0.000 C 
ATOM      6  N   UNL     1       6.021   4.900  17.007  0.00  0.00    +0.000 N 
ATOM      7  N   UNL     1       6.432   6.203  17.087  0.00  0.00    +0.000 NA
ATOM      8  C   UNL     1       5.284   6.893  17.290  0.00  0.00    +0.000 A 
ATOM      9  C   UNL     1       4.199   6.037  17.392  0.00  0.00    +0.000 A 
ATOM     10  C   UNL     1       4.750   4.779  17.468  0.00  0.00    +0.000 A 
ATOM     11  C   UNL     1       3.731   3.846  17.759  0.00  0.00    +0.000 A 
ATOM     12  S   UNL     1       3.639   2.287  18.334  0.00  0.00    +0.000 S 
ATOM     13  C   UNL     1       1.914   2.429  18.474  0.00  0.00    +0.000 A 
ATOM     14  C   UNL     1       1.442   3.664  18.054  0.00  0.00    +0.000 A 
ATOM     15  C   UNL     1       2.524   4.527  17.778  0.00  0.00    +0.000 A 
ATOM     16  C   UNL     1       2.706   6.019  17.498  0.00  0.00    +0.000 C 
ENDBRANCH   1  16
BRANCH   2  17
ATOM     17  C   UNL     1       1.766   8.833  19.880  0.00  0.00    +0.000 C 
BRANCH  17  18
ATOM     18  N   UNL     1       0.458   9.537  19.887  0.00  0.00    +0.000 NA
ATOM     19  C   UNL     1      -0.323   9.278  21.120  0.00  0.00    +0.000 C 
ATOM     20  C   UNL     1       0.029  10.151  22.350  0.00  0.00    +0.000 C 
ATOM     21  N   UNL     1       0.008  11.607  22.085  0.00  0.00    +0.000 NA
ATOM     22  C   UNL     1       0.939  11.839  20.960  0.00  0.00    +0.000 C 
ATOM     23  C   UNL     1       0.625  11.002  19.692  0.00  0.00    +0.000 C 
BRANCH  21  24
ATOM     24  C   UNL     1      -1.378  12.061  21.804  0.00  0.00    +0.000 C 
BRANCH  24  25
ATOM     25  C   UNL     1      -2.041  12.836  22.919  0.00  0.00    +0.000 A 
ATOM     26  C   UNL     1      -3.248  12.404  23.484  0.00  0.00    +0.000 A 
ATOM     27  C   UNL     1      -3.846  13.128  24.520  0.00  0.00    +0.000 A 
ATOM     28  C   UNL     1      -3.238  14.282  25.017  0.00  0.00    +0.000 A 
ATOM     29  C   UNL     1      -2.051  14.736  24.448  0.00  0.00    +0.000 A 
ATOM     30  C   UNL     1      -1.477  14.026  23.395  0.00  0.00    +0.000 A 
ATOM     31  F   UNL     1      -0.363  14.516  22.831  0.00  0.00    +0.000 F 
ENDBRANCH  24  25
ENDBRANCH  21  24
ENDBRANCH  17  18
ENDBRANCH   2  17
TORSDOF 5
ENDMDL
MODEL 2
REMARK VINA RESULT:      -7.7      1.032      1.326
REMARK  Name = 
REMARK  6 active torsions:
REMARK  status: ('A' for Active; 'I' for Inactive)
REMARK    1  A    between atoms: C_1  and  N_2
REMARK    2  A    between atoms: C_12  and  N_13
REMARK    3  A    between atoms: C_14  and  C_16
REMARK    4  A    between atoms: C_16  and  N_17
REMARK    5  A    between atoms: N_20  and  C_21
REMARK    6  A    between atoms: C_21  and  C_22
REMARK                            x       y       z     vdW  Elec       q    Type
REMARK                         _______ _______ _______ _____ _____    ______ ____
ROOT
ATOM      1  N   UNL     1       2.212   6.703  18.915  0.00  0.00    +0.000 N 
ATOM      2  C   UNL     1       1.841   8.032  18.885  0.00  0.00    +0.000 C 
ATOM      3  O   UNL     1       1.646   8.653  17.853  0.00  0.00    +0.000 OA
ATOM      4  H   UNL     1       2.568   6.368  19.805  0.00  0.00    +0.000 HD
ENDROOT
BRANCH   1  16
ATOM      5  C   UNL     1       6.509   4.172  15.998  0.00  0.00    +0.000 C 
ATOM      6  N   UNL     1       5.892   4.945  17.052  0.00  0.00    +0.000 N 
ATOM      7  N   UNL     1       6.299   6.243  17.199  0.00  0.00    +0.000 NA
ATOM      8  C   UNL     1       5.156   6.911  17.484  0.00  0.00    +0.000 A 
ATOM      9  C   UNL     1       4.079   6.043  17.570  0.00  0.00    +0.000 A 
ATOM     10  C   UNL     1       4.639   4.787  17.548  0.00  0.00    +0.000 A 
ATOM     11  C   UNL     1       3.635   3.830  17.815  0.00  0.00    +0.000 A 
ATOM     12  S   UNL     1       3.569   2.238  18.294  0.00  0.00    +0.000 S 
ATOM     13  C   UNL     1       1.849   2.359  18.501  0.00  0.00    +0.000 A 
ATOM     14  C   UNL     1       1.357   3.615  18.176  0.00  0.00    +0.000 A 
ATOM     15  C   UNL     1       2.425   4.501  17.918  0.00  0.00    +0.000 A 
ATOM     16  C   UNL     1       2.591   6.009  17.725  0.00  0.00    +0.000 C 
ENDBRANCH   1  16
BRANCH   2  17
ATOM     17  C   UNL     1       1.614   8.653  20.280  0.00  0.00    +0.000 C 
BRANCH  17  18
ATOM     18  N   UNL     1       0.241   9.196  20.442  0.00  0.00    +0.000 NA
ATOM     19  C   UNL     1      -0.357   8.856  21.755  0.00  0.00    +0.000 C 
ATOM     20  C   UNL     1       0.027   9.776  22.941  0.00  0.00    +0.000 C 
ATOM     21  N   UNL     1      -0.198  11.217  22.688  0.00  0.00    +0.000 NA
ATOM     22  C   UNL     1       0.563  11.548  21.464  0.00  0.00    +0.000 C 
ATOM     23  C   UNL     1       0.208  10.668  20.237  0.00  0.00    +0.000 C 
BRANCH  21  24
ATOM     24  C   UNL     1      -1.651  11.500  22.570  0.00  0.00    +0.000 C 
BRANCH  24  25
ATOM     25  C   UNL     1      -2.091  12.842  23.106  0.00  0.00    +0.000 A 
ATOM     26  C   UNL     1      -1.157  13.786  23.552  0.00  0.00    +0.000 A 
ATOM     27  C   UNL     1      -1.579  15.027  24.039  0.00  0.00    +0.000 A 
ATOM     28  C   UNL     1      -2.937  15.348  24.070  0.00  0.00    +0.000 A 
ATOM     29  C   UNL     1      -3.877  14.410  23.652  0.00  0.00    +0.000 A 
ATOM     30  C   UNL     1      -3.451  13.164  23.198  0.00  0.00    +0.000 A 
ATOM     31  F   UNL     1      -4.381  12.260  22.853  0.00  0.00    +0.000 F 
ENDBRANCH  24  25
ENDBRANCH  21  24
ENDBRANCH  17  18
ENDBRANCH   2  17
TORSDOF 5
ENDMDL
MODEL 3
REMARK VINA RESULT:      -7.6      3.867     10.017
REMARK  Name = 
REMARK  6 active torsions:
REMARK  status: ('A' for Active; 'I' for Inactive)
REMARK    1  A    between atoms: C_1  and  N_2
REMARK    2  A    between atoms: C_12  and  N_13
REMARK    3  A    between atoms: C_14  and  C_16
REMARK    4  A    between atoms: C_16  and  N_17
REMARK    5  A    between atoms: N_20  and  C_21
REMARK    6  A    between atoms: C_21  and  C_22
REMARK                            x       y       z     vdW  Elec       q    Type
REMARK                         _______ _______ _______ _____ _____    ______ ____
ROOT
ATOM      1  N   UNL     1       0.469   9.733  20.703  0.00  0.00    +0.000 N 
ATOM      2  C   UNL     1       1.097   8.675  21.328  0.00  0.00    +0.000 C 
ATOM      3  O   UNL     1       1.719   8.784  22.372  0.00  0.00    +0.000 OA
ATOM      4  H   UNL     1       0.191   9.571  19.739  0.00  0.00    +0.000 HD
ENDROOT
BRANCH   1  16
ATOM      5  C   UNL     1      -0.063  15.330  19.373  0.00  0.00    +0.000 C 
ATOM      6  N   UNL     1      -0.091  13.903  19.151  0.00  0.00    +0.000 N 
ATOM      7  N   UNL     1       0.740  13.402  18.186  0.00  0.00    +0.000 NA
ATOM      8  C   UNL     1       1.196  12.244  18.720  0.00  0.00    +0.000 A 
ATOM      9  C   UNL     1       0.619  12.004  19.957  0.00  0.00    +0.000 A 
ATOM     10  C   UNL     1      -0.379  12.944  20.067  0.00  0.00    +0.000 A 
ATOM     11  C   UNL     1      -1.150  12.667  21.218  0.00  0.00    +0.000 A 
ATOM     12  S   UNL     1      -2.649  13.084  21.807  0.00  0.00    +0.000 S 
ATOM     13  C   UNL     1      -2.483  11.920  23.085  0.00  0.00    +0.000 A 
ATOM     14  C   UNL     1      -1.269  11.250  23.046  0.00  0.00    +0.000 A 
ATOM     15  C   UNL     1      -0.566  11.592  21.871  0.00  0.00    +0.000 A 
ATOM     16  C   UNL     1       0.673  11.080  21.134  0.00  0.00    +0.000 C 
ENDBRANCH   1  16
BRANCH   2  17
ATOM     17  C   UNL     1       0.878   7.315  20.631  0.00  0.00    +0.000 C 
BRANCH  17  18
ATOM     18  N   UNL     1       2.102   6.472  20.640  0.00  0.00    +0.000 NA
ATOM     19  C   UNL     1       1.797   5.024  20.734  0.00  0.00    +0.000 C 
ATOM     20  C   UNL     1       1.448   4.310  19.404  0.00  0.00    +0.000 C 
ATOM     21  N   UNL     1       2.449   4.504  18.331  0.00  0.00    +0.000 NA
ATOM     22  C   UNL     1       2.588   5.966  18.152  0.00  0.00    +0.000 C 
ATOM     23  C   UNL     1       2.954   6.733  19.450  0.00  0.00    +0.000 C 
BRANCH  21  24
ATOM     24  C   UNL     1       3.724   3.832  18.686  0.00  0.00    +0.000 C 
BRANCH  24  25
ATOM     25  C   UNL     1       4.883   4.117  17.759  0.00  0.00    +0.000 A 
ATOM     26  C   UNL     1       4.836   3.750  16.408  0.00  0.00    +0.000 A 
ATOM     27  C   UNL     1       5.914   4.026  15.561  0.00  0.00    +0.000 A 
ATOM     28  C   UNL     1       7.043   4.687  16.047  0.00  0.00    +0.000 A 
ATOM     29  C   UNL     1       7.112   5.035  17.394  0.00  0.00    +0.000 A 
ATOM     30  C   UNL     1       6.048   4.729  18.239  0.00  0.00    +0.000 A 
ATOM     31  F   UNL     1       6.164   5.026  19.542  0.00  0.00    +0.000 F 
ENDBRANCH  24  25
ENDBRANCH  21  24
ENDBRANCH  17  18
ENDBRANCH   2  17
TORSDOF 5
ENDMDL
MODEL 4
REMARK VINA RESULT:      -7.6      7.305     10.248
REMARK  Name = 
REMARK  6 active torsions:
REMARK  status: ('A' for Active; 'I' for Inactive)
REMARK    1  A    between atoms: C_1  and  N_2
REMARK    2  A    between atoms: C_12  and  N_13
REMARK    3  A    between atoms: C_14  and  C_16
REMARK    4  A    between atoms: C_16  and  N_17
REMARK    5  A    between atoms: N_20  and  C_21
REMARK    6  A    between atoms: C_21  and  C_22
REMARK                            x       y       z     vdW  Elec       q    Type
REMARK                         _______ _______ _______ _____ _____    ______ ____
ROOT
ATOM      1  N   UNL     1       8.729  10.009  18.231  0.00  0.00    +0.000 N 
ATOM      2  C   UNL     1       8.454   8.666  18.389  0.00  0.00    +0.000 C 
ATOM      3  O   UNL     1       8.998   7.962  19.224  0.00  0.00    +0.000 OA
ATOM      4  H   UNL     1       8.396  10.426  17.367  0.00  0.00    +0.000 HD
ENDROOT
BRANCH   1  16
ATOM      5  C   UNL     1      11.757  14.868  19.009  0.00  0.00    +0.000 C 
ATOM      6  N   UNL     1      10.774  13.997  18.408  0.00  0.00    +0.000 N 
ATOM      7  N   UNL     1      10.913  13.719  17.075  0.00  0.00    +0.000 NA
ATOM      8  C   UNL     1      10.585  12.409  16.981  0.00  0.00    +0.000 A 
ATOM      9  C   UNL     1      10.197  11.902  18.211  0.00  0.00    +0.000 A 
ATOM     10  C   UNL     1      10.083  13.005  19.024  0.00  0.00    +0.000 A 
ATOM     11  C   UNL     1       9.513  12.612  20.256  0.00  0.00    +0.000 A 
ATOM     12  S   UNL     1       8.763  13.358  21.541  0.00  0.00    +0.000 S 
ATOM     13  C   UNL     1       8.333  11.811  22.203  0.00  0.00    +0.000 A 
ATOM     14  C   UNL     1       8.795  10.752  21.434  0.00  0.00    +0.000 A 
ATOM     15  C   UNL     1       9.353  11.235  20.231  0.00  0.00    +0.000 A 
ATOM     16  C   UNL     1       9.824  10.630  18.908  0.00  0.00    +0.000 C 
ENDBRANCH   1  16
BRANCH   2  17
ATOM     17  C   UNL     1       7.334   8.142  17.466  0.00  0.00    +0.000 C 
BRANCH  17  18
ATOM     18  N   UNL     1       7.121   6.679  17.609  0.00  0.00    +0.000 NA
ATOM     19  C   UNL     1       5.995   6.351  18.516  0.00  0.00    +0.000 C 
ATOM     20  C   UNL     1       4.578   6.384  17.889  0.00  0.00    +0.000 C 
ATOM     21  N   UNL     1       4.440   5.566  16.663  0.00  0.00    +0.000 NA
ATOM     22  C   UNL     1       5.472   6.050  15.721  0.00  0.00    +0.000 C 
ATOM     23  C   UNL     1       6.915   6.024  16.290  0.00  0.00    +0.000 C 
BRANCH  21  24
ATOM     24  C   UNL     1       4.572   4.123  16.988  0.00  0.00    +0.000 C 
BRANCH  24  25
ATOM     25  C   UNL     1       3.515   3.573  17.917  0.00  0.00    +0.000 A 
ATOM     26  C   UNL     1       2.166   3.536  17.539  0.00  0.00    +0.000 A 
ATOM     27  C   UNL     1       1.200   3.018  18.407  0.00  0.00    +0.000 A 
ATOM     28  C   UNL     1       1.570   2.514  19.655  0.00  0.00    +0.000 A 
ATOM     29  C   UNL     1       2.903   2.568  20.053  0.00  0.00    +0.000 A 
ATOM     30  C   UNL     1       3.856   3.113  19.195  0.00  0.00    +0.000 A 
ATOM     31  F   UNL     1       5.124   3.202  19.625  0.00  0.00    +0.000 F 
ENDBRANCH  24  25
ENDBRANCH  21  24
ENDBRANCH  17  18
ENDBRANCH   2  17
TORSDOF 5
ENDMDL
MODEL 5
REMARK VINA RESULT:      -7.5      1.060      1.257
REMARK  Name = 
REMARK  6 active torsions:
REMARK  status: ('A' for Active; 'I' for Inactive)
REMARK    1  A    between atoms: C_1  and  N_2
REMARK    2  A    between atoms: C_12  and  N_13
REMARK    3  A    between atoms: C_14  and  C_16
REMARK    4  A    between atoms: C_16  and  N_17
REMARK    5  A    between atoms: N_20  and  C_21
REMARK    6  A    between atoms: C_21  and  C_22
REMARK                            x       y       z     vdW  Elec       q    Type
REMARK                         _______ _______ _______ _____ _____    ______ ____
ROOT
ATOM      1  N   UNL     1       2.250   6.777  18.965  0.00  0.00    +0.000 N 
ATOM      2  C   UNL     1       1.832   8.092  18.949  0.00  0.00    +0.000 C 
ATOM      3  O   UNL     1       1.577   8.705  17.926  0.00  0.00    +0.000 OA
ATOM      4  H   UNL     1       2.651   6.454  19.840  0.00  0.00    +0.000 HD
ENDROOT
BRANCH   1  16
ATOM      5  C   UNL     1       6.472   4.188  15.990  0.00  0.00    +0.000 C 
ATOM      6  N   UNL     1       5.879   4.956  17.060  0.00  0.00    +0.000 N 
ATOM      7  N   UNL     1       6.321   6.240  17.231  0.00  0.00    +0.000 NA
ATOM      8  C   UNL     1       5.197   6.933  17.531  0.00  0.00    +0.000 A 
ATOM      9  C   UNL     1       4.097   6.093  17.603  0.00  0.00    +0.000 A 
ATOM     10  C   UNL     1       4.622   4.823  17.556  0.00  0.00    +0.000 A 
ATOM     11  C   UNL     1       3.593   3.888  17.806  0.00  0.00    +0.000 A 
ATOM     12  S   UNL     1       3.486   2.289  18.255  0.00  0.00    +0.000 S 
ATOM     13  C   UNL     1       1.770   2.453  18.468  0.00  0.00    +0.000 A 
ATOM     14  C   UNL     1       1.311   3.727  18.168  0.00  0.00    +0.000 A 
ATOM     15  C   UNL     1       2.402   4.589  17.925  0.00  0.00    +0.000 A 
ATOM     16  C   UNL     1       2.608   6.095  17.760  0.00  0.00    +0.000 C 
ENDBRANCH   1  16
BRANCH   2  17
ATOM     17  C   UNL     1       1.636   8.705  20.353  0.00  0.00    +0.000 C 
BRANCH  17  18
ATOM     18  N   UNL     1       0.228   9.108  20.603  0.00  0.00    +0.000 NA
ATOM     19  C   UNL     1      -0.234   8.755  21.966  0.00  0.00    +0.000 C 
ATOM     20  C   UNL     1       0.136   9.752  23.094  0.00  0.00    +0.000 C 
ATOM     21  N   UNL     1      -0.259  11.152  22.817  0.00  0.00    +0.000 NA
ATOM     22  C   UNL     1       0.373  11.516  21.531  0.00  0.00    +0.000 C 
ATOM     23  C   UNL     1       0.025  10.561  20.359  0.00  0.00    +0.000 C 
BRANCH  21  24
ATOM     24  C   UNL     1      -1.738  11.278  22.803  0.00  0.00    +0.000 C 
BRANCH  24  25
ATOM     25  C   UNL     1      -2.265  12.623  22.360  0.00  0.00    +0.000 A 
ATOM     26  C   UNL     1      -3.080  12.745  21.226  0.00  0.00    +0.000 A 
ATOM     27  C   UNL     1      -3.566  13.995  20.833  0.00  0.00    +0.000 A 
ATOM     28  C   UNL     1      -3.260  15.137  21.575  0.00  0.00    +0.000 A 
ATOM     29  C   UNL     1      -2.431  15.034  22.689  0.00  0.00    +0.000 A 
ATOM     30  C   UNL     1      -1.925  13.789  23.058  0.00  0.00    +0.000 A 
ATOM     31  F   UNL     1      -1.086  13.727  24.103  0.00  0.00    +0.000 F 
ENDBRANCH  24  25
ENDBRANCH  21  24
ENDBRANCH  17  18
ENDBRANCH   2  17
TORSDOF 5
ENDMDL
MODEL 6
REMARK VINA RESULT:      -7.5      2.012      3.243
REMARK  Name = 
REMARK  6 active torsions:
REMARK  status: ('A' for Active; 'I' for Inactive)
REMARK    1  A    between atoms: C_1  and  N_2
REMARK    2  A    between atoms: C_12  and  N_13
REMARK    3  A    between atoms: C_14  and  C_16
REMARK    4  A    between atoms: C_16  and  N_17
REMARK    5  A    between atoms: N_20  and  C_21
REMARK    6  A    between atoms: C_21  and  C_22
REMARK                            x       y       z     vdW  Elec       q    Type
REMARK                         _______ _______ _______ _____ _____    ______ ____
ROOT
ATOM      1  N   UNL     1       2.901   7.437  18.407  0.00  0.00    +0.000 N 
ATOM      2  C   UNL     1       2.062   8.068  19.303  0.00  0.00    +0.000 C 
ATOM      3  O   UNL     1       1.958   7.739  20.473  0.00  0.00    +0.000 OA
ATOM      4  H   UNL     1       2.729   7.642  17.427  0.00  0.00    +0.000 HD
ENDROOT
BRANCH   1  16
ATOM      5  C   UNL     1       3.059   1.709  17.672  0.00  0.00    +0.000 C 
ATOM      6  N   UNL     1       2.532   3.049  17.560  0.00  0.00    +0.000 N 
ATOM      7  N   UNL     1       1.301   3.287  18.110  0.00  0.00    +0.000 NA
ATOM      8  C   UNL     1       1.426   4.517  18.663  0.00  0.00    +0.000 A 
ATOM      9  C   UNL     1       2.679   5.053  18.411  0.00  0.00    +0.000 A 
ATOM     10  C   UNL     1       3.247   4.200  17.492  0.00  0.00    +0.000 A 
ATOM     11  C   UNL     1       4.459   4.760  17.031  0.00  0.00    +0.000 A 
ATOM     12  S   UNL     1       5.483   4.543  15.737  0.00  0.00    +0.000 S 
ATOM     13  C   UNL     1       6.379   5.959  16.195  0.00  0.00    +0.000 A 
ATOM     14  C   UNL     1       5.886   6.556  17.346  0.00  0.00    +0.000 A 
ATOM     15  C   UNL     1       4.683   5.931  17.739  0.00  0.00    +0.000 A 
ATOM     16  C   UNL     1       3.563   6.215  18.741  0.00  0.00    +0.000 C 
ENDBRANCH   1  16
BRANCH   2  17
ATOM     17  C   UNL     1       1.319   9.287  18.716  0.00  0.00    +0.000 C 
BRANCH  17  18
ATOM     18  N   UNL     1       1.009  10.311  19.747  0.00  0.00    +0.000 NA
ATOM     19  C   UNL     1       1.256  11.694  19.271  0.00  0.00    +0.000 C 
ATOM     20  C   UNL     1       0.121  12.345  18.441  0.00  0.00    +0.000 C 
ATOM     21  N   UNL     1      -1.205  12.310  19.097  0.00  0.00    +0.000 NA
ATOM     22  C   UNL     1      -1.485  10.889  19.393  0.00  0.00    +0.000 C 
ATOM     23  C   UNL     1      -0.389  10.187  20.237  0.00  0.00    +0.000 C 
BRANCH  21  24
ATOM     24  C   UNL     1      -1.207  13.174  20.305  0.00  0.00    +0.000 C 
BRANCH  24  25
ATOM     25  C   UNL     1      -2.444  13.072  21.168  0.00  0.00    +0.000 A 
ATOM     26  C   UNL     1      -3.705  13.426  20.671  0.00  0.00    +0.000 A 
ATOM     27  C   UNL     1      -4.841  13.320  21.479  0.00  0.00    +0.000 A 
ATOM     28  C   UNL     1      -4.735  12.843  22.787  0.00  0.00    +0.000 A 
ATOM     29  C   UNL     1      -3.484  12.511  23.300  0.00  0.00    +0.000 A 
ATOM     30  C   UNL     1      -2.352  12.648  22.500  0.00  0.00    +0.000 A 
ATOM     31  F   UNL     1      -1.154  12.373  23.037  0.00  0.00    +0.000 F 
ENDBRANCH  24  25
ENDBRANCH  21  24
ENDBRANCH  17  18
ENDBRANCH   2  17
TORSDOF 5
ENDMDL
MODEL 7
REMARK VINA RESULT:      -7.4      3.180      4.349
REMARK  Name = 
REMARK  6 active torsions:
REMARK  status: ('A' for Active; 'I' for Inactive)
REMARK    1  A    between atoms: C_1  and  N_2
REMARK    2  A    between atoms: C_12  and  N_13
REMARK    3  A    between atoms: C_14  and  C_16
REMARK    4  A    between atoms: C_16  and  N_17
REMARK    5  A    between atoms: N_20  and  C_21
REMARK    6  A    between atoms: C_21  and  C_22
REMARK                            x       y       z     vdW  Elec       q    Type
REMARK                         _______ _______ _______ _____ _____    ______ ____
ROOT
ATOM      1  N   UNL     1       2.638   7.643  18.200  0.00  0.00    +0.000 N 
ATOM      2  C   UNL     1       1.863   8.383  19.070  0.00  0.00    +0.000 C 
ATOM      3  O   UNL     1       1.852   8.207  20.277  0.00  0.00    +0.000 OA
ATOM      4  H   UNL     1       2.390   7.720  17.218  0.00  0.00    +0.000 HD
ENDROOT
BRANCH   1  16
ATOM      5  C   UNL     1       3.126   1.902  17.778  0.00  0.00    +0.000 C 
ATOM      6  N   UNL     1       2.540   3.205  17.564  0.00  0.00    +0.000 N 
ATOM      7  N   UNL     1       1.268   3.405  18.029  0.00  0.00    +0.000 NA
ATOM      8  C   UNL     1       1.298   4.666  18.522  0.00  0.00    +0.000 A 
ATOM      9  C   UNL     1       2.536   5.254  18.316  0.00  0.00    +0.000 A 
ATOM     10  C   UNL     1       3.200   4.388  17.478  0.00  0.00    +0.000 A 
ATOM     11  C   UNL     1       4.409   4.987  17.060  0.00  0.00    +0.000 A 
ATOM     12  S   UNL     1       5.520   4.761  15.841  0.00  0.00    +0.000 S 
ATOM     13  C   UNL     1       6.315   6.243  16.276  0.00  0.00    +0.000 A 
ATOM     14  C   UNL     1       5.723   6.869  17.364  0.00  0.00    +0.000 A 
ATOM     15  C   UNL     1       4.531   6.202  17.717  0.00  0.00    +0.000 A 
ATOM     16  C   UNL     1       3.339   6.476  18.635  0.00  0.00    +0.000 C 
ENDBRANCH   1  16
BRANCH   2  17
ATOM     17  C   UNL     1       1.063   9.515  18.390  0.00  0.00    +0.000 C 
BRANCH  17  18
ATOM     18  N   UNL     1       0.078  10.142  19.308  0.00  0.00    +0.000 NA
ATOM     19  C   UNL     1       0.022  11.616  19.165  0.00  0.00    +0.000 C 
ATOM     20  C   UNL     1      -0.868  12.159  18.018  0.00  0.00    +0.000 C 
ATOM     21  N   UNL     1      -2.255  11.641  18.031  0.00  0.00    +0.000 NA
ATOM     22  C   UNL     1      -2.147  10.166  17.994  0.00  0.00    +0.000 C 
ATOM     23  C   UNL     1      -1.280   9.564  19.131  0.00  0.00    +0.000 C 
BRANCH  21  24
ATOM     24  C   UNL     1      -2.985  12.148  19.219  0.00  0.00    +0.000 C 
BRANCH  24  25
ATOM     25  C   UNL     1      -4.492  12.115  19.112  0.00  0.00    +0.000 A 
ATOM     26  C   UNL     1      -5.128  12.015  17.867  0.00  0.00    +0.000 A 
ATOM     27  C   UNL     1      -6.523  11.979  17.783  0.00  0.00    +0.000 A 
ATOM     28  C   UNL     1      -7.301  12.025  18.941  0.00  0.00    +0.000 A 
ATOM     29  C   UNL     1      -6.682  12.150  20.183  0.00  0.00    +0.000 A 
ATOM     30  C   UNL     1      -5.293  12.217  20.256  0.00  0.00    +0.000 A 
ATOM     31  F   UNL     1      -4.726  12.391  21.460  0.00  0.00    +0.000 F 
ENDBRANCH  24  25
ENDBRANCH  21  24
ENDBRANCH  17  18
ENDBRANCH   2  17
TORSDOF 5
ENDMDL
MODEL 8
REMARK VINA RESULT:      -7.4      1.205      1.469
REMARK  Name = 
REMARK  6 active torsions:
REMARK  status: ('A' for Active; 'I' for Inactive)
REMARK    1  A    between atoms: C_1  and  N_2
REMARK    2  A    between atoms: C_12  and  N_13
REMARK    3  A    between atoms: C_14  and  C_16
REMARK    4  A    between atoms: C_16  and  N_17
REMARK    5  A    between atoms: N_20  and  C_21
REMARK    6  A    between atoms: C_21  and  C_22
REMARK                            x       y       z     vdW  Elec       q    Type
REMARK                         _______ _______ _______ _____ _____    ______ ____
ROOT
ATOM      1  N   UNL     1       2.286   7.048  18.838  0.00  0.00    +0.000 N 
ATOM      2  C   UNL     1       1.953   8.350  18.524  0.00  0.00    +0.000 C 
ATOM      3  O   UNL     1       1.811   8.750  17.380  0.00  0.00    +0.000 OA
ATOM      4  H   UNL     1       2.603   6.894  19.791  0.00  0.00    +0.000 HD
ENDROOT
BRANCH   1  16
ATOM      5  C   UNL     1       6.693   4.214  16.401  0.00  0.00    +0.000 C 
ATOM      6  N   UNL     1       6.045   5.169  17.271  0.00  0.00    +0.000 N 
ATOM      7  N   UNL     1       6.347   6.492  17.086  0.00  0.00    +0.000 NA
ATOM      8  C   UNL     1       5.161   7.123  17.259  0.00  0.00    +0.000 A 
ATOM      9  C   UNL     1       4.163   6.224  17.599  0.00  0.00    +0.000 A 
ATOM     10  C   UNL     1       4.824   5.043  17.849  0.00  0.00    +0.000 A 
ATOM     11  C   UNL     1       3.911   4.107  18.383  0.00  0.00    +0.000 A 
ATOM     12  S   UNL     1       3.992   2.676  19.229  0.00  0.00    +0.000 S 
ATOM     13  C   UNL     1       2.274   2.717  19.483  0.00  0.00    +0.000 A 
ATOM     14  C   UNL     1       1.670   3.818  18.894  0.00  0.00    +0.000 A 
ATOM     15  C   UNL     1       2.653   4.692  18.382  0.00  0.00    +0.000 A 
ATOM     16  C   UNL     1       2.687   6.118  17.830  0.00  0.00    +0.000 C 
ENDBRANCH   1  16
BRANCH   2  17
ATOM     17  C   UNL     1       1.695   9.246  19.754  0.00  0.00    +0.000 C 
BRANCH  17  18
ATOM     18  N   UNL     1       0.600  10.222  19.524  0.00  0.00    +0.000 NA
ATOM     19  C   UNL     1      -0.459  10.148  20.559  0.00  0.00    +0.000 C 
ATOM     20  C   UNL     1      -0.189  10.928  21.871  0.00  0.00    +0.000 C 
ATOM     21  N   UNL     1       0.163  12.352  21.667  0.00  0.00    +0.000 NA
ATOM     22  C   UNL     1       1.335  12.365  20.767  0.00  0.00    +0.000 C 
ATOM     23  C   UNL     1       1.118  11.613  19.428  0.00  0.00    +0.000 C 
BRANCH  21  24
ATOM     24  C   UNL     1      -1.002  13.099  21.128  0.00  0.00    +0.000 C 
BRANCH  24  25
ATOM     25  C   UNL     1      -2.205  13.163  22.040  0.00  0.00    +0.000 A 
ATOM     26  C   UNL     1      -2.081  13.568  23.376  0.00  0.00    +0.000 A 
ATOM     27  C   UNL     1      -3.205  13.628  24.206  0.00  0.00    +0.000 A 
ATOM     28  C   UNL     1      -4.468  13.301  23.709  0.00  0.00    +0.000 A 
ATOM     29  C   UNL     1      -4.600  12.873  22.390  0.00  0.00    +0.000 A 
ATOM     30  C   UNL     1      -3.472  12.786  21.577  0.00  0.00    +0.000 A 
ATOM     31  F   UNL     1      -3.621  12.320  20.329  0.00  0.00    +0.000 F 
ENDBRANCH  24  25
ENDBRANCH  21  24
ENDBRANCH  17  18
ENDBRANCH   2  17
TORSDOF 5
ENDMDL
MODEL 9
REMARK VINA RESULT:      -7.3      1.374      1.672
REMARK  Name = 
REMARK  6 active torsions:
REMARK  status: ('A' for Active; 'I' for Inactive)
REMARK    1  A    between atoms: C_1  and  N_2
REMARK    2  A    between atoms: C_12  and  N_13
REMARK    3  A    between atoms: C_14  and  C_16
REMARK    4  A    between atoms: C_16  and  N_17
REMARK    5  A    between atoms: N_20  and  C_21
REMARK    6  A    between atoms: C_21  and  C_22
REMARK                            x       y       z     vdW  Elec       q    Type
REMARK                         _______ _______ _______ _____ _____    ______ ____
ROOT
ATOM      1  N   UNL     1       2.398   7.001  18.680  0.00  0.00    +0.000 N 
ATOM      2  C   UNL     1       2.119   8.311  18.349  0.00  0.00    +0.000 C 
ATOM      3  O   UNL     1       2.201   8.750  17.213  0.00  0.00    +0.000 OA
ATOM      4  H   UNL     1       2.522   6.816  19.672  0.00  0.00    +0.000 HD
ENDROOT
BRANCH   1  16
ATOM      5  C   UNL     1       7.275   4.425  16.958  0.00  0.00    +0.000 C 
ATOM      6  N   UNL     1       6.449   5.333  17.720  0.00  0.00    +0.000 N 
ATOM      7  N   UNL     1       6.709   6.671  17.597  0.00  0.00    +0.000 NA
ATOM      8  C   UNL     1       5.481   7.241  17.582  0.00  0.00    +0.000 A 
ATOM      9  C   UNL     1       4.488   6.289  17.751  0.00  0.00    +0.000 A 
ATOM     10  C   UNL     1       5.159   5.139  18.094  0.00  0.00    +0.000 A 
ATOM     11  C   UNL     1       4.221   4.151  18.468  0.00  0.00    +0.000 A 
ATOM     12  S   UNL     1       4.239   2.712  19.304  0.00  0.00    +0.000 S 
ATOM     13  C   UNL     1       2.503   2.664  19.280  0.00  0.00    +0.000 A 
ATOM     14  C   UNL     1       1.946   3.744  18.611  0.00  0.00    +0.000 A 
ATOM     15  C   UNL     1       2.952   4.673  18.270  0.00  0.00    +0.000 A 
ATOM     16  C   UNL     1       3.001   6.107  17.741  0.00  0.00    +0.000 C 
ENDBRANCH   1  16
BRANCH   2  17
ATOM     17  C   UNL     1       1.612   9.163  19.532  0.00  0.00    +0.000 C 
BRANCH  17  18
ATOM     18  N   UNL     1       0.654  10.215  19.103  0.00  0.00    +0.000 NA
ATOM     19  C   UNL     1      -0.635  10.144  19.832  0.00  0.00    +0.000 C 
ATOM     20  C   UNL     1      -0.675  10.831  21.221  0.00  0.00    +0.000 C 
ATOM     21  N   UNL     1      -0.222  12.240  21.213  0.00  0.00    +0.000 NA
ATOM     22  C   UNL     1       1.141  12.236  20.639  0.00  0.00    +0.000 C 
ATOM     23  C   UNL     1       1.239  11.575  19.239  0.00  0.00    +0.000 C 
BRANCH  21  24
ATOM     24  C   UNL     1      -1.177  13.085  20.453  0.00  0.00    +0.000 C 
BRANCH  24  25
ATOM     25  C   UNL     1      -2.602  13.057  20.954  0.00  0.00    +0.000 A 
ATOM     26  C   UNL     1      -3.653  12.640  20.127  0.00  0.00    +0.000 A 
ATOM     27  C   UNL     1      -4.966  12.613  20.607  0.00  0.00    +0.000 A 
ATOM     28  C   UNL     1      -5.244  12.984  21.923  0.00  0.00    +0.000 A 
ATOM     29  C   UNL     1      -4.212  13.424  22.748  0.00  0.00    +0.000 A 
ATOM     30  C   UNL     1      -2.911  13.478  22.254  0.00  0.00    +0.000 A 
ATOM     31  F   UNL     1      -1.946  13.957  23.053  0.00  0.00    +0.000 F 
ENDBRANCH  24  25
ENDBRANCH  21  24
ENDBRANCH  17  18
ENDBRANCH   2  17
TORSDOF 5
ENDMDL
