MODEL 1
REMARK VINA RESULT:      -8.1      0.000      0.000
REMARK  Name = 
REMARK  9 active torsions:
REMARK  status: ('A' for Active; 'I' for Inactive)
REMARK    1  A    between atoms: C_2  and  C_3
REMARK    2  A    between atoms: C_3  and  C_4
REMARK    3  A    between atoms: C_4  and  C_5
REMARK    4  A    between atoms: C_5  and  C_6
REMARK    5  A    between atoms: C_6  and  C_7
REMARK    6  A    between atoms: C_7  and  N_8
REMARK    7  A    between atoms: C_15  and  N_16
REMARK    8  A    between atoms: N_26  and  C_27
REMARK    9  A    between atoms: C_27  and  C_28
REMARK                            x       y       z     vdW  Elec       q    Type
REMARK                         _______ _______ _______ _____ _____    ______ ____
ROOT
ATOM      1  N   UNL     1       2.547   6.555  18.803  0.00  0.00    +0.000 N 
ATOM      2  C   UNL     1       2.180   6.100  20.065  0.00  0.00    +0.000 A 
ATOM      3  S   UNL     1       2.454   4.577  20.714  0.00  0.00    +0.000 S 
ATOM      4  N   UNL     1       1.531   6.990  20.876  0.00  0.00    +0.000 N 
ATOM      5  C   UNL     1       1.273   8.311  20.530  0.00  0.00    +0.000 A 
ATOM      6  C   UNL     1       0.687   9.170  21.448  0.00  0.00    +0.000 A 
ATOM      7  C   UNL     1       0.495  10.515  21.109  0.00  0.00    +0.000 A 
ATOM      8  C   UNL     1       0.859  11.031  19.853  0.00  0.00    +0.000 A 
ATOM      9  C   UNL     1       1.408  10.123  18.937  0.00  0.00    +0.000 A 
ATOM     10  C   UNL     1       1.631   8.783  19.280  0.00  0.00    +0.000 A 
ATOM     11  C   UNL     1       2.296   7.861  18.343  0.00  0.00    +0.000 A 
ATOM     12  O   UNL     1       2.620   8.281  17.234  0.00  0.00    +0.000 OA
ATOM     13  H   UNL     1       1.273   6.653  21.796  0.00  0.00    +0.000 HD
ENDROOT
BRANCH   8  14
ATOM     14  N   UNL     1       0.724  12.367  19.553  0.00  0.00    +0.000 N 
ATOM     15  C   UNL     1       1.394  12.993  18.400  0.00  0.00    +0.000 C 
ATOM     16  C   UNL     1       2.148  14.248  18.874  0.00  0.00    +0.000 C 
ATOM     17  O   UNL     1       1.280  15.168  19.556  0.00  0.00    +0.000 OA
ATOM     18  C   UNL     1       0.693  14.539  20.708  0.00  0.00    +0.000 C 
ATOM     19  C   UNL     1      -0.122  13.296  20.319  0.00  0.00    +0.000 C 
ENDBRANCH   8  14
BRANCH   1  20
ATOM     20  C   UNL     1       3.290   5.712  17.862  0.00  0.00    +0.000 C 
BRANCH  20  21
ATOM     21  C   UNL     1       4.806   5.908  18.006  0.00  0.00    +0.000 C 
BRANCH  21  22
ATOM     22  C   UNL     1       5.569   4.590  18.171  0.00  0.00    +0.000 C 
BRANCH  22  23
ATOM     23  C   UNL     1       7.074   4.790  18.001  0.00  0.00    +0.000 C 
BRANCH  23  24
ATOM     24  C   UNL     1       7.612   6.010  18.737  0.00  0.00    +0.000 C 
BRANCH  24  26
ATOM     25  O   UNL     1       7.546   7.080  16.566  0.00  0.00    +0.000 OA
ATOM     26  C   UNL     1       7.774   7.167  17.767  0.00  0.00    +0.000 C 
ATOM     27  N   UNL     1       8.205   8.324  18.366  0.00  0.00    +0.000 N 
ATOM     28  H   UNL     1       8.398   8.341  19.358  0.00  0.00    +0.000 HD
BRANCH  27  29
ATOM     29  C   UNL     1       8.422   9.533  17.603  0.00  0.00    +0.000 C 
BRANCH  29  30
ATOM     30  C   UNL     1       8.996  10.624  18.469  0.00  0.00    +0.000 A 
ATOM     31  C   UNL     1       9.476  10.337  19.756  0.00  0.00    +0.000 A 
ATOM     32  C   UNL     1      10.007  11.351  20.555  0.00  0.00    +0.000 A 
ATOM     33  C   UNL     1      10.071  12.657  20.073  0.00  0.00    +0.000 A 
ATOM     34  C   UNL     1       9.614  12.949  18.790  0.00  0.00    +0.000 A 
ATOM     35  C   UNL     1       9.079  11.939  17.991  0.00  0.00    +0.000 A 
ENDBRANCH  29  30
ENDBRANCH  27  29
ENDBRANCH  24  26
ENDBRANCH  23  24
ENDBRANCH  22  23
ENDBRANCH  21  22
ENDBRANCH  20  21
ENDBRANCH   1  20
TORSDOF 9
ENDMDL
MODEL 2
REMARK VINA RESULT:      -8.1      4.869     10.272
REMARK  Name = 
REMARK  9 active torsions:
REMARK  status: ('A' for Active; 'I' for Inactive)
REMARK    1  A    between atoms: C_2  and  C_3
REMARK    2  A    between atoms: C_3  and  C_4
REMARK    3  A    between atoms: C_4  and  C_5
REMARK    4  A    between atoms: C_5  and  C_6
REMARK    5  A    between atoms: C_6  and  C_7
REMARK    6  A    between atoms: C_7  and  N_8
REMARK    7  A    between atoms: C_15  and  N_16
REMARK    8  A    between atoms: N_26  and  C_27
REMARK    9  A    between atoms: C_27  and  C_28
REMARK                            x       y       z     vdW  Elec       q    Type
REMARK                         _______ _______ _______ _____ _____    ______ ____
ROOT
ATOM      1  N   UNL     1       0.479  11.261  20.780  0.00  0.00    +0.000 N 
ATOM      2  C   UNL     1       0.446  11.654  19.446  0.00  0.00    +0.000 A 
ATOM      3  S   UNL     1      -0.003  13.154  18.840  0.00  0.00    +0.000 S 
ATOM      4  N   UNL     1       0.829  10.724  18.520  0.00  0.00    +0.000 N 
ATOM      5  C   UNL     1       1.290   9.452  18.842  0.00  0.00    +0.000 A 
ATOM      6  C   UNL     1       1.740   8.601  17.844  0.00  0.00    +0.000 A 
ATOM      7  C   UNL     1       2.264   7.349  18.189  0.00  0.00    +0.000 A 
ATOM      8  C   UNL     1       2.334   6.907  19.522  0.00  0.00    +0.000 A 
ATOM      9  C   UNL     1       1.828   7.776  20.498  0.00  0.00    +0.000 A 
ATOM     10  C   UNL     1       1.330   9.043  20.163  0.00  0.00    +0.000 A 
ATOM     11  C   UNL     1       0.890   9.985  21.206  0.00  0.00    +0.000 A 
ATOM     12  O   UNL     1       0.932   9.625  22.380  0.00  0.00    +0.000 OA
ATOM     13  H   UNL     1       0.809  11.019  17.551  0.00  0.00    +0.000 HD
ENDROOT
BRANCH   8  14
ATOM     14  N   UNL     1       2.907   5.701  19.855  0.00  0.00    +0.000 N 
ATOM     15  C   UNL     1       4.139   5.207  19.215  0.00  0.00    +0.000 C 
ATOM     16  C   UNL     1       3.906   3.770  18.715  0.00  0.00    +0.000 C 
ATOM     17  O   UNL     1       3.462   2.902  19.771  0.00  0.00    +0.000 OA
ATOM     18  C   UNL     1       2.228   3.386  20.328  0.00  0.00    +0.000 C 
ATOM     19  C   UNL     1       2.381   4.805  20.896  0.00  0.00    +0.000 C 
ENDBRANCH   8  14
BRANCH   1  20
ATOM     20  C   UNL     1       0.138  12.184  21.867  0.00  0.00    +0.000 C 
BRANCH  20  21
ATOM     21  C   UNL     1      -1.127  11.733  22.613  0.00  0.00    +0.000 C 
BRANCH  21  22
ATOM     22  C   UNL     1      -2.249  12.775  22.577  0.00  0.00    +0.000 C 
BRANCH  22  23
ATOM     23  C   UNL     1      -3.100  12.637  21.316  0.00  0.00    +0.000 C 
BRANCH  23  24
ATOM     24  C   UNL     1      -4.462  13.310  21.425  0.00  0.00    +0.000 C 
BRANCH  24  26
ATOM     25  O   UNL     1      -6.372  13.543  19.955  0.00  0.00    +0.000 OA
ATOM     26  C   UNL     1      -5.237  13.116  20.134  0.00  0.00    +0.000 C 
ATOM     27  N   UNL     1      -4.544  12.409  19.183  0.00  0.00    +0.000 N 
ATOM     28  H   UNL     1      -3.617  12.061  19.385  0.00  0.00    +0.000 HD
BRANCH  27  29
ATOM     29  C   UNL     1      -5.120  12.120  17.889  0.00  0.00    +0.000 C 
BRANCH  29  30
ATOM     30  C   UNL     1      -4.192  11.271  17.060  0.00  0.00    +0.000 A 
ATOM     31  C   UNL     1      -4.342  11.199  15.668  0.00  0.00    +0.000 A 
ATOM     32  C   UNL     1      -3.480  10.409  14.903  0.00  0.00    +0.000 A 
ATOM     33  C   UNL     1      -2.458   9.693  15.523  0.00  0.00    +0.000 A 
ATOM     34  C   UNL     1      -2.289   9.771  16.903  0.00  0.00    +0.000 A 
ATOM     35  C   UNL     1      -3.151  10.556  17.669  0.00  0.00    +0.000 A 
ENDBRANCH  29  30
ENDBRANCH  27  29
ENDBRANCH  24  26
ENDBRANCH  23  24
ENDBRANCH  22  23
ENDBRANCH  21  22
ENDBRANCH  20  21
ENDBRANCH   1  20
TORSDOF 9
ENDMDL
MODEL 3
REMARK VINA RESULT:      -8.0      4.801     11.353
REMARK  Name = 
REMARK  9 active torsions:
REMARK  status: ('A' for Active; 'I' for Inactive)
REMARK    1  A    between atoms: C_2  and  C_3
REMARK    2  A    between atoms: C_3  and  C_4
REMARK    3  A    between atoms: C_4  and  C_5
REMARK    4  A    between atoms: C_5  and  C_6
REMARK    5  A    between atoms: C_6  and  C_7
REMARK    6  A    between atoms: C_7  and  N_8
REMARK    7  A    between atoms: C_15  and  N_16
REMARK    8  A    between atoms: N_26  and  C_27
REMARK    9  A    between atoms: C_27  and  C_28
REMARK                            x       y       z     vdW  Elec       q    Type
REMARK                         _______ _______ _______ _____ _____    ______ ____
ROOT
ATOM      1  N   UNL     1      -0.009  11.289  20.452  0.00  0.00    +0.000 N 
ATOM      2  C   UNL     1       0.319  11.785  19.195  0.00  0.00    +0.000 A 
ATOM      3  S   UNL     1      -0.006  13.318  18.593  0.00  0.00    +0.000 S 
ATOM      4  N   UNL     1       0.989  10.940  18.354  0.00  0.00    +0.000 N 
ATOM      5  C   UNL     1       1.395   9.657  18.704  0.00  0.00    +0.000 A 
ATOM      6  C   UNL     1       2.146   8.900  17.818  0.00  0.00    +0.000 A 
ATOM      7  C   UNL     1       2.606   7.635  18.210  0.00  0.00    +0.000 A 
ATOM      8  C   UNL     1       2.315   7.091  19.473  0.00  0.00    +0.000 A 
ATOM      9  C   UNL     1       1.517   7.868  20.322  0.00  0.00    +0.000 A 
ATOM     10  C   UNL     1       1.079   9.145  19.949  0.00  0.00    +0.000 A 
ATOM     11  C   UNL     1       0.321   9.992  20.887  0.00  0.00    +0.000 A 
ATOM     12  O   UNL     1       0.045   9.540  21.996  0.00  0.00    +0.000 OA
ATOM     13  H   UNL     1       1.231  11.312  17.443  0.00  0.00    +0.000 HD
ENDROOT
BRANCH   8  14
ATOM     14  N   UNL     1       2.824   5.875  19.870  0.00  0.00    +0.000 N 
ATOM     15  C   UNL     1       4.181   5.428  19.509  0.00  0.00    +0.000 C 
ATOM     16  C   UNL     1       4.101   4.017  18.900  0.00  0.00    +0.000 C 
ATOM     17  O   UNL     1       3.445   3.090  19.781  0.00  0.00    +0.000 OA
ATOM     18  C   UNL     1       2.106   3.531  20.060  0.00  0.00    +0.000 C 
ATOM     19  C   UNL     1       2.093   4.920  20.717  0.00  0.00    +0.000 C 
ENDBRANCH   8  14
BRANCH   1  20
ATOM     20  C   UNL     1      -0.683  12.114  21.459  0.00  0.00    +0.000 C 
BRANCH  20  21
ATOM     21  C   UNL     1      -2.182  12.260  21.155  0.00  0.00    +0.000 C 
BRANCH  21  22
ATOM     22  C   UNL     1      -2.943  13.023  22.243  0.00  0.00    +0.000 C 
BRANCH  22  23
ATOM     23  C   UNL     1      -3.054  12.204  23.527  0.00  0.00    +0.000 C 
BRANCH  23  24
ATOM     24  C   UNL     1      -4.211  12.630  24.423  0.00  0.00    +0.000 C 
BRANCH  24  26
ATOM     25  O   UNL     1      -5.551  14.376  23.413  0.00  0.00    +0.000 OA
ATOM     26  C   UNL     1      -5.345  13.179  23.574  0.00  0.00    +0.000 C 
ATOM     27  N   UNL     1      -6.122  12.201  23.005  0.00  0.00    +0.000 N 
ATOM     28  H   UNL     1      -5.923  11.226  23.183  0.00  0.00    +0.000 HD
BRANCH  27  29
ATOM     29  C   UNL     1      -7.252  12.529  22.166  0.00  0.00    +0.000 C 
BRANCH  29  30
ATOM     30  C   UNL     1      -6.986  12.160  20.730  0.00  0.00    +0.000 A 
ATOM     31  C   UNL     1      -6.512  13.119  19.822  0.00  0.00    +0.000 A 
ATOM     32  C   UNL     1      -6.268  12.773  18.491  0.00  0.00    +0.000 A 
ATOM     33  C   UNL     1      -6.487  11.466  18.059  0.00  0.00    +0.000 A 
ATOM     34  C   UNL     1      -6.940  10.502  18.957  0.00  0.00    +0.000 A 
ATOM     35  C   UNL     1      -7.189  10.846  20.286  0.00  0.00    +0.000 A 
ENDBRANCH  29  30
ENDBRANCH  27  29
ENDBRANCH  24  26
ENDBRANCH  23  24
ENDBRANCH  22  23
ENDBRANCH  21  22
ENDBRANCH  20  21
ENDBRANCH   1  20
TORSDOF 9
ENDMDL
MODEL 4
REMARK VINA RESULT:      -8.0      3.772      5.389
REMARK  Name = 
REMARK  9 active torsions:
REMARK  status: ('A' for Active; 'I' for Inactive)
REMARK    1  A    between atoms: C_2  and  C_3
REMARK    2  A    between atoms: C_3  and  C_4
REMARK    3  A    between atoms: C_4  and  C_5
REMARK    4  A    between atoms: C_5  and  C_6
REMARK    5  A    between atoms: C_6  and  C_7
REMARK    6  A    between atoms: C_7  and  N_8
REMARK    7  A    between atoms: C_15  and  N_16
REMARK    8  A    between atoms: N_26  and  C_27
REMARK    9  A    between atoms: C_27  and  C_28
REMARK                            x       y       z     vdW  Elec       q    Type
REMARK                         _______ _______ _______ _____ _____    ______ ____
ROOT
ATOM      1  N   UNL     1       1.531   8.305  20.286  0.00  0.00    +0.000 N 
ATOM      2  C   UNL     1       1.798   8.587  18.950  0.00  0.00    +0.000 A 
ATOM      3  S   UNL     1       2.707   7.667  17.880  0.00  0.00    +0.000 S 
ATOM      4  N   UNL     1       1.254   9.735  18.442  0.00  0.00    +0.000 N 
ATOM      5  C   UNL     1       0.425  10.587  19.164  0.00  0.00    +0.000 A 
ATOM      6  C   UNL     1      -0.153  11.685  18.544  0.00  0.00    +0.000 A 
ATOM      7  C   UNL     1      -1.039  12.495  19.264  0.00  0.00    +0.000 A 
ATOM      8  C   UNL     1      -1.354  12.249  20.612  0.00  0.00    +0.000 A 
ATOM      9  C   UNL     1      -0.716  11.157  21.215  0.00  0.00    +0.000 A 
ATOM     10  C   UNL     1       0.148  10.324  20.493  0.00  0.00    +0.000 A 
ATOM     11  C   UNL     1       0.738   9.124  21.111  0.00  0.00    +0.000 A 
ATOM     12  O   UNL     1       0.487   8.885  22.291  0.00  0.00    +0.000 OA
ATOM     13  H   UNL     1       1.447   9.930  17.467  0.00  0.00    +0.000 HD
ENDROOT
BRANCH   8  14
ATOM     14  N   UNL     1      -2.274  13.015  21.291  0.00  0.00    +0.000 N 
ATOM     15  C   UNL     1      -1.904  13.873  22.430  0.00  0.00    +0.000 C 
ATOM     16  C   UNL     1      -2.838  13.571  23.615  0.00  0.00    +0.000 C 
ATOM     17  O   UNL     1      -4.222  13.720  23.256  0.00  0.00    +0.000 OA
ATOM     18  C   UNL     1      -4.558  12.824  22.182  0.00  0.00    +0.000 C 
ATOM     19  C   UNL     1      -3.700  13.088  20.936  0.00  0.00    +0.000 C 
ENDBRANCH   8  14
BRANCH   1  20
ATOM     20  C   UNL     1       2.016   7.081  20.930  0.00  0.00    +0.000 C 
BRANCH  20  21
ATOM     21  C   UNL     1       1.199   5.855  20.497  0.00  0.00    +0.000 C 
BRANCH  21  22
ATOM     22  C   UNL     1       1.935   4.531  20.726  0.00  0.00    +0.000 C 
BRANCH  22  23
ATOM     23  C   UNL     1       1.056   3.334  20.369  0.00  0.00    +0.000 C 
BRANCH  23  24
ATOM     24  C   UNL     1       1.657   2.439  19.292  0.00  0.00    +0.000 C 
BRANCH  24  26
ATOM     25  O   UNL     1       1.370   3.910  17.391  0.00  0.00    +0.000 OA
ATOM     26  C   UNL     1       2.128   3.284  18.123  0.00  0.00    +0.000 C 
ATOM     27  N   UNL     1       3.491   3.278  17.959  0.00  0.00    +0.000 N 
ATOM     28  H   UNL     1       4.073   2.730  18.578  0.00  0.00    +0.000 HD
BRANCH  27  29
ATOM     29  C   UNL     1       4.127   4.022  16.896  0.00  0.00    +0.000 C 
BRANCH  29  30
ATOM     30  C   UNL     1       5.302   4.809  17.413  0.00  0.00    +0.000 A 
ATOM     31  C   UNL     1       5.645   4.771  18.773  0.00  0.00    +0.000 A 
ATOM     32  C   UNL     1       6.734   5.503  19.249  0.00  0.00    +0.000 A 
ATOM     33  C   UNL     1       7.494   6.272  18.370  0.00  0.00    +0.000 A 
ATOM     34  C   UNL     1       7.174   6.303  17.015  0.00  0.00    +0.000 A 
ATOM     35  C   UNL     1       6.083   5.576  16.538  0.00  0.00    +0.000 A 
ENDBRANCH  29  30
ENDBRANCH  27  29
ENDBRANCH  24  26
ENDBRANCH  23  24
ENDBRANCH  22  23
ENDBRANCH  21  22
ENDBRANCH  20  21
ENDBRANCH   1  20
TORSDOF 9
ENDMDL
MODEL 5
REMARK VINA RESULT:      -8.0      3.926      5.977
REMARK  Name = 
REMARK  9 active torsions:
REMARK  status: ('A' for Active; 'I' for Inactive)
REMARK    1  A    between atoms: C_2  and  C_3
REMARK    2  A    between atoms: C_3  and  C_4
REMARK    3  A    between atoms: C_4  and  C_5
REMARK    4  A    between atoms: C_5  and  C_6
REMARK    5  A    between atoms: C_6  and  C_7
REMARK    6  A    between atoms: C_7  and  N_8
REMARK    7  A    between atoms: C_15  and  N_16
REMARK    8  A    between atoms: N_26  and  C_27
REMARK    9  A    between atoms: C_27  and  C_28
REMARK                            x       y       z     vdW  Elec       q    Type
REMARK                         _______ _______ _______ _____ _____    ______ ____
ROOT
ATOM      1  N   UNL     1       1.084   9.048  20.545  0.00  0.00    +0.000 N 
ATOM      2  C   UNL     1       1.088   9.419  19.204  0.00  0.00    +0.000 A 
ATOM      3  S   UNL     1       1.962   8.711  17.958  0.00  0.00    +0.000 S 
ATOM      4  N   UNL     1       0.286  10.469  18.853  0.00  0.00    +0.000 N 
ATOM      5  C   UNL     1      -0.553  11.135  19.739  0.00  0.00    +0.000 A 
ATOM      6  C   UNL     1      -1.397  12.135  19.279  0.00  0.00    +0.000 A 
ATOM      7  C   UNL     1      -2.286  12.751  20.170  0.00  0.00    +0.000 A 
ATOM      8  C   UNL     1      -2.341  12.406  21.532  0.00  0.00    +0.000 A 
ATOM      9  C   UNL     1      -1.441  11.424  21.967  0.00  0.00    +0.000 A 
ATOM     10  C   UNL     1      -0.572  10.782  21.076  0.00  0.00    +0.000 A 
ATOM     11  C   UNL     1       0.302   9.684  21.526  0.00  0.00    +0.000 A 
ATOM     12  O   UNL     1       0.281   9.365  22.713  0.00  0.00    +0.000 OA
ATOM     13  H   UNL     1       0.289  10.729  17.873  0.00  0.00    +0.000 HD
ENDROOT
BRANCH   8  14
ATOM     14  N   UNL     1      -3.260  12.974  22.384  0.00  0.00    +0.000 N 
ATOM     15  C   UNL     1      -3.076  12.997  23.846  0.00  0.00    +0.000 C 
ATOM     16  C   UNL     1      -4.345  12.449  24.523  0.00  0.00    +0.000 C 
ATOM     17  O   UNL     1      -5.521  13.169  24.117  0.00  0.00    +0.000 OA
ATOM     18  C   UNL     1      -5.698  13.071  22.694  0.00  0.00    +0.000 C 
ATOM     19  C   UNL     1      -4.491  13.641  21.933  0.00  0.00    +0.000 C 
ENDBRANCH   8  14
BRANCH   1  20
ATOM     20  C   UNL     1       1.864   7.907  21.035  0.00  0.00    +0.000 C 
BRANCH  20  21
ATOM     21  C   UNL     1       1.040   6.611  21.011  0.00  0.00    +0.000 C 
BRANCH  21  22
ATOM     22  C   UNL     1       1.820   5.413  20.460  0.00  0.00    +0.000 C 
BRANCH  22  23
ATOM     23  C   UNL     1       0.945   4.164  20.382  0.00  0.00    +0.000 C 
BRANCH  23  24
ATOM     24  C   UNL     1       1.675   2.944  19.834  0.00  0.00    +0.000 C 
BRANCH  24  26
ATOM     25  O   UNL     1       1.456   3.547  17.500  0.00  0.00    +0.000 OA
ATOM     26  C   UNL     1       2.185   3.234  18.434  0.00  0.00    +0.000 C 
ATOM     27  N   UNL     1       3.546   3.108  18.312  0.00  0.00    +0.000 N 
ATOM     28  H   UNL     1       4.103   2.829  19.108  0.00  0.00    +0.000 HD
BRANCH  27  29
ATOM     29  C   UNL     1       4.216   3.341  17.053  0.00  0.00    +0.000 C 
BRANCH  29  30
ATOM     30  C   UNL     1       5.076   4.576  17.117  0.00  0.00    +0.000 A 
ATOM     31  C   UNL     1       6.475   4.474  17.123  0.00  0.00    +0.000 A 
ATOM     32  C   UNL     1       7.268   5.621  17.183  0.00  0.00    +0.000 A 
ATOM     33  C   UNL     1       6.671   6.879  17.229  0.00  0.00    +0.000 A 
ATOM     34  C   UNL     1       5.283   6.993  17.205  0.00  0.00    +0.000 A 
ATOM     35  C   UNL     1       4.488   5.848  17.149  0.00  0.00    +0.000 A 
ENDBRANCH  29  30
ENDBRANCH  27  29
ENDBRANCH  24  26
ENDBRANCH  23  24
ENDBRANCH  22  23
ENDBRANCH  21  22
ENDBRANCH  20  21
ENDBRANCH   1  20
TORSDOF 9
ENDMDL
MODEL 6
REMARK VINA RESULT:      -8.0      1.163      1.764
REMARK  Name = 
REMARK  9 active torsions:
REMARK  status: ('A' for Active; 'I' for Inactive)
REMARK    1  A    between atoms: C_2  and  C_3
REMARK    2  A    between atoms: C_3  and  C_4
REMARK    3  A    between atoms: C_4  and  C_5
REMARK    4  A    between atoms: C_5  and  C_6
REMARK    5  A    between atoms: C_6  and  C_7
REMARK    6  A    between atoms: C_7  and  N_8
REMARK    7  A    between atoms: C_15  and  N_16
REMARK    8  A    between atoms: N_26  and  C_27
REMARK    9  A    between atoms: C_27  and  C_28
REMARK                            x       y       z     vdW  Elec       q    Type
REMARK                         _______ _______ _______ _____ _____    ______ ____
ROOT
ATOM      1  N   UNL     1       2.603   6.276  19.034  0.00  0.00    +0.000 N 
ATOM      2  C   UNL     1       2.195   5.768  20.264  0.00  0.00    +0.000 A 
ATOM      3  S   UNL     1       2.442   4.216  20.853  0.00  0.00    +0.000 S 
ATOM      4  N   UNL     1       1.527   6.625  21.093  0.00  0.00    +0.000 N 
ATOM      5  C   UNL     1       1.287   7.963  20.797  0.00  0.00    +0.000 A 
ATOM      6  C   UNL     1       0.677   8.784  21.734  0.00  0.00    +0.000 A 
ATOM      7  C   UNL     1       0.502  10.144  21.449  0.00  0.00    +0.000 A 
ATOM      8  C   UNL     1       0.908  10.712  20.229  0.00  0.00    +0.000 A 
ATOM      9  C   UNL     1       1.479   9.842  19.291  0.00  0.00    +0.000 A 
ATOM     10  C   UNL     1       1.684   8.486  19.581  0.00  0.00    +0.000 A 
ATOM     11  C   UNL     1       2.373   7.602  18.625  0.00  0.00    +0.000 A 
ATOM     12  O   UNL     1       2.733   8.068  17.546  0.00  0.00    +0.000 OA
ATOM     13  H   UNL     1       1.239   6.250  21.989  0.00  0.00    +0.000 HD
ENDROOT
BRANCH   8  14
ATOM     14  N   UNL     1       0.788  12.061  19.984  0.00  0.00    +0.000 N 
ATOM     15  C   UNL     1       0.653  13.053  21.065  0.00  0.00    +0.000 C 
ATOM     16  C   UNL     1      -0.559  13.955  20.774  0.00  0.00    +0.000 C 
ATOM     17  O   UNL     1      -0.466  14.576  19.482  0.00  0.00    +0.000 OA
ATOM     18  C   UNL     1      -0.396  13.576  18.451  0.00  0.00    +0.000 C 
ATOM     19  C   UNL     1       0.818  12.655  18.639  0.00  0.00    +0.000 C 
ENDBRANCH   8  14
BRANCH   1  20
ATOM     20  C   UNL     1       3.370   5.469  18.080  0.00  0.00    +0.000 C 
BRANCH  20  21
ATOM     21  C   UNL     1       4.874   5.767  18.172  0.00  0.00    +0.000 C 
BRANCH  21  22
ATOM     22  C   UNL     1       5.511   6.069  16.812  0.00  0.00    +0.000 C 
BRANCH  22  23
ATOM     23  C   UNL     1       7.031   6.173  16.917  0.00  0.00    +0.000 C 
BRANCH  23  24
ATOM     24  C   UNL     1       7.550   7.603  16.834  0.00  0.00    +0.000 C 
BRANCH  24  26
ATOM     25  O   UNL     1       8.466   7.187  19.036  0.00  0.00    +0.000 OA
ATOM     26  C   UNL     1       8.205   7.990  18.148  0.00  0.00    +0.000 C 
ATOM     27  N   UNL     1       8.474   9.332  18.249  0.00  0.00    +0.000 N 
ATOM     28  H   UNL     1       8.222   9.958  17.496  0.00  0.00    +0.000 HD
BRANCH  27  29
ATOM     29  C   UNL     1       9.093   9.891  19.429  0.00  0.00    +0.000 C 
BRANCH  29  30
ATOM     30  C   UNL     1      10.100  10.950  19.063  0.00  0.00    +0.000 A 
ATOM     31  C   UNL     1      10.184  11.432  17.748  0.00  0.00    +0.000 A 
ATOM     32  C   UNL     1      11.119  12.413  17.413  0.00  0.00    +0.000 A 
ATOM     33  C   UNL     1      11.972  12.925  18.388  0.00  0.00    +0.000 A 
ATOM     34  C   UNL     1      11.886  12.466  19.700  0.00  0.00    +0.000 A 
ATOM     35  C   UNL     1      10.955  11.483  20.037  0.00  0.00    +0.000 A 
ENDBRANCH  29  30
ENDBRANCH  27  29
ENDBRANCH  24  26
ENDBRANCH  23  24
ENDBRANCH  22  23
ENDBRANCH  21  22
ENDBRANCH  20  21
ENDBRANCH   1  20
TORSDOF 9
ENDMDL
MODEL 7
REMARK VINA RESULT:      -7.9      4.272     10.373
REMARK  Name = 
REMARK  9 active torsions:
REMARK  status: ('A' for Active; 'I' for Inactive)
REMARK    1  A    between atoms: C_2  and  C_3
REMARK    2  A    between atoms: C_3  and  C_4
REMARK    3  A    between atoms: C_4  and  C_5
REMARK    4  A    between atoms: C_5  and  C_6
REMARK    5  A    between atoms: C_6  and  C_7
REMARK    6  A    between atoms: C_7  and  N_8
REMARK    7  A    between atoms: C_15  and  N_16
REMARK    8  A    between atoms: N_26  and  C_27
REMARK    9  A    between atoms: C_27  and  C_28
REMARK                            x       y       z     vdW  Elec       q    Type
REMARK                         _______ _______ _______ _____ _____    ______ ____
ROOT
ATOM      1  N   UNL     1       1.311   9.054  19.225  0.00  0.00    +0.000 N 
ATOM      2  C   UNL     1       1.000   8.446  20.437  0.00  0.00    +0.000 A 
ATOM      3  S   UNL     1      -0.107   8.974  21.582  0.00  0.00    +0.000 S 
ATOM      4  N   UNL     1       1.659   7.284  20.731  0.00  0.00    +0.000 N 
ATOM      5  C   UNL     1       2.564   6.667  19.875  0.00  0.00    +0.000 A 
ATOM      6  C   UNL     1       3.121   5.444  20.217  0.00  0.00    +0.000 A 
ATOM      7  C   UNL     1       3.980   4.802  19.314  0.00  0.00    +0.000 A 
ATOM      8  C   UNL     1       4.317   5.364  18.071  0.00  0.00    +0.000 A 
ATOM      9  C   UNL     1       3.769   6.621  17.782  0.00  0.00    +0.000 A 
ATOM     10  C   UNL     1       2.886   7.255  18.665  0.00  0.00    +0.000 A 
ATOM     11  C   UNL     1       2.242   8.531  18.309  0.00  0.00    +0.000 A 
ATOM     12  O   UNL     1       2.523   9.051  17.231  0.00  0.00    +0.000 OA
ATOM     13  H   UNL     1       1.422   6.844  21.612  0.00  0.00    +0.000 HD
ENDROOT
BRANCH   8  14
ATOM     14  N   UNL     1       5.111   4.695  17.167  0.00  0.00    +0.000 N 
ATOM     15  C   UNL     1       6.555   4.494  17.378  0.00  0.00    +0.000 C 
ATOM     16  C   UNL     1       7.318   4.954  16.123  0.00  0.00    +0.000 C 
ATOM     17  O   UNL     1       6.848   4.288  14.939  0.00  0.00    +0.000 OA
ATOM     18  C   UNL     1       5.451   4.557  14.736  0.00  0.00    +0.000 C 
ATOM     19  C   UNL     1       4.605   4.086  15.928  0.00  0.00    +0.000 C 
ENDBRANCH   8  14
BRANCH   1  20
ATOM     20  C   UNL     1       0.637  10.276  18.776  0.00  0.00    +0.000 C 
BRANCH  20  21
ATOM     21  C   UNL     1      -0.631   9.955  17.971  0.00  0.00    +0.000 C 
BRANCH  21  22
ATOM     22  C   UNL     1      -1.692  11.057  18.059  0.00  0.00    +0.000 C 
BRANCH  22  23
ATOM     23  C   UNL     1      -3.098  10.495  17.862  0.00  0.00    +0.000 C 
BRANCH  23  24
ATOM     24  C   UNL     1      -4.030  11.438  17.109  0.00  0.00    +0.000 C 
BRANCH  24  26
ATOM     25  O   UNL     1      -6.381  11.753  17.594  0.00  0.00    +0.000 OA
ATOM     26  C   UNL     1      -5.220  11.792  17.984  0.00  0.00    +0.000 C 
ATOM     27  N   UNL     1      -4.869  12.166  19.257  0.00  0.00    +0.000 N 
ATOM     28  H   UNL     1      -3.895  12.200  19.525  0.00  0.00    +0.000 HD
BRANCH  27  29
ATOM     29  C   UNL     1      -5.864  12.543  20.234  0.00  0.00    +0.000 C 
BRANCH  29  30
ATOM     30  C   UNL     1      -5.257  12.666  21.607  0.00  0.00    +0.000 A 
ATOM     31  C   UNL     1      -3.866  12.609  21.780  0.00  0.00    +0.000 A 
ATOM     32  C   UNL     1      -3.307  12.722  23.055  0.00  0.00    +0.000 A 
ATOM     33  C   UNL     1      -4.131  12.900  24.164  0.00  0.00    +0.000 A 
ATOM     34  C   UNL     1      -5.512  12.975  24.001  0.00  0.00    +0.000 A 
ATOM     35  C   UNL     1      -6.073  12.859  22.730  0.00  0.00    +0.000 A 
ENDBRANCH  29  30
ENDBRANCH  27  29
ENDBRANCH  24  26
ENDBRANCH  23  24
ENDBRANCH  22  23
ENDBRANCH  21  22
ENDBRANCH  20  21
ENDBRANCH   1  20
TORSDOF 9
ENDMDL
MODEL 8
REMARK VINA RESULT:      -7.9      3.830      5.339
REMARK  Name = 
REMARK  9 active torsions:
REMARK  status: ('A' for Active; 'I' for Inactive)
REMARK    1  A    between atoms: C_2  and  C_3
REMARK    2  A    between atoms: C_3  and  C_4
REMARK    3  A    between atoms: C_4  and  C_5
REMARK    4  A    between atoms: C_5  and  C_6
REMARK    5  A    between atoms: C_6  and  C_7
REMARK    6  A    between atoms: C_7  and  N_8
REMARK    7  A    between atoms: C_15  and  N_16
REMARK    8  A    between atoms: N_26  and  C_27
REMARK    9  A    between atoms: C_27  and  C_28
REMARK                            x       y       z     vdW  Elec       q    Type
REMARK                         _______ _______ _______ _____ _____    ______ ____
ROOT
ATOM      1  N   UNL     1       1.916   7.815  20.041  0.00  0.00    +0.000 N 
ATOM      2  C   UNL     1       2.094   8.181  18.710  0.00  0.00    +0.000 A 
ATOM      3  S   UNL     1       2.980   7.363  17.543  0.00  0.00    +0.000 S 
ATOM      4  N   UNL     1       1.473   9.328  18.299  0.00  0.00    +0.000 N 
ATOM      5  C   UNL     1       0.650  10.099  19.111  0.00  0.00    +0.000 A 
ATOM      6  C   UNL     1      -0.009  11.201  18.586  0.00  0.00    +0.000 A 
ATOM      7  C   UNL     1      -0.888  11.929  19.399  0.00  0.00    +0.000 A 
ATOM      8  C   UNL     1      -1.115  11.596  20.745  0.00  0.00    +0.000 A 
ATOM      9  C   UNL     1      -0.397  10.504  21.250  0.00  0.00    +0.000 A 
ATOM     10  C   UNL     1       0.460   9.752  20.436  0.00  0.00    +0.000 A 
ATOM     11  C   UNL     1       1.136   8.549  20.952  0.00  0.00    +0.000 A 
ATOM     12  O   UNL     1       0.963   8.236  22.128  0.00  0.00    +0.000 OA
ATOM     13  H   UNL     1       1.602   9.584  17.327  0.00  0.00    +0.000 HD
ENDROOT
BRANCH   8  14
ATOM     14  N   UNL     1      -2.028  12.280  21.515  0.00  0.00    +0.000 N 
ATOM     15  C   UNL     1      -3.057  13.158  20.932  0.00  0.00    +0.000 C 
ATOM     16  C   UNL     1      -3.009  14.528  21.632  0.00  0.00    +0.000 C 
ATOM     17  O   UNL     1      -3.151  14.404  23.057  0.00  0.00    +0.000 OA
ATOM     18  C   UNL     1      -2.094  13.591  23.595  0.00  0.00    +0.000 C 
ATOM     19  C   UNL     1      -2.097  12.183  22.982  0.00  0.00    +0.000 C 
ENDBRANCH   8  14
BRANCH   1  20
ATOM     20  C   UNL     1       2.490   6.581  20.588  0.00  0.00    +0.000 C 
BRANCH  20  21
ATOM     21  C   UNL     1       1.548   5.385  20.387  0.00  0.00    +0.000 C 
BRANCH  21  22
ATOM     22  C   UNL     1       1.913   4.180  21.259  0.00  0.00    +0.000 C 
BRANCH  22  23
ATOM     23  C   UNL     1       2.081   2.914  20.421  0.00  0.00    +0.000 C 
BRANCH  23  24
ATOM     24  C   UNL     1       1.139   2.846  19.226  0.00  0.00    +0.000 C 
BRANCH  24  26
ATOM     25  O   UNL     1       1.231   4.051  17.128  0.00  0.00    +0.000 OA
ATOM     26  C   UNL     1       1.822   3.421  17.998  0.00  0.00    +0.000 C 
ATOM     27  N   UNL     1       3.169   3.165  17.953  0.00  0.00    +0.000 N 
ATOM     28  H   UNL     1       3.608   2.624  18.686  0.00  0.00    +0.000 HD
BRANCH  27  29
ATOM     29  C   UNL     1       3.990   3.630  16.858  0.00  0.00    +0.000 C 
BRANCH  29  30
ATOM     30  C   UNL     1       5.149   4.452  17.359  0.00  0.00    +0.000 A 
ATOM     31  C   UNL     1       5.966   5.155  16.463  0.00  0.00    +0.000 A 
ATOM     32  C   UNL     1       7.040   5.915  16.931  0.00  0.00    +0.000 A 
ATOM     33  C   UNL     1       7.300   5.984  18.299  0.00  0.00    +0.000 A 
ATOM     34  C   UNL     1       6.484   5.304  19.199  0.00  0.00    +0.000 A 
ATOM     35  C   UNL     1       5.413   4.541  18.733  0.00  0.00    +0.000 A 
ENDBRANCH  29  30
ENDBRANCH  27  29
ENDBRANCH  24  26
ENDBRANCH  23  24
ENDBRANCH  22  23
ENDBRANCH  21  22
ENDBRANCH  20  21
ENDBRANCH   1  20
TORSDOF 9
ENDMDL
MODEL 9
REMARK VINA RESULT:      -7.8      1.989      2.822
REMARK  Name = 
REMARK  9 active torsions:
REMARK  status: ('A' for Active; 'I' for Inactive)
REMARK    1  A    between atoms: C_2  and  C_3
REMARK    2  A    between atoms: C_3  and  C_4
REMARK    3  A    between atoms: C_4  and  C_5
REMARK    4  A    between atoms: C_5  and  C_6
REMARK    5  A    between atoms: C_6  and  C_7
REMARK    6  A    between atoms: C_7  and  N_8
REMARK    7  A    between atoms: C_15  and  N_16
REMARK    8  A    between atoms: N_26  and  C_27
REMARK    9  A    between atoms: C_27  and  C_28
REMARK                            x       y       z     vdW  Elec       q    Type
REMARK                         _______ _______ _______ _____ _____    ______ ____
ROOT
ATOM      1  N   UNL     1       3.867   6.364  18.031  0.00  0.00    +0.000 N 
ATOM      2  C   UNL     1       3.762   5.580  19.175  0.00  0.00    +0.000 A 
ATOM      3  S   UNL     1       4.622   4.184  19.531  0.00  0.00    +0.000 S 
ATOM      4  N   UNL     1       2.868   5.992  20.124  0.00  0.00    +0.000 N 
ATOM      5  C   UNL     1       2.114   7.157  20.027  0.00  0.00    +0.000 A 
ATOM      6  C   UNL     1       1.294   7.544  21.077  0.00  0.00    +0.000 A 
ATOM      7  C   UNL     1       0.593   8.754  20.994  0.00  0.00    +0.000 A 
ATOM      8  C   UNL     1       0.673   9.591  19.867  0.00  0.00    +0.000 A 
ATOM      9  C   UNL     1       1.476   9.143  18.809  0.00  0.00    +0.000 A 
ATOM     10  C   UNL     1       2.205   7.950  18.898  0.00  0.00    +0.000 A 
ATOM     11  C   UNL     1       3.120   7.538  17.820  0.00  0.00    +0.000 A 
ATOM     12  O   UNL     1       3.206   8.245  16.818  0.00  0.00    +0.000 OA
ATOM     13  H   UNL     1       2.802   5.420  20.958  0.00  0.00    +0.000 HD
ENDROOT
BRANCH   8  14
ATOM     14  N   UNL     1       0.029  10.806  19.822  0.00  0.00    +0.000 N 
ATOM     15  C   UNL     1      -0.076  11.691  20.995  0.00  0.00    +0.000 C 
ATOM     16  C   UNL     1      -1.547  12.098  21.191  0.00  0.00    +0.000 C 
ATOM     17  O   UNL     1      -2.096  12.703  20.010  0.00  0.00    +0.000 OA
ATOM     18  C   UNL     1      -2.030  11.787  18.903  0.00  0.00    +0.000 C 
ATOM     19  C   UNL     1      -0.584  11.362  18.606  0.00  0.00    +0.000 C 
ENDBRANCH   8  14
BRANCH   1  20
ATOM     20  C   UNL     1       4.825   6.054  16.965  0.00  0.00    +0.000 C 
BRANCH  20  21
ATOM     21  C   UNL     1       6.078   6.938  17.059  0.00  0.00    +0.000 C 
BRANCH  21  22
ATOM     22  C   UNL     1       7.141   6.374  18.007  0.00  0.00    +0.000 C 
BRANCH  22  23
ATOM     23  C   UNL     1       8.198   7.422  18.348  0.00  0.00    +0.000 C 
BRANCH  23  24
ATOM     24  C   UNL     1       7.873   8.811  17.812  0.00  0.00    +0.000 C 
BRANCH  24  26
ATOM     25  O   UNL     1       9.151   9.787  19.622  0.00  0.00    +0.000 OA
ATOM     26  C   UNL     1       8.790   9.837  18.452  0.00  0.00    +0.000 C 
ATOM     27  N   UNL     1       9.177  10.834  17.592  0.00  0.00    +0.000 N 
ATOM     28  H   UNL     1       8.838  10.843  16.640  0.00  0.00    +0.000 HD
BRANCH  27  29
ATOM     29  C   UNL     1      10.048  11.905  18.020  0.00  0.00    +0.000 C 
BRANCH  29  30
ATOM     30  C   UNL     1       9.307  13.215  18.079  0.00  0.00    +0.000 A 
ATOM     31  C   UNL     1       7.975  13.302  17.649  0.00  0.00    +0.000 A 
ATOM     32  C   UNL     1       7.291  14.519  17.705  0.00  0.00    +0.000 A 
ATOM     33  C   UNL     1       7.930  15.655  18.197  0.00  0.00    +0.000 A 
ATOM     34  C   UNL     1       9.247  15.576  18.644  0.00  0.00    +0.000 A 
ATOM     35  C   UNL     1       9.933  14.362  18.585  0.00  0.00    +0.000 A 
ENDBRANCH  29  30
ENDBRANCH  27  29
ENDBRANCH  24  26
ENDBRANCH  23  24
ENDBRANCH  22  23
ENDBRANCH  21  22
ENDBRANCH  20  21
ENDBRANCH   1  20
TORSDOF 9
ENDMDL
