MODEL 1
REMARK VINA RESULT:      -7.0      0.000      0.000
REMARK  Name = 
REMARK  7 active torsions:
REMARK  status: ('A' for Active; 'I' for Inactive)
REMARK    1  A    between atoms: C_1  and  C_2
REMARK    2  A    between atoms: C_4  and  C_5
REMARK    3  A    between atoms: C_6  and  C_7
REMARK    4  A    between atoms: C_9  and  O_10
REMARK    5  A    between atoms: O_10  and  C_11
REMARK    6  A    between atoms: C_11  and  C_12
REMARK    7  A    between atoms: C_12  and  C_14
REMARK                            x       y       z     vdW  Elec       q    Type
REMARK                         _______ _______ _______ _____ _____    ______ ____
ROOT
ATOM      1  O   UNL     1       5.728   4.495  19.137  0.00  0.00    +0.000 OA
ENDROOT
BRANCH   1   8
ATOM      2  C   UNL     1       1.995   7.485  19.614  0.00  0.00    +0.000 C 
ATOM      3  C   UNL     1       2.599   6.124  19.792  0.00  0.00    +0.000 A 
ATOM      4  C   UNL     1       1.845   5.094  20.354  0.00  0.00    +0.000 A 
ATOM      5  C   UNL     1       2.416   3.828  20.512  0.00  0.00    +0.000 A 
ATOM      6  C   UNL     1       1.614   2.711  21.120  0.00  0.00    +0.000 C 
ATOM      7  C   UNL     1       3.741   3.638  20.088  0.00  0.00    +0.000 A 
ATOM      8  C   UNL     1       4.424   4.716  19.533  0.00  0.00    +0.000 A 
ATOM      9  N   UNL     1       3.886   5.952  19.385  0.00  0.00    +0.000 NA
BRANCH   7  10
ATOM     10  C   UNL     1       4.388   2.373  20.233  0.00  0.00    +0.000 C 
ATOM     11  N   UNL     1       4.942   1.363  20.391  0.00  0.00    +0.000 NA
ENDBRANCH   7  10
ENDBRANCH   1   8
BRANCH   1  12
ATOM     12  C   UNL     1       6.641   5.532  19.467  0.00  0.00    +0.000 C 
BRANCH  12  13
ATOM     13  C   UNL     1       7.128   6.151  18.164  0.00  0.00    +0.000 C 
ATOM     14  O   UNL     1       7.926   7.089  18.141  0.00  0.00    +0.000 OA
BRANCH  13  15
ATOM     15  C   UNL     1       6.637   5.598  16.871  0.00  0.00    +0.000 A 
ATOM     16  C   UNL     1       5.602   6.204  16.150  0.00  0.00    +0.000 A 
ATOM     17  C   UNL     1       5.194   5.663  14.926  0.00  0.00    +0.000 A 
ATOM     18  C   UNL     1       5.815   4.517  14.429  0.00  0.00    +0.000 A 
ATOM     19 BR   UNL     1       5.267   3.800  12.768  0.00  0.00    +0.000 Br
ATOM     20  C   UNL     1       6.845   3.906  15.140  0.00  0.00    +0.000 A 
ATOM     21  C   UNL     1       7.260   4.451  16.357  0.00  0.00    +0.000 A 
ENDBRANCH  13  15
ENDBRANCH  12  13
ENDBRANCH   1  12
TORSDOF 5
ENDMDL
MODEL 2
REMARK VINA RESULT:      -6.9      1.660      3.062
REMARK  Name = 
REMARK  7 active torsions:
REMARK  status: ('A' for Active; 'I' for Inactive)
REMARK    1  A    between atoms: C_1  and  C_2
REMARK    2  A    between atoms: C_4  and  C_5
REMARK    3  A    between atoms: C_6  and  C_7
REMARK    4  A    between atoms: C_9  and  O_10
REMARK    5  A    between atoms: O_10  and  C_11
REMARK    6  A    between atoms: C_11  and  C_12
REMARK    7  A    between atoms: C_12  and  C_14
REMARK                            x       y       z     vdW  Elec       q    Type
REMARK                         _______ _______ _______ _____ _____    ______ ____
ROOT
ATOM      1  O   UNL     1       6.177   5.774  19.047  0.00  0.00    +0.000 OA
ENDROOT
BRANCH   1   8
ATOM      2  C   UNL     1       4.666   1.371  20.243  0.00  0.00    +0.000 C 
ATOM      3  C   UNL     1       4.394   2.717  19.642  0.00  0.00    +0.000 A 
ATOM      4  C   UNL     1       3.130   3.012  19.131  0.00  0.00    +0.000 A 
ATOM      5  C   UNL     1       2.887   4.271  18.576  0.00  0.00    +0.000 A 
ATOM      6  C   UNL     1       1.529   4.599  18.019  0.00  0.00    +0.000 C 
ATOM      7  C   UNL     1       3.935   5.204  18.558  0.00  0.00    +0.000 A 
ATOM      8  C   UNL     1       5.166   4.834  19.091  0.00  0.00    +0.000 A 
ATOM      9  N   UNL     1       5.419   3.612  19.622  0.00  0.00    +0.000 NA
BRANCH   7  10
ATOM     10  C   UNL     1       3.758   6.504  17.993  0.00  0.00    +0.000 C 
ATOM     11  N   UNL     1       3.563   7.550  17.523  0.00  0.00    +0.000 NA
ENDBRANCH   7  10
ENDBRANCH   1   8
BRANCH   1  12
ATOM     12  C   UNL     1       7.310   5.403  18.275  0.00  0.00    +0.000 C 
BRANCH  12  13
ATOM     13  C   UNL     1       7.195   6.092  16.922  0.00  0.00    +0.000 C 
ATOM     14  O   UNL     1       7.415   7.295  16.777  0.00  0.00    +0.000 OA
BRANCH  13  15
ATOM     15  C   UNL     1       6.817   5.284  15.729  0.00  0.00    +0.000 A 
ATOM     16  C   UNL     1       5.727   4.407  15.742  0.00  0.00    +0.000 A 
ATOM     17  C   UNL     1       5.394   3.690  14.587  0.00  0.00    +0.000 A 
ATOM     18  C   UNL     1       6.152   3.847  13.427  0.00  0.00    +0.000 A 
ATOM     19 BR   UNL     1       5.688   2.886  11.867  0.00  0.00    +0.000 Br
ATOM     20  C   UNL     1       7.239   4.717  13.404  0.00  0.00    +0.000 A 
ATOM     21  C   UNL     1       7.567   5.440  14.553  0.00  0.00    +0.000 A 
ENDBRANCH  13  15
ENDBRANCH  12  13
ENDBRANCH   1  12
TORSDOF 5
ENDMDL
MODEL 3
REMARK VINA RESULT:      -6.9      2.752      4.103
REMARK  Name = 
REMARK  7 active torsions:
REMARK  status: ('A' for Active; 'I' for Inactive)
REMARK    1  A    between atoms: C_1  and  C_2
REMARK    2  A    between atoms: C_4  and  C_5
REMARK    3  A    between atoms: C_6  and  C_7
REMARK    4  A    between atoms: C_9  and  O_10
REMARK    5  A    between atoms: O_10  and  C_11
REMARK    6  A    between atoms: C_11  and  C_12
REMARK    7  A    between atoms: C_12  and  C_14
REMARK                            x       y       z     vdW  Elec       q    Type
REMARK                         _______ _______ _______ _____ _____    ______ ____
ROOT
ATOM      1  O   UNL     1       3.454   4.582  17.414  0.00  0.00    +0.000 OA
ENDROOT
BRANCH   1   8
ATOM      2  C   UNL     1       1.670   2.637  21.430  0.00  0.00    +0.000 C 
ATOM      3  C   UNL     1       1.969   3.846  20.596  0.00  0.00    +0.000 A 
ATOM      4  C   UNL     1       1.637   5.117  21.065  0.00  0.00    +0.000 A 
ATOM      5  C   UNL     1       1.924   6.238  20.281  0.00  0.00    +0.000 A 
ATOM      6  C   UNL     1       1.568   7.614  20.774  0.00  0.00    +0.000 C 
ATOM      7  C   UNL     1       2.548   6.040  19.039  0.00  0.00    +0.000 A 
ATOM      8  C   UNL     1       2.850   4.739  18.646  0.00  0.00    +0.000 A 
ATOM      9  N   UNL     1       2.567   3.643  19.391  0.00  0.00    +0.000 NA
BRANCH   7  10
ATOM     10  C   UNL     1       2.857   7.141  18.183  0.00  0.00    +0.000 C 
ATOM     11  N   UNL     1       3.089   8.069  17.523  0.00  0.00    +0.000 NA
ENDBRANCH   7  10
ENDBRANCH   1   8
BRANCH   1  12
ATOM     12  C   UNL     1       4.387   3.514  17.333  0.00  0.00    +0.000 C 
BRANCH  12  13
ATOM     13  C   UNL     1       5.588   4.006  16.537  0.00  0.00    +0.000 C 
ATOM     14  O   UNL     1       5.971   3.444  15.511  0.00  0.00    +0.000 OA
BRANCH  13  15
ATOM     15  C   UNL     1       6.318   5.219  17.003  0.00  0.00    +0.000 A 
ATOM     16  C   UNL     1       6.124   6.473  16.414  0.00  0.00    +0.000 A 
ATOM     17  C   UNL     1       6.812   7.589  16.905  0.00  0.00    +0.000 A 
ATOM     18  C   UNL     1       7.693   7.447  17.978  0.00  0.00    +0.000 A 
ATOM     19 BR   UNL     1       8.608   8.961  18.644  0.00  0.00    +0.000 Br
ATOM     20  C   UNL     1       7.893   6.203  18.570  0.00  0.00    +0.000 A 
ATOM     21  C   UNL     1       7.200   5.090  18.087  0.00  0.00    +0.000 A 
ENDBRANCH  13  15
ENDBRANCH  12  13
ENDBRANCH   1  12
TORSDOF 5
ENDMDL
MODEL 4
REMARK VINA RESULT:      -6.8      1.116      1.276
REMARK  Name = 
REMARK  7 active torsions:
REMARK  status: ('A' for Active; 'I' for Inactive)
REMARK    1  A    between atoms: C_1  and  C_2
REMARK    2  A    between atoms: C_4  and  C_5
REMARK    3  A    between atoms: C_6  and  C_7
REMARK    4  A    between atoms: C_9  and  O_10
REMARK    5  A    between atoms: O_10  and  C_11
REMARK    6  A    between atoms: C_11  and  C_12
REMARK    7  A    between atoms: C_12  and  C_14
REMARK                            x       y       z     vdW  Elec       q    Type
REMARK                         _______ _______ _______ _____ _____    ______ ____
ROOT
ATOM      1  O   UNL     1       5.774   4.362  19.178  0.00  0.00    +0.000 OA
ENDROOT
BRANCH   1   8
ATOM      2  C   UNL     1       2.128   7.488  19.367  0.00  0.00    +0.000 C 
ATOM      3  C   UNL     1       2.677   6.118  19.629  0.00  0.00    +0.000 A 
ATOM      4  C   UNL     1       1.866   5.139  20.203  0.00  0.00    +0.000 A 
ATOM      5  C   UNL     1       2.387   3.864  20.439  0.00  0.00    +0.000 A 
ATOM      6  C   UNL     1       1.524   2.800  21.060  0.00  0.00    +0.000 C 
ATOM      7  C   UNL     1       3.721   3.613  20.080  0.00  0.00    +0.000 A 
ATOM      8  C   UNL     1       4.462   4.643  19.508  0.00  0.00    +0.000 A 
ATOM      9  N   UNL     1       3.973   5.887  19.285  0.00  0.00    +0.000 NA
BRANCH   7  10
ATOM     10  C   UNL     1       4.319   2.335  20.306  0.00  0.00    +0.000 C 
ATOM     11  N   UNL     1       4.851   1.316  20.475  0.00  0.00    +0.000 NA
ENDBRANCH   7  10
ENDBRANCH   1   8
BRANCH   1  12
ATOM     12  C   UNL     1       6.420   5.352  18.390  0.00  0.00    +0.000 C 
BRANCH  12  13
ATOM     13  C   UNL     1       7.266   4.634  17.348  0.00  0.00    +0.000 C 
ATOM     14  O   UNL     1       8.422   4.273  17.575  0.00  0.00    +0.000 OA
BRANCH  13  15
ATOM     15  C   UNL     1       6.675   4.343  16.011  0.00  0.00    +0.000 A 
ATOM     16  C   UNL     1       5.434   3.712  15.870  0.00  0.00    +0.000 A 
ATOM     17  C   UNL     1       4.907   3.486  14.594  0.00  0.00    +0.000 A 
ATOM     18  C   UNL     1       5.622   3.884  13.464  0.00  0.00    +0.000 A 
ATOM     19 BR   UNL     1       4.898   3.587  11.744  0.00  0.00    +0.000 Br
ATOM     20  C   UNL     1       6.859   4.512  13.594  0.00  0.00    +0.000 A 
ATOM     21  C   UNL     1       7.382   4.747  14.868  0.00  0.00    +0.000 A 
ENDBRANCH  13  15
ENDBRANCH  12  13
ENDBRANCH   1  12
TORSDOF 5
ENDMDL
MODEL 5
REMARK VINA RESULT:      -6.8      3.124      6.260
REMARK  Name = 
REMARK  7 active torsions:
REMARK  status: ('A' for Active; 'I' for Inactive)
REMARK    1  A    between atoms: C_1  and  C_2
REMARK    2  A    between atoms: C_4  and  C_5
REMARK    3  A    between atoms: C_6  and  C_7
REMARK    4  A    between atoms: C_9  and  O_10
REMARK    5  A    between atoms: O_10  and  C_11
REMARK    6  A    between atoms: C_11  and  C_12
REMARK    7  A    between atoms: C_12  and  C_14
REMARK                            x       y       z     vdW  Elec       q    Type
REMARK                         _______ _______ _______ _____ _____    ______ ____
ROOT
ATOM      1  O   UNL     1       4.356   3.043  17.432  0.00  0.00    +0.000 OA
ENDROOT
BRANCH   1   8
ATOM      2  C   UNL     1       6.515   3.928  13.230  0.00  0.00    +0.000 C 
ATOM      3  C   UNL     1       6.304   4.263  14.676  0.00  0.00    +0.000 A 
ATOM      4  C   UNL     1       6.989   5.332  15.253  0.00  0.00    +0.000 A 
ATOM      5  C   UNL     1       6.783   5.637  16.601  0.00  0.00    +0.000 A 
ATOM      6  C   UNL     1       7.518   6.786  17.235  0.00  0.00    +0.000 C 
ATOM      7  C   UNL     1       5.878   4.850  17.330  0.00  0.00    +0.000 A 
ATOM      8  C   UNL     1       5.231   3.803  16.680  0.00  0.00    +0.000 A 
ATOM      9  N   UNL     1       5.432   3.489  15.377  0.00  0.00    +0.000 NA
BRANCH   7  10
ATOM     10  C   UNL     1       5.631   5.100  18.715  0.00  0.00    +0.000 C 
ATOM     11  N   UNL     1       5.384   5.278  19.837  0.00  0.00    +0.000 NA
ENDBRANCH   7  10
ENDBRANCH   1   8
BRANCH   1  12
ATOM     12  C   UNL     1       3.037   2.956  16.913  0.00  0.00    +0.000 C 
BRANCH  12  13
ATOM     13  C   UNL     1       2.070   3.103  18.080  0.00  0.00    +0.000 C 
ATOM     14  O   UNL     1       1.366   2.171  18.471  0.00  0.00    +0.000 OA
BRANCH  13  15
ATOM     15  C   UNL     1       1.980   4.412  18.785  0.00  0.00    +0.000 A 
ATOM     16  C   UNL     1       2.219   5.625  18.129  0.00  0.00    +0.000 A 
ATOM     17  C   UNL     1       2.094   6.832  18.827  0.00  0.00    +0.000 A 
ATOM     18  C   UNL     1       1.737   6.824  20.175  0.00  0.00    +0.000 A 
ATOM     19 BR   UNL     1       1.558   8.459  21.107  0.00  0.00    +0.000 Br
ATOM     20  C   UNL     1       1.499   5.622  20.837  0.00  0.00    +0.000 A 
ATOM     21  C   UNL     1       1.614   4.417  20.139  0.00  0.00    +0.000 A 
ENDBRANCH  13  15
ENDBRANCH  12  13
ENDBRANCH   1  12
TORSDOF 5
ENDMDL
MODEL 6
REMARK VINA RESULT:      -6.8      2.933      5.715
REMARK  Name = 
REMARK  7 active torsions:
REMARK  status: ('A' for Active; 'I' for Inactive)
REMARK    1  A    between atoms: C_1  and  C_2
REMARK    2  A    between atoms: C_4  and  C_5
REMARK    3  A    between atoms: C_6  and  C_7
REMARK    4  A    between atoms: C_9  and  O_10
REMARK    5  A    between atoms: O_10  and  C_11
REMARK    6  A    between atoms: C_11  and  C_12
REMARK    7  A    between atoms: C_12  and  C_14
REMARK                            x       y       z     vdW  Elec       q    Type
REMARK                         _______ _______ _______ _____ _____    ______ ____
ROOT
ATOM      1  O   UNL     1       3.938   3.542  19.801  0.00  0.00    +0.000 OA
ENDROOT
BRANCH   1   8
ATOM      2  C   UNL     1       8.070   5.897  19.107  0.00  0.00    +0.000 C 
ATOM      3  C   UNL     1       6.834   5.254  18.553  0.00  0.00    +0.000 A 
ATOM      4  C   UNL     1       6.614   5.234  17.176  0.00  0.00    +0.000 A 
ATOM      5  C   UNL     1       5.460   4.629  16.669  0.00  0.00    +0.000 A 
ATOM      6  C   UNL     1       5.211   4.605  15.186  0.00  0.00    +0.000 C 
ATOM      7  C   UNL     1       4.559   4.052  17.578  0.00  0.00    +0.000 A 
ATOM      8  C   UNL     1       4.853   4.110  18.937  0.00  0.00    +0.000 A 
ATOM      9  N   UNL     1       5.962   4.705  19.441  0.00  0.00    +0.000 NA
BRANCH   7  10
ATOM     10  C   UNL     1       3.354   3.430  17.128  0.00  0.00    +0.000 C 
ATOM     11  N   UNL     1       2.382   2.885  16.797  0.00  0.00    +0.000 NA
ENDBRANCH   7  10
ENDBRANCH   1   8
BRANCH   1  12
ATOM     12  C   UNL     1       3.349   4.441  20.730  0.00  0.00    +0.000 C 
BRANCH  12  13
ATOM     13  C   UNL     1       2.034   4.925  20.137  0.00  0.00    +0.000 C 
ATOM     14  O   UNL     1       1.076   4.172  19.960  0.00  0.00    +0.000 OA
BRANCH  13  15
ATOM     15  C   UNL     1       1.892   6.363  19.769  0.00  0.00    +0.000 A 
ATOM     16  C   UNL     1       1.416   7.316  20.676  0.00  0.00    +0.000 A 
ATOM     17  C   UNL     1       1.327   8.659  20.294  0.00  0.00    +0.000 A 
ATOM     18  C   UNL     1       1.706   9.044  19.008  0.00  0.00    +0.000 A 
ATOM     19 BR   UNL     1       1.595  10.863  18.503  0.00  0.00    +0.000 Br
ATOM     20  C   UNL     1       2.179   8.102  18.098  0.00  0.00    +0.000 A 
ATOM     21  C   UNL     1       2.278   6.763  18.481  0.00  0.00    +0.000 A 
ENDBRANCH  13  15
ENDBRANCH  12  13
ENDBRANCH   1  12
TORSDOF 5
ENDMDL
MODEL 7
REMARK VINA RESULT:      -6.8      3.110      6.298
REMARK  Name = 
REMARK  7 active torsions:
REMARK  status: ('A' for Active; 'I' for Inactive)
REMARK    1  A    between atoms: C_1  and  C_2
REMARK    2  A    between atoms: C_4  and  C_5
REMARK    3  A    between atoms: C_6  and  C_7
REMARK    4  A    between atoms: C_9  and  O_10
REMARK    5  A    between atoms: O_10  and  C_11
REMARK    6  A    between atoms: C_11  and  C_12
REMARK    7  A    between atoms: C_12  and  C_14
REMARK                            x       y       z     vdW  Elec       q    Type
REMARK                         _______ _______ _______ _____ _____    ______ ____
ROOT
ATOM      1  O   UNL     1       4.414   3.037  17.319  0.00  0.00    +0.000 OA
ENDROOT
BRANCH   1   8
ATOM      2  C   UNL     1       6.609   4.006  13.155  0.00  0.00    +0.000 C 
ATOM      3  C   UNL     1       6.380   4.316  14.603  0.00  0.00    +0.000 A 
ATOM      4  C   UNL     1       7.048   5.383  15.203  0.00  0.00    +0.000 A 
ATOM      5  C   UNL     1       6.825   5.666  16.554  0.00  0.00    +0.000 A 
ATOM      6  C   UNL     1       7.542   6.812  17.213  0.00  0.00    +0.000 C 
ATOM      7  C   UNL     1       5.920   4.859  17.261  0.00  0.00    +0.000 A 
ATOM      8  C   UNL     1       5.290   3.816  16.588  0.00  0.00    +0.000 A 
ATOM      9  N   UNL     1       5.507   3.523  15.283  0.00  0.00    +0.000 NA
BRANCH   7  10
ATOM     10  C   UNL     1       5.655   5.085  18.647  0.00  0.00    +0.000 C 
ATOM     11  N   UNL     1       5.440   5.218  19.782  0.00  0.00    +0.000 NA
ENDBRANCH   7  10
ENDBRANCH   1   8
BRANCH   1  12
ATOM     12  C   UNL     1       3.058   3.106  16.905  0.00  0.00    +0.000 C 
BRANCH  12  13
ATOM     13  C   UNL     1       2.191   3.127  18.156  0.00  0.00    +0.000 C 
ATOM     14  O   UNL     1       1.649   2.113  18.597  0.00  0.00    +0.000 OA
BRANCH  13  15
ATOM     15  C   UNL     1       2.001   4.414  18.883  0.00  0.00    +0.000 A 
ATOM     16  C   UNL     1       1.623   4.456  20.230  0.00  0.00    +0.000 A 
ATOM     17  C   UNL     1       1.485   5.689  20.878  0.00  0.00    +0.000 A 
ATOM     18  C   UNL     1       1.718   6.873  20.179  0.00  0.00    +0.000 A 
ATOM     19 BR   UNL     1       1.542   8.534  21.065  0.00  0.00    +0.000 Br
ATOM     20  C   UNL     1       2.094   6.842  18.839  0.00  0.00    +0.000 A 
ATOM     21  C   UNL     1       2.242   5.612  18.193  0.00  0.00    +0.000 A 
ENDBRANCH  13  15
ENDBRANCH  12  13
ENDBRANCH   1  12
TORSDOF 5
ENDMDL
MODEL 8
REMARK VINA RESULT:      -6.7      4.386      7.372
REMARK  Name = 
REMARK  7 active torsions:
REMARK  status: ('A' for Active; 'I' for Inactive)
REMARK    1  A    between atoms: C_1  and  C_2
REMARK    2  A    between atoms: C_4  and  C_5
REMARK    3  A    between atoms: C_6  and  C_7
REMARK    4  A    between atoms: C_9  and  O_10
REMARK    5  A    between atoms: O_10  and  C_11
REMARK    6  A    between atoms: C_11  and  C_12
REMARK    7  A    between atoms: C_12  and  C_14
REMARK                            x       y       z     vdW  Elec       q    Type
REMARK                         _______ _______ _______ _____ _____    ______ ____
ROOT
ATOM      1  O   UNL     1       3.592   7.311  18.228  0.00  0.00    +0.000 OA
ENDROOT
BRANCH   1   8
ATOM      2  C   UNL     1       2.432   2.708  17.475  0.00  0.00    +0.000 C 
ATOM      3  C   UNL     1       3.426   3.826  17.387  0.00  0.00    +0.000 A 
ATOM      4  C   UNL     1       4.687   3.597  16.838  0.00  0.00    +0.000 A 
ATOM      5  C   UNL     1       5.605   4.648  16.757  0.00  0.00    +0.000 A 
ATOM      6  C   UNL     1       6.970   4.413  16.169  0.00  0.00    +0.000 C 
ATOM      7  C   UNL     1       5.216   5.910  17.231  0.00  0.00    +0.000 A 
ATOM      8  C   UNL     1       3.937   6.057  17.761  0.00  0.00    +0.000 A 
ATOM      9  N   UNL     1       3.042   5.044  17.857  0.00  0.00    +0.000 NA
BRANCH   7  10
ATOM     10  C   UNL     1       6.110   7.024  17.190  0.00  0.00    +0.000 C 
ATOM     11  N   UNL     1       6.877   7.897  17.168  0.00  0.00    +0.000 NA
ENDBRANCH   7  10
ENDBRANCH   1   8
BRANCH   1  12
ATOM     12  C   UNL     1       2.291   7.406  18.789  0.00  0.00    +0.000 C 
BRANCH  12  13
ATOM     13  C   UNL     1       1.796   8.829  18.571  0.00  0.00    +0.000 C 
ATOM     14  O   UNL     1       2.018   9.450  17.531  0.00  0.00    +0.000 OA
BRANCH  13  15
ATOM     15  C   UNL     1       1.001   9.492  19.644  0.00  0.00    +0.000 A 
ATOM     16  C   UNL     1       1.024   9.041  20.969  0.00  0.00    +0.000 A 
ATOM     17  C   UNL     1       0.283   9.714  21.947  0.00  0.00    +0.000 A 
ATOM     18  C   UNL     1      -0.481  10.828  21.599  0.00  0.00    +0.000 A 
ATOM     19 BR   UNL     1      -1.469  11.739  22.929  0.00  0.00    +0.000 Br
ATOM     20  C   UNL     1      -0.511  11.282  20.283  0.00  0.00    +0.000 A 
ATOM     21  C   UNL     1       0.235  10.618  19.307  0.00  0.00    +0.000 A 
ENDBRANCH  13  15
ENDBRANCH  12  13
ENDBRANCH   1  12
TORSDOF 5
ENDMDL
MODEL 9
REMARK VINA RESULT:      -6.7      1.376      2.989
REMARK  Name = 
REMARK  7 active torsions:
REMARK  status: ('A' for Active; 'I' for Inactive)
REMARK    1  A    between atoms: C_1  and  C_2
REMARK    2  A    between atoms: C_4  and  C_5
REMARK    3  A    between atoms: C_6  and  C_7
REMARK    4  A    between atoms: C_9  and  O_10
REMARK    5  A    between atoms: O_10  and  C_11
REMARK    6  A    between atoms: C_11  and  C_12
REMARK    7  A    between atoms: C_12  and  C_14
REMARK                            x       y       z     vdW  Elec       q    Type
REMARK                         _______ _______ _______ _____ _____    ______ ____
ROOT
ATOM      1  O   UNL     1       5.319   5.801  18.321  0.00  0.00    +0.000 OA
ENDROOT
BRANCH   1   8
ATOM      2  C   UNL     1       4.856   1.420  20.244  0.00  0.00    +0.000 C 
ATOM      3  C   UNL     1       4.283   2.772  19.945  0.00  0.00    +0.000 A 
ATOM      4  C   UNL     1       2.990   3.091  20.359  0.00  0.00    +0.000 A 
ATOM      5  C   UNL     1       2.466   4.356  20.078  0.00  0.00    +0.000 A 
ATOM      6  C   UNL     1       1.072   4.709  20.517  0.00  0.00    +0.000 C 
ATOM      7  C   UNL     1       3.275   5.271  19.385  0.00  0.00    +0.000 A 
ATOM      8  C   UNL     1       4.556   4.878  19.010  0.00  0.00    +0.000 A 
ATOM      9  N   UNL     1       5.071   3.650  19.266  0.00  0.00    +0.000 NA
BRANCH   7  10
ATOM     10  C   UNL     1       2.797   6.576  19.055  0.00  0.00    +0.000 C 
ATOM     11  N   UNL     1       2.359   7.620  18.791  0.00  0.00    +0.000 NA
ENDBRANCH   7  10
ENDBRANCH   1   8
BRANCH   1  12
ATOM     12  C   UNL     1       6.662   5.409  18.078  0.00  0.00    +0.000 C 
BRANCH  12  13
ATOM     13  C   UNL     1       7.076   5.984  16.731  0.00  0.00    +0.000 C 
ATOM     14  O   UNL     1       7.685   7.050  16.630  0.00  0.00    +0.000 OA
BRANCH  13  15
ATOM     15  C   UNL     1       6.747   5.229  15.489  0.00  0.00    +0.000 A 
ATOM     16  C   UNL     1       7.484   5.382  14.310  0.00  0.00    +0.000 A 
ATOM     17  C   UNL     1       7.154   4.630  13.177  0.00  0.00    +0.000 A 
ATOM     18  C   UNL     1       6.088   3.732  13.224  0.00  0.00    +0.000 A 
ATOM     19 BR   UNL     1       5.657   2.709  11.694  0.00  0.00    +0.000 Br
ATOM     20  C   UNL     1       5.347   3.573  14.392  0.00  0.00    +0.000 A 
ATOM     21  C   UNL     1       5.681   4.317  15.527  0.00  0.00    +0.000 A 
ENDBRANCH  13  15
ENDBRANCH  12  13
ENDBRANCH   1  12
TORSDOF 5
ENDMDL
