MODEL 1
REMARK VINA RESULT:      -8.5      0.000      0.000
REMARK  Name = 
REMARK  7 active torsions:
REMARK  status: ('A' for Active; 'I' for Inactive)
REMARK    1  A    between atoms: C_1  and  O_2
REMARK    2  A    between atoms: O_2  and  C_3
REMARK    3  A    between atoms: N_9  and  C_10
REMARK    4  A    between atoms: C_10  and  C_11
REMARK    5  A    between atoms: C_11  and  C_12
REMARK    6  A    between atoms: N_15  and  C_16
REMARK    7  A    between atoms: C_16  and  C_17
REMARK                            x       y       z     vdW  Elec       q    Type
REMARK                         _______ _______ _______ _____ _____    ______ ____
ROOT
ATOM      1  C   UNL     1       7.030   8.202  17.510  0.00  0.00    +0.000 C 
ENDROOT
BRANCH   1   2
ATOM      2  C   UNL     1       6.355   6.848  17.517  0.00  0.00    +0.000 A 
ATOM      3  C   UNL     1       5.383   6.537  16.565  0.00  0.00    +0.000 A 
ATOM      4  C   UNL     1       4.702   5.325  16.642  0.00  0.00    +0.000 A 
ATOM      5  N   UNL     1       4.969   4.443  17.634  0.00  0.00    +0.000 N 
ATOM      6  C   UNL     1       5.945   4.703  18.539  0.00  0.00    +0.000 A 
ATOM      7  C   UNL     1       6.645   5.905  18.502  0.00  0.00    +0.000 A 
BRANCH   5   8
ATOM      8  C   UNL     1       4.117   3.241  17.799  0.00  0.00    +0.000 C 
BRANCH   8   9
ATOM      9  C   UNL     1       3.212   3.330  18.982  0.00  0.00    +0.000 A 
ATOM     10  C   UNL     1       1.995   4.003  18.906  0.00  0.00    +0.000 A 
ATOM     11  F   UNL     1       1.658   4.614  17.762  0.00  0.00    +0.000 F 
ATOM     12  C   UNL     1       1.118   4.044  19.987  0.00  0.00    +0.000 A 
ATOM     13  C   UNL     1       1.463   3.407  21.180  0.00  0.00    +0.000 A 
ATOM     14  C   UNL     1       2.684   2.742  21.281  0.00  0.00    +0.000 A 
ATOM     15  C   UNL     1       3.544   2.713  20.185  0.00  0.00    +0.000 A 
ATOM     16  F   UNL     1       4.714   2.069  20.288  0.00  0.00    +0.000 F 
ENDBRANCH   8   9
ENDBRANCH   5   8
ENDBRANCH   1   2
BRANCH   1  17
ATOM     17  C   UNL     1       8.478   8.117  18.015  0.00  0.00    +0.000 C 
BRANCH  17  24
ATOM     18  C   UNL     1      11.029  14.519  19.016  0.00  0.00    +0.000 A 
ATOM     19  C   UNL     1      11.062  14.132  17.679  0.00  0.00    +0.000 A 
ATOM     20  C   UNL     1      10.600  12.870  17.293  0.00  0.00    +0.000 A 
ATOM     21  C   UNL     1      10.103  11.975  18.261  0.00  0.00    +0.000 A 
ATOM     22  N   UNL     1       9.608  10.708  18.010  0.00  0.00    +0.000 NA
ATOM     23  C   UNL     1       9.215  10.148  19.127  0.00  0.00    +0.000 A 
ATOM     24  N   UNL     1       8.664   8.920  19.205  0.00  0.00    +0.000 N 
ATOM     25  S   UNL     1       9.449  11.090  20.544  0.00  0.00    +0.000 S 
ATOM     26  C   UNL     1      10.095  12.372  19.597  0.00  0.00    +0.000 A 
ATOM     27  C   UNL     1      10.562  13.634  19.997  0.00  0.00    +0.000 A 
ATOM     28  H   UNL     1       8.496   8.499  20.111  0.00  0.00    +0.000 HD
BRANCH  18  30
ATOM     29  C   UNL     1      11.120  16.021  20.845  0.00  0.00    +0.000 C 
ATOM     30  O   UNL     1      11.460  15.728  19.492  0.00  0.00    +0.000 OA
ENDBRANCH  18  30
ENDBRANCH  17  24
ENDBRANCH   1  17
TORSDOF 6
ENDMDL
MODEL 2
REMARK VINA RESULT:      -8.3      1.139      1.652
REMARK  Name = 
REMARK  7 active torsions:
REMARK  status: ('A' for Active; 'I' for Inactive)
REMARK    1  A    between atoms: C_1  and  O_2
REMARK    2  A    between atoms: O_2  and  C_3
REMARK    3  A    between atoms: N_9  and  C_10
REMARK    4  A    between atoms: C_10  and  C_11
REMARK    5  A    between atoms: C_11  and  C_12
REMARK    6  A    between atoms: N_15  and  C_16
REMARK    7  A    between atoms: C_16  and  C_17
REMARK                            x       y       z     vdW  Elec       q    Type
REMARK                         _______ _______ _______ _____ _____    ______ ____
ROOT
ATOM      1  C   UNL     1       8.474   7.354  18.427  0.00  0.00    +0.000 C 
ENDROOT
BRANCH   1   2
ATOM      2  C   UNL     1       7.228   6.593  18.033  0.00  0.00    +0.000 A 
ATOM      3  C   UNL     1       6.352   7.114  17.080  0.00  0.00    +0.000 A 
ATOM      4  C   UNL     1       5.161   6.450  16.796  0.00  0.00    +0.000 A 
ATOM      5  N   UNL     1       4.840   5.302  17.439  0.00  0.00    +0.000 N 
ATOM      6  C   UNL     1       5.700   4.751  18.330  0.00  0.00    +0.000 A 
ATOM      7  C   UNL     1       6.898   5.385  18.647  0.00  0.00    +0.000 A 
BRANCH   5   8
ATOM      8  C   UNL     1       3.496   4.706  17.251  0.00  0.00    +0.000 C 
BRANCH   8   9
ATOM      9  C   UNL     1       2.813   4.396  18.541  0.00  0.00    +0.000 A 
ATOM     10  C   UNL     1       2.630   3.080  18.957  0.00  0.00    +0.000 A 
ATOM     11  F   UNL     1       3.038   2.081  18.162  0.00  0.00    +0.000 F 
ATOM     12  C   UNL     1       2.045   2.780  20.185  0.00  0.00    +0.000 A 
ATOM     13  C   UNL     1       1.622   3.816  21.018  0.00  0.00    +0.000 A 
ATOM     14  C   UNL     1       1.781   5.140  20.611  0.00  0.00    +0.000 A 
ATOM     15  C   UNL     1       2.371   5.415  19.380  0.00  0.00    +0.000 A 
ATOM     16  F   UNL     1       2.525   6.689  18.997  0.00  0.00    +0.000 F 
ENDBRANCH   8   9
ENDBRANCH   5   8
ENDBRANCH   1   2
BRANCH   1  17
ATOM     17  C   UNL     1       8.311   8.865  18.202  0.00  0.00    +0.000 C 
BRANCH  17  24
ATOM     18  C   UNL     1      11.581  15.000  18.607  0.00  0.00    +0.000 A 
ATOM     19  C   UNL     1      11.271  14.644  17.297  0.00  0.00    +0.000 A 
ATOM     20  C   UNL     1      10.623  13.435  17.024  0.00  0.00    +0.000 A 
ATOM     21  C   UNL     1      10.285  12.563  18.078  0.00  0.00    +0.000 A 
ATOM     22  N   UNL     1       9.635  11.349  17.944  0.00  0.00    +0.000 NA
ATOM     23  C   UNL     1       9.461  10.798  19.120  0.00  0.00    +0.000 A 
ATOM     24  N   UNL     1       8.837   9.620  19.319  0.00  0.00    +0.000 N 
ATOM     25  S   UNL     1      10.098  11.683  20.447  0.00  0.00    +0.000 S 
ATOM     26  C   UNL     1      10.619  12.927  19.381  0.00  0.00    +0.000 A 
ATOM     27  C   UNL     1      11.276  14.135  19.666  0.00  0.00    +0.000 A 
ATOM     28  H   UNL     1       8.845   9.194  20.238  0.00  0.00    +0.000 HD
BRANCH  18  30
ATOM     29  C   UNL     1      11.548  16.948  19.953  0.00  0.00    +0.000 C 
ATOM     30  O   UNL     1      12.216  16.156  18.974  0.00  0.00    +0.000 OA
ENDBRANCH  18  30
ENDBRANCH  17  24
ENDBRANCH   1  17
TORSDOF 6
ENDMDL
MODEL 3
REMARK VINA RESULT:      -8.1      1.787      2.376
REMARK  Name = 
REMARK  7 active torsions:
REMARK  status: ('A' for Active; 'I' for Inactive)
REMARK    1  A    between atoms: C_1  and  O_2
REMARK    2  A    between atoms: O_2  and  C_3
REMARK    3  A    between atoms: N_9  and  C_10
REMARK    4  A    between atoms: C_10  and  C_11
REMARK    5  A    between atoms: C_11  and  C_12
REMARK    6  A    between atoms: N_15  and  C_16
REMARK    7  A    between atoms: C_16  and  C_17
REMARK                            x       y       z     vdW  Elec       q    Type
REMARK                         _______ _______ _______ _____ _____    ______ ____
ROOT
ATOM      1  C   UNL     1       8.200   7.406  18.309  0.00  0.00    +0.000 C 
ENDROOT
BRANCH   1   2
ATOM      2  C   UNL     1       6.937   6.619  18.036  0.00  0.00    +0.000 A 
ATOM      3  C   UNL     1       6.661   5.454  18.753  0.00  0.00    +0.000 A 
ATOM      4  C   UNL     1       5.546   4.687  18.426  0.00  0.00    +0.000 A 
ATOM      5  N   UNL     1       4.724   5.058  17.415  0.00  0.00    +0.000 N 
ATOM      6  C   UNL     1       4.945   6.214  16.741  0.00  0.00    +0.000 A 
ATOM      7  C   UNL     1       6.051   7.005  17.032  0.00  0.00    +0.000 A 
BRANCH   5   8
ATOM      8  C   UNL     1       3.645   4.144  16.971  0.00  0.00    +0.000 C 
BRANCH   8   9
ATOM      9  C   UNL     1       2.742   3.730  18.084  0.00  0.00    +0.000 A 
ATOM     10  C   UNL     1       2.657   2.397  18.481  0.00  0.00    +0.000 A 
ATOM     11  F   UNL     1       3.369   1.473  17.821  0.00  0.00    +0.000 F 
ATOM     12  C   UNL     1       1.861   2.008  19.555  0.00  0.00    +0.000 A 
ATOM     13  C   UNL     1       1.121   2.967  20.248  0.00  0.00    +0.000 A 
ATOM     14  C   UNL     1       1.179   4.303  19.855  0.00  0.00    +0.000 A 
ATOM     15  C   UNL     1       1.985   4.668  18.779  0.00  0.00    +0.000 A 
ATOM     16  F   UNL     1       2.040   5.955  18.409  0.00  0.00    +0.000 F 
ENDBRANCH   8   9
ENDBRANCH   5   8
ENDBRANCH   1   2
BRANCH   1  17
ATOM     17  C   UNL     1       8.037   8.887  17.936  0.00  0.00    +0.000 C 
BRANCH  17  24
ATOM     18  C   UNL     1       9.233  15.736  18.329  0.00  0.00    +0.000 A 
ATOM     19  C   UNL     1       7.951  15.442  17.875  0.00  0.00    +0.000 A 
ATOM     20  C   UNL     1       7.538  14.114  17.721  0.00  0.00    +0.000 A 
ATOM     21  C   UNL     1       8.426  13.062  18.020  0.00  0.00    +0.000 A 
ATOM     22  N   UNL     1       8.140  11.712  17.923  0.00  0.00    +0.000 NA
ATOM     23  C   UNL     1       9.178  11.003  18.288  0.00  0.00    +0.000 A 
ATOM     24  N   UNL     1       9.201   9.655  18.323  0.00  0.00    +0.000 N 
ATOM     25  S   UNL     1      10.568  11.909  18.733  0.00  0.00    +0.000 S 
ATOM     26  C   UNL     1       9.712  13.375  18.456  0.00  0.00    +0.000 A 
ATOM     27  C   UNL     1      10.140  14.704  18.606  0.00  0.00    +0.000 A 
ATOM     28  H   UNL     1      10.073   9.170  18.498  0.00  0.00    +0.000 HD
BRANCH  18  30
ATOM     29  C   UNL     1       8.876  18.066  18.098  0.00  0.00    +0.000 C 
ATOM     30  O   UNL     1       9.729  17.000  18.507  0.00  0.00    +0.000 OA
ENDBRANCH  18  30
ENDBRANCH  17  24
ENDBRANCH   1  17
TORSDOF 6
ENDMDL
MODEL 4
REMARK VINA RESULT:      -8.0      1.667      1.758
REMARK  Name = 
REMARK  7 active torsions:
REMARK  status: ('A' for Active; 'I' for Inactive)
REMARK    1  A    between atoms: C_1  and  O_2
REMARK    2  A    between atoms: O_2  and  C_3
REMARK    3  A    between atoms: N_9  and  C_10
REMARK    4  A    between atoms: C_10  and  C_11
REMARK    5  A    between atoms: C_11  and  C_12
REMARK    6  A    between atoms: N_15  and  C_16
REMARK    7  A    between atoms: C_16  and  C_17
REMARK                            x       y       z     vdW  Elec       q    Type
REMARK                         _______ _______ _______ _____ _____    ______ ____
ROOT
ATOM      1  C   UNL     1       8.221   7.173  18.440  0.00  0.00    +0.000 C 
ENDROOT
BRANCH   1   2
ATOM      2  C   UNL     1       6.975   6.418  18.032  0.00  0.00    +0.000 A 
ATOM      3  C   UNL     1       6.075   6.976  17.123  0.00  0.00    +0.000 A 
ATOM      4  C   UNL     1       4.886   6.313  16.830  0.00  0.00    +0.000 A 
ATOM      5  N   UNL     1       4.590   5.131  17.420  0.00  0.00    +0.000 N 
ATOM      6  C   UNL     1       5.474   4.546  18.265  0.00  0.00    +0.000 A 
ATOM      7  C   UNL     1       6.670   5.177  18.590  0.00  0.00    +0.000 A 
BRANCH   5   8
ATOM      8  C   UNL     1       3.249   4.529  17.227  0.00  0.00    +0.000 C 
BRANCH   8   9
ATOM      9  C   UNL     1       2.604   4.128  18.511  0.00  0.00    +0.000 A 
ATOM     10  C   UNL     1       2.179   5.085  19.430  0.00  0.00    +0.000 A 
ATOM     11  F   UNL     1       2.395   6.382  19.168  0.00  0.00    +0.000 F 
ATOM     12  C   UNL     1       1.526   4.725  20.606  0.00  0.00    +0.000 A 
ATOM     13  C   UNL     1       1.295   3.376  20.881  0.00  0.00    +0.000 A 
ATOM     14  C   UNL     1       1.728   2.403  19.982  0.00  0.00    +0.000 A 
ATOM     15  C   UNL     1       2.377   2.788  18.812  0.00  0.00    +0.000 A 
ATOM     16  F   UNL     1       2.787   1.848  17.950  0.00  0.00    +0.000 F 
ENDBRANCH   8   9
ENDBRANCH   5   8
ENDBRANCH   1   2
BRANCH   1  17
ATOM     17  C   UNL     1       8.137   8.657  18.052  0.00  0.00    +0.000 C 
BRANCH  17  24
ATOM     18  C   UNL     1       9.203  15.518  18.588  0.00  0.00    +0.000 A 
ATOM     19  C   UNL     1       8.127  15.206  17.762  0.00  0.00    +0.000 A 
ATOM     20  C   UNL     1       7.774  13.873  17.527  0.00  0.00    +0.000 A 
ATOM     21  C   UNL     1       8.513  12.833  18.124  0.00  0.00    +0.000 A 
ATOM     22  N   UNL     1       8.262  11.480  17.984  0.00  0.00    +0.000 NA
ATOM     23  C   UNL     1       9.126  10.785  18.681  0.00  0.00    +0.000 A 
ATOM     24  N   UNL     1       9.125   9.439  18.763  0.00  0.00    +0.000 N 
ATOM     25  S   UNL     1      10.311  11.709  19.513  0.00  0.00    +0.000 S 
ATOM     26  C   UNL     1       9.599  13.163  18.934  0.00  0.00    +0.000 A 
ATOM     27  C   UNL     1       9.967  14.497  19.170  0.00  0.00    +0.000 A 
ATOM     28  H   UNL     1       9.893   8.962  19.219  0.00  0.00    +0.000 HD
BRANCH  18  30
ATOM     29  C   UNL     1       9.915  17.614  17.750  0.00  0.00    +0.000 C 
ATOM     30  O   UNL     1       9.628  16.787  18.874  0.00  0.00    +0.000 OA
ENDBRANCH  18  30
ENDBRANCH  17  24
ENDBRANCH   1  17
TORSDOF 6
ENDMDL
MODEL 5
REMARK VINA RESULT:      -8.0      5.213     11.400
REMARK  Name = 
REMARK  7 active torsions:
REMARK  status: ('A' for Active; 'I' for Inactive)
REMARK    1  A    between atoms: C_1  and  O_2
REMARK    2  A    between atoms: O_2  and  C_3
REMARK    3  A    between atoms: N_9  and  C_10
REMARK    4  A    between atoms: C_10  and  C_11
REMARK    5  A    between atoms: C_11  and  C_12
REMARK    6  A    between atoms: N_15  and  C_16
REMARK    7  A    between atoms: C_16  and  C_17
REMARK                            x       y       z     vdW  Elec       q    Type
REMARK                         _______ _______ _______ _____ _____    ______ ____
ROOT
ATOM      1  C   UNL     1       8.651   8.570  18.452  0.00  0.00    +0.000 C 
ENDROOT
BRANCH   1   2
ATOM      2  C   UNL     1       8.972  10.006  18.804  0.00  0.00    +0.000 A 
ATOM      3  C   UNL     1       9.103  10.395  20.138  0.00  0.00    +0.000 A 
ATOM      4  C   UNL     1       9.303  11.737  20.451  0.00  0.00    +0.000 A 
ATOM      5  N   UNL     1       9.368  12.673  19.474  0.00  0.00    +0.000 N 
ATOM      6  C   UNL     1       9.296  12.309  18.170  0.00  0.00    +0.000 A 
ATOM      7  C   UNL     1       9.090  10.980  17.814  0.00  0.00    +0.000 A 
BRANCH   5   8
ATOM      8  C   UNL     1       9.408  14.110  19.834  0.00  0.00    +0.000 C 
BRANCH   8   9
ATOM      9  C   UNL     1      10.196  14.929  18.867  0.00  0.00    +0.000 A 
ATOM     10  C   UNL     1       9.561  15.722  17.915  0.00  0.00    +0.000 A 
ATOM     11  F   UNL     1       8.222  15.712  17.845  0.00  0.00    +0.000 F 
ATOM     12  C   UNL     1      10.285  16.533  17.044  0.00  0.00    +0.000 A 
ATOM     13  C   UNL     1      11.678  16.550  17.115  0.00  0.00    +0.000 A 
ATOM     14  C   UNL     1      12.333  15.750  18.051  0.00  0.00    +0.000 A 
ATOM     15  C   UNL     1      11.587  14.949  18.912  0.00  0.00    +0.000 A 
ATOM     16  F   UNL     1      12.222  14.185  19.811  0.00  0.00    +0.000 F 
ENDBRANCH   8   9
ENDBRANCH   5   8
ENDBRANCH   1   2
BRANCH   1  17
ATOM     17  C   UNL     1       7.471   8.476  17.473  0.00  0.00    +0.000 C 
BRANCH  17  24
ATOM     18  C   UNL     1       2.518   3.595  17.844  0.00  0.00    +0.000 A 
ATOM     19  C   UNL     1       2.202   4.735  18.577  0.00  0.00    +0.000 A 
ATOM     20  C   UNL     1       3.088   5.816  18.628  0.00  0.00    +0.000 A 
ATOM     21  C   UNL     1       4.316   5.753  17.939  0.00  0.00    +0.000 A 
ATOM     22  N   UNL     1       5.271   6.753  17.898  0.00  0.00    +0.000 NA
ATOM     23  C   UNL     1       6.285   6.379  17.158  0.00  0.00    +0.000 A 
ATOM     24  N   UNL     1       7.364   7.147  16.909  0.00  0.00    +0.000 N 
ATOM     25  S   UNL     1       6.170   4.797  16.500  0.00  0.00    +0.000 S 
ATOM     26  C   UNL     1       4.624   4.597  17.225  0.00  0.00    +0.000 A 
ATOM     27  C   UNL     1       3.745   3.503  17.173  0.00  0.00    +0.000 A 
ATOM     28  H   UNL     1       8.165   6.752  16.431  0.00  0.00    +0.000 HD
BRANCH  18  30
ATOM     29  C   UNL     1       0.667   2.386  18.692  0.00  0.00    +0.000 C 
ATOM     30  O   UNL     1       1.720   2.488  17.737  0.00  0.00    +0.000 OA
ENDBRANCH  18  30
ENDBRANCH  17  24
ENDBRANCH   1  17
TORSDOF 6
ENDMDL
MODEL 6
REMARK VINA RESULT:      -7.9      5.277     11.343
REMARK  Name = 
REMARK  7 active torsions:
REMARK  status: ('A' for Active; 'I' for Inactive)
REMARK    1  A    between atoms: C_1  and  O_2
REMARK    2  A    between atoms: O_2  and  C_3
REMARK    3  A    between atoms: N_9  and  C_10
REMARK    4  A    between atoms: C_10  and  C_11
REMARK    5  A    between atoms: C_11  and  C_12
REMARK    6  A    between atoms: N_15  and  C_16
REMARK    7  A    between atoms: C_16  and  C_17
REMARK                            x       y       z     vdW  Elec       q    Type
REMARK                         _______ _______ _______ _____ _____    ______ ____
ROOT
ATOM      1  C   UNL     1       8.815   9.266  18.773  0.00  0.00    +0.000 C 
ENDROOT
BRANCH   1   2
ATOM      2  C   UNL     1       9.323  10.691  18.784  0.00  0.00    +0.000 A 
ATOM      3  C   UNL     1       8.832  11.625  17.870  0.00  0.00    +0.000 A 
ATOM      4  C   UNL     1       9.376  12.905  17.828  0.00  0.00    +0.000 A 
ATOM      5  N   UNL     1      10.383  13.257  18.664  0.00  0.00    +0.000 N 
ATOM      6  C   UNL     1      10.838  12.382  19.594  0.00  0.00    +0.000 A 
ATOM      7  C   UNL     1      10.326  11.091  19.666  0.00  0.00    +0.000 A 
BRANCH   5   8
ATOM      8  C   UNL     1      11.063  14.562  18.487  0.00  0.00    +0.000 C 
BRANCH   8   9
ATOM      9  C   UNL     1      10.232  15.714  18.944  0.00  0.00    +0.000 A 
ATOM     10  C   UNL     1       9.605  16.554  18.027  0.00  0.00    +0.000 A 
ATOM     11  F   UNL     1       9.790  16.343  16.716  0.00  0.00    +0.000 F 
ATOM     12  C   UNL     1       8.782  17.599  18.442  0.00  0.00    +0.000 A 
ATOM     13  C   UNL     1       8.584  17.821  19.805  0.00  0.00    +0.000 A 
ATOM     14  C   UNL     1       9.217  17.001  20.739  0.00  0.00    +0.000 A 
ATOM     15  C   UNL     1      10.033  15.962  20.299  0.00  0.00    +0.000 A 
ATOM     16  F   UNL     1      10.635  15.175  21.202  0.00  0.00    +0.000 F 
ENDBRANCH   8   9
ENDBRANCH   5   8
ENDBRANCH   1   2
BRANCH   1  17
ATOM     17  C   UNL     1       7.771   9.045  17.668  0.00  0.00    +0.000 C 
BRANCH  17  24
ATOM     18  C   UNL     1       2.933   4.042  17.422  0.00  0.00    +0.000 A 
ATOM     19  C   UNL     1       2.460   5.217  18.001  0.00  0.00    +0.000 A 
ATOM     20  C   UNL     1       3.299   6.326  18.145  0.00  0.00    +0.000 A 
ATOM     21  C   UNL     1       4.637   6.258  17.709  0.00  0.00    +0.000 A 
ATOM     22  N   UNL     1       5.563   7.283  17.783  0.00  0.00    +0.000 NA
ATOM     23  C   UNL     1       6.708   6.895  17.279  0.00  0.00    +0.000 A 
ATOM     24  N   UNL     1       7.800   7.680  17.188  0.00  0.00    +0.000 N 
ATOM     25  S   UNL     1       6.752   5.271  16.721  0.00  0.00    +0.000 S 
ATOM     26  C   UNL     1       5.099   5.069  17.149  0.00  0.00    +0.000 A 
ATOM     27  C   UNL     1       4.267   3.946  17.006  0.00  0.00    +0.000 A 
ATOM     28  H   UNL     1       8.686   7.280  16.900  0.00  0.00    +0.000 HD
BRANCH  18  30
ATOM     29  C   UNL     1       1.504   2.423  18.393  0.00  0.00    +0.000 C 
ATOM     30  O   UNL     1       2.192   2.906  17.241  0.00  0.00    +0.000 OA
ENDBRANCH  18  30
ENDBRANCH  17  24
ENDBRANCH   1  17
TORSDOF 6
ENDMDL
MODEL 7
REMARK VINA RESULT:      -7.9      1.975      2.175
REMARK  Name = 
REMARK  7 active torsions:
REMARK  status: ('A' for Active; 'I' for Inactive)
REMARK    1  A    between atoms: C_1  and  O_2
REMARK    2  A    between atoms: O_2  and  C_3
REMARK    3  A    between atoms: N_9  and  C_10
REMARK    4  A    between atoms: C_10  and  C_11
REMARK    5  A    between atoms: C_11  and  C_12
REMARK    6  A    between atoms: N_15  and  C_16
REMARK    7  A    between atoms: C_16  and  C_17
REMARK                            x       y       z     vdW  Elec       q    Type
REMARK                         _______ _______ _______ _____ _____    ______ ____
ROOT
ATOM      1  C   UNL     1       8.597   8.165  18.597  0.00  0.00    +0.000 C 
ENDROOT
BRANCH   1   2
ATOM      2  C   UNL     1       7.563   7.126  18.223  0.00  0.00    +0.000 A 
ATOM      3  C   UNL     1       6.591   7.410  17.263  0.00  0.00    +0.000 A 
ATOM      4  C   UNL     1       5.588   6.481  16.998  0.00  0.00    +0.000 A 
ATOM      5  N   UNL     1       5.543   5.303  17.664  0.00  0.00    +0.000 N 
ATOM      6  C   UNL     1       6.507   4.985  18.562  0.00  0.00    +0.000 A 
ATOM      7  C   UNL     1       7.523   5.887  18.861  0.00  0.00    +0.000 A 
BRANCH   5   8
ATOM      8  C   UNL     1       4.375   4.406  17.492  0.00  0.00    +0.000 C 
BRANCH   8   9
ATOM      9  C   UNL     1       3.542   4.296  18.726  0.00  0.00    +0.000 A 
ATOM     10  C   UNL     1       2.644   5.301  19.076  0.00  0.00    +0.000 A 
ATOM     11  F   UNL     1       2.562   6.399  18.311  0.00  0.00    +0.000 F 
ATOM     12  C   UNL     1       1.821   5.184  20.194  0.00  0.00    +0.000 A 
ATOM     13  C   UNL     1       1.900   4.041  20.991  0.00  0.00    +0.000 A 
ATOM     14  C   UNL     1       2.805   3.032  20.666  0.00  0.00    +0.000 A 
ATOM     15  C   UNL     1       3.616   3.171  19.542  0.00  0.00    +0.000 A 
ATOM     16  F   UNL     1       4.481   2.196  19.234  0.00  0.00    +0.000 F 
ENDBRANCH   8   9
ENDBRANCH   5   8
ENDBRANCH   1   2
BRANCH   1  17
ATOM     17  C   UNL     1       8.326   9.509  17.906  0.00  0.00    +0.000 C 
BRANCH  17  24
ATOM     18  C   UNL     1       8.901  16.447  18.097  0.00  0.00    +0.000 A 
ATOM     19  C   UNL     1       7.583  16.023  17.957  0.00  0.00    +0.000 A 
ATOM     20  C   UNL     1       7.279  14.659  17.888  0.00  0.00    +0.000 A 
ATOM     21  C   UNL     1       8.311  13.703  17.953  0.00  0.00    +0.000 A 
ATOM     22  N   UNL     1       8.145  12.330  17.907  0.00  0.00    +0.000 NA
ATOM     23  C   UNL     1       9.305  11.731  18.006  0.00  0.00    +0.000 A 
ATOM     24  N   UNL     1       9.468  10.393  18.016  0.00  0.00    +0.000 N 
ATOM     25  S   UNL     1      10.664  12.775  18.120  0.00  0.00    +0.000 S 
ATOM     26  C   UNL     1       9.627  14.146  18.074  0.00  0.00    +0.000 A 
ATOM     27  C   UNL     1       9.945  15.513  18.137  0.00  0.00    +0.000 A 
ATOM     28  H   UNL     1      10.399   9.998  17.971  0.00  0.00    +0.000 HD
BRANCH  18  30
ATOM     29  C   UNL     1      10.493  18.082  17.462  0.00  0.00    +0.000 C 
ATOM     30  O   UNL     1       9.299  17.755  18.169  0.00  0.00    +0.000 OA
ENDBRANCH  18  30
ENDBRANCH  17  24
ENDBRANCH   1  17
TORSDOF 6
ENDMDL
MODEL 8
REMARK VINA RESULT:      -7.8      7.821     10.301
REMARK  Name = 
REMARK  7 active torsions:
REMARK  status: ('A' for Active; 'I' for Inactive)
REMARK    1  A    between atoms: C_1  and  O_2
REMARK    2  A    between atoms: O_2  and  C_3
REMARK    3  A    between atoms: N_9  and  C_10
REMARK    4  A    between atoms: C_10  and  C_11
REMARK    5  A    between atoms: C_11  and  C_12
REMARK    6  A    between atoms: N_15  and  C_16
REMARK    7  A    between atoms: C_16  and  C_17
REMARK                            x       y       z     vdW  Elec       q    Type
REMARK                         _______ _______ _______ _____ _____    ______ ____
ROOT
ATOM      1  C   UNL     1       0.492   9.889  21.329  0.00  0.00    +0.000 C 
ENDROOT
BRANCH   1   2
ATOM      2  C   UNL     1       1.137   8.876  20.409  0.00  0.00    +0.000 A 
ATOM      3  C   UNL     1       1.577   7.648  20.907  0.00  0.00    +0.000 A 
ATOM      4  C   UNL     1       2.255   6.765  20.070  0.00  0.00    +0.000 A 
ATOM      5  N   UNL     1       2.496   7.084  18.777  0.00  0.00    +0.000 N 
ATOM      6  C   UNL     1       2.031   8.248  18.260  0.00  0.00    +0.000 A 
ATOM      7  C   UNL     1       1.355   9.162  19.062  0.00  0.00    +0.000 A 
BRANCH   5   8
ATOM      8  C   UNL     1       3.365   6.211  17.953  0.00  0.00    +0.000 C 
BRANCH   8   9
ATOM      9  C   UNL     1       3.182   4.761  18.256  0.00  0.00    +0.000 A 
ATOM     10  C   UNL     1       4.143   4.051  18.972  0.00  0.00    +0.000 A 
ATOM     11  F   UNL     1       5.265   4.676  19.355  0.00  0.00    +0.000 F 
ATOM     12  C   UNL     1       3.958   2.712  19.309  0.00  0.00    +0.000 A 
ATOM     13  C   UNL     1       2.790   2.058  18.915  0.00  0.00    +0.000 A 
ATOM     14  C   UNL     1       1.824   2.747  18.183  0.00  0.00    +0.000 A 
ATOM     15  C   UNL     1       2.031   4.086  17.861  0.00  0.00    +0.000 A 
ATOM     16  F   UNL     1       1.097   4.743  17.160  0.00  0.00    +0.000 F 
ENDBRANCH   8   9
ENDBRANCH   5   8
ENDBRANCH   1   2
BRANCH   1  17
ATOM     17  C   UNL     1       0.430  11.282  20.683  0.00  0.00    +0.000 C 
BRANCH  17  24
ATOM     18  C   UNL     1      -5.826  12.131  17.745  0.00  0.00    +0.000 A 
ATOM     19  C   UNL     1      -4.966  11.367  16.961  0.00  0.00    +0.000 A 
ATOM     20  C   UNL     1      -3.660  11.104  17.389  0.00  0.00    +0.000 A 
ATOM     21  C   UNL     1      -3.204  11.619  18.618  0.00  0.00    +0.000 A 
ATOM     22  N   UNL     1      -1.946  11.423  19.158  0.00  0.00    +0.000 NA
ATOM     23  C   UNL     1      -1.854  12.026  20.318  0.00  0.00    +0.000 A 
ATOM     24  N   UNL     1      -0.756  11.999  21.100  0.00  0.00    +0.000 N 
ATOM     25  S   UNL     1      -3.253  12.891  20.809  0.00  0.00    +0.000 S 
ATOM     26  C   UNL     1      -4.073  12.397  19.381  0.00  0.00    +0.000 A 
ATOM     27  C   UNL     1      -5.384  12.674  18.958  0.00  0.00    +0.000 A 
ATOM     28  H   UNL     1      -0.710  12.586  21.924  0.00  0.00    +0.000 HD
BRANCH  18  30
ATOM     29  C   UNL     1      -7.808  13.286  18.332  0.00  0.00    +0.000 C 
ATOM     30  O   UNL     1      -7.116  12.445  17.412  0.00  0.00    +0.000 OA
ENDBRANCH  18  30
ENDBRANCH  17  24
ENDBRANCH   1  17
TORSDOF 6
ENDMDL
MODEL 9
REMARK VINA RESULT:      -7.8      5.198     10.944
REMARK  Name = 
REMARK  7 active torsions:
REMARK  status: ('A' for Active; 'I' for Inactive)
REMARK    1  A    between atoms: C_1  and  O_2
REMARK    2  A    between atoms: O_2  and  C_3
REMARK    3  A    between atoms: N_9  and  C_10
REMARK    4  A    between atoms: C_10  and  C_11
REMARK    5  A    between atoms: C_11  and  C_12
REMARK    6  A    between atoms: N_15  and  C_16
REMARK    7  A    between atoms: C_16  and  C_17
REMARK                            x       y       z     vdW  Elec       q    Type
REMARK                         _______ _______ _______ _____ _____    ______ ____
ROOT
ATOM      1  C   UNL     1       8.584   8.780  18.770  0.00  0.00    +0.000 C 
ENDROOT
BRANCH   1   2
ATOM      2  C   UNL     1       9.125  10.188  18.881  0.00  0.00    +0.000 A 
ATOM      3  C   UNL     1       9.708  10.630  20.069  0.00  0.00    +0.000 A 
ATOM      4  C   UNL     1      10.115  11.957  20.189  0.00  0.00    +0.000 A 
ATOM      5  N   UNL     1       9.947  12.827  19.165  0.00  0.00    +0.000 N 
ATOM      6  C   UNL     1       9.430  12.406  17.985  0.00  0.00    +0.000 A 
ATOM      7  C   UNL     1       9.006  11.090  17.825  0.00  0.00    +0.000 A 
BRANCH   5   8
ATOM      8  C   UNL     1      10.225  14.268  19.372  0.00  0.00    +0.000 C 
BRANCH   8   9
ATOM      9  C   UNL     1       9.061  15.007  19.942  0.00  0.00    +0.000 A 
ATOM     10  C   UNL     1       8.909  15.153  21.319  0.00  0.00    +0.000 A 
ATOM     11  F   UNL     1       9.802  14.581  22.139  0.00  0.00    +0.000 F 
ATOM     12  C   UNL     1       7.857  15.888  21.861  0.00  0.00    +0.000 A 
ATOM     13  C   UNL     1       6.927  16.488  21.012  0.00  0.00    +0.000 A 
ATOM     14  C   UNL     1       7.053  16.340  19.632  0.00  0.00    +0.000 A 
ATOM     15  C   UNL     1       8.114  15.602  19.114  0.00  0.00    +0.000 A 
ATOM     16  F   UNL     1       8.232  15.466  17.786  0.00  0.00    +0.000 F 
ENDBRANCH   8   9
ENDBRANCH   5   8
ENDBRANCH   1   2
BRANCH   1  17
ATOM     17  C   UNL     1       7.829   8.565  17.450  0.00  0.00    +0.000 C 
BRANCH  17  24
ATOM     18  C   UNL     1       2.737   3.814  17.545  0.00  0.00    +0.000 A 
ATOM     19  C   UNL     1       2.319   5.058  18.010  0.00  0.00    +0.000 A 
ATOM     20  C   UNL     1       3.213   6.131  18.074  0.00  0.00    +0.000 A 
ATOM     21  C   UNL     1       4.552   5.957  17.672  0.00  0.00    +0.000 A 
ATOM     22  N   UNL     1       5.530   6.936  17.674  0.00  0.00    +0.000 NA
ATOM     23  C   UNL     1       6.660   6.446  17.228  0.00  0.00    +0.000 A 
ATOM     24  N   UNL     1       7.793   7.163  17.090  0.00  0.00    +0.000 N 
ATOM     25  S   UNL     1       6.627   4.779  16.815  0.00  0.00    +0.000 S 
ATOM     26  C   UNL     1       4.959   4.700  17.227  0.00  0.00    +0.000 A 
ATOM     27  C   UNL     1       4.071   3.614  17.165  0.00  0.00    +0.000 A 
ATOM     28  H   UNL     1       8.661   6.695  16.856  0.00  0.00    +0.000 HD
BRANCH  18  30
ATOM     29  C   UNL     1       1.452   2.184  18.683  0.00  0.00    +0.000 C 
ATOM     30  O   UNL     1       1.940   2.706  17.450  0.00  0.00    +0.000 OA
ENDBRANCH  18  30
ENDBRANCH  17  24
ENDBRANCH   1  17
TORSDOF 6
ENDMDL
