MODEL 1
REMARK VINA RESULT:      -6.1      0.000      0.000
REMARK  Name = 
REMARK  7 active torsions:
REMARK  status: ('A' for Active; 'I' for Inactive)
REMARK    1  A    between atoms: C_1  and  C_2
REMARK    2  A    between atoms: C_2  and  C_3
REMARK    3  A    between atoms: C_3  and  C_4
REMARK    4  A    between atoms: C_4  and  C_5
REMARK    5  A    between atoms: C_5  and  N_6
REMARK    6  A    between atoms: C_10  and  S_11
REMARK    7  A    between atoms: S_11  and  N_12
REMARK                            x       y       z     vdW  Elec       q    Type
REMARK                         _______ _______ _______ _____ _____    ______ ____
ROOT
ATOM      1  N   UNL     1       2.533   3.801  17.768  0.00  0.00    +0.000 N 
ATOM      2  C   UNL     1       3.488   2.860  17.486  0.00  0.00    +0.000 A 
ATOM      3  N   UNL     1       4.667   3.401  17.261  0.00  0.00    +0.000 NA
ATOM      4  C   UNL     1       4.460   4.760  17.396  0.00  0.00    +0.000 A 
ATOM      5  C   UNL     1       5.295   5.872  17.300  0.00  0.00    +0.000 A 
ATOM      6  N   UNL     1       4.799   7.115  17.531  0.00  0.00    +0.000 NA
ATOM      7  C   UNL     1       3.489   7.221  17.815  0.00  0.00    +0.000 A 
ATOM      8  N   UNL     1       2.579   6.232  17.928  0.00  0.00    +0.000 NA
ATOM      9  C   UNL     1       3.134   5.027  17.710  0.00  0.00    +0.000 A 
ENDROOT
BRANCH   5  10
ATOM     10  S   UNL     1       7.063   5.741  17.070  0.00  0.00    +0.000 S 
ATOM     11  O   UNL     1       7.378   5.423  15.569  0.00  0.00    +0.000 OA
BRANCH  10  12
ATOM     12  N   UNL     1       7.271   4.406  18.040  0.00  0.00    +0.000 NA
ATOM     13  H   UNL     1       6.430   4.041  18.486  0.00  0.00    +0.000 HD
ATOM     14  H   UNL     1       7.979   4.511  18.759  0.00  0.00    +0.000 HD
ENDBRANCH  10  12
ENDBRANCH   5  10
BRANCH   1  15
ATOM     15  C   UNL     1       1.145   3.530  18.073  0.00  0.00    +0.000 C 
BRANCH  15  16
ATOM     16  C   UNL     1       0.952   3.014  19.502  0.00  0.00    +0.000 C 
BRANCH  16  17
ATOM     17  C   UNL     1       0.987   4.145  20.528  0.00  0.00    +0.000 C 
BRANCH  17  19
ATOM     18  C   UNL     1       2.729   2.587  21.472  0.00  0.00    +0.000 C 
ATOM     19  C   UNL     1       2.205   4.014  21.441  0.00  0.00    +0.000 C 
ENDBRANCH  17  19
ENDBRANCH  16  17
ENDBRANCH  15  16
ENDBRANCH   1  15
TORSDOF 6
ENDMDL
MODEL 2
REMARK VINA RESULT:      -6.1      1.916      2.371
REMARK  Name = 
REMARK  7 active torsions:
REMARK  status: ('A' for Active; 'I' for Inactive)
REMARK    1  A    between atoms: C_1  and  C_2
REMARK    2  A    between atoms: C_2  and  C_3
REMARK    3  A    between atoms: C_3  and  C_4
REMARK    4  A    between atoms: C_4  and  C_5
REMARK    5  A    between atoms: C_5  and  N_6
REMARK    6  A    between atoms: C_10  and  S_11
REMARK    7  A    between atoms: S_11  and  N_12
REMARK                            x       y       z     vdW  Elec       q    Type
REMARK                         _______ _______ _______ _____ _____    ______ ____
ROOT
ATOM      1  N   UNL     1       4.297   3.176  18.146  0.00  0.00    +0.000 N 
ATOM      2  C   UNL     1       4.717   3.572  19.388  0.00  0.00    +0.000 A 
ATOM      3  N   UNL     1       5.524   4.610  19.331  0.00  0.00    +0.000 NA
ATOM      4  C   UNL     1       5.638   4.893  17.984  0.00  0.00    +0.000 A 
ATOM      5  C   UNL     1       6.323   5.869  17.262  0.00  0.00    +0.000 A 
ATOM      6  N   UNL     1       6.205   5.921  15.910  0.00  0.00    +0.000 NA
ATOM      7  C   UNL     1       5.443   4.987  15.314  0.00  0.00    +0.000 A 
ATOM      8  N   UNL     1       4.740   3.992  15.893  0.00  0.00    +0.000 NA
ATOM      9  C   UNL     1       4.880   4.007  17.230  0.00  0.00    +0.000 A 
ENDROOT
BRANCH   5  10
ATOM     10  S   UNL     1       7.219   7.203  18.044  0.00  0.00    +0.000 S 
ATOM     11  O   UNL     1       8.080   7.959  16.975  0.00  0.00    +0.000 OA
BRANCH  10  12
ATOM     12  N   UNL     1       8.157   6.240  19.022  0.00  0.00    +0.000 NA
ATOM     13  H   UNL     1       8.450   6.650  19.909  0.00  0.00    +0.000 HD
ATOM     14  H   UNL     1       8.983   5.857  18.573  0.00  0.00    +0.000 HD
ENDBRANCH  10  12
ENDBRANCH   5  10
BRANCH   1  15
ATOM     15  C   UNL     1       3.395   2.078  17.870  0.00  0.00    +0.000 C 
BRANCH  15  16
ATOM     16  C   UNL     1       2.303   1.938  18.933  0.00  0.00    +0.000 C 
BRANCH  16  17
ATOM     17  C   UNL     1       1.197   2.978  18.757  0.00  0.00    +0.000 C 
BRANCH  17  19
ATOM     18  C   UNL     1       1.380   2.912  21.270  0.00  0.00    +0.000 C 
ATOM     19  C   UNL     1       0.941   3.726  20.064  0.00  0.00    +0.000 C 
ENDBRANCH  17  19
ENDBRANCH  16  17
ENDBRANCH  15  16
ENDBRANCH   1  15
TORSDOF 6
ENDMDL
MODEL 3
REMARK VINA RESULT:      -6.1      3.613      5.676
REMARK  Name = 
REMARK  7 active torsions:
REMARK  status: ('A' for Active; 'I' for Inactive)
REMARK    1  A    between atoms: C_1  and  C_2
REMARK    2  A    between atoms: C_2  and  C_3
REMARK    3  A    between atoms: C_3  and  C_4
REMARK    4  A    between atoms: C_4  and  C_5
REMARK    5  A    between atoms: C_5  and  N_6
REMARK    6  A    between atoms: C_10  and  S_11
REMARK    7  A    between atoms: S_11  and  N_12
REMARK                            x       y       z     vdW  Elec       q    Type
REMARK                         _______ _______ _______ _____ _____    ______ ____
ROOT
ATOM      1  N   UNL     1       4.999   5.381  18.269  0.00  0.00    +0.000 N 
ATOM      2  C   UNL     1       5.272   4.054  18.473  0.00  0.00    +0.000 A 
ATOM      3  N   UNL     1       4.395   3.485  19.273  0.00  0.00    +0.000 NA
ATOM      4  C   UNL     1       3.517   4.497  19.609  0.00  0.00    +0.000 A 
ATOM      5  C   UNL     1       2.371   4.551  20.401  0.00  0.00    +0.000 A 
ATOM      6  N   UNL     1       1.677   5.713  20.511  0.00  0.00    +0.000 NA
ATOM      7  C   UNL     1       2.156   6.790  19.865  0.00  0.00    +0.000 A 
ATOM      8  N   UNL     1       3.250   6.872  19.079  0.00  0.00    +0.000 NA
ATOM      9  C   UNL     1       3.881   5.687  18.993  0.00  0.00    +0.000 A 
ENDROOT
BRANCH   5  10
ATOM     10  S   UNL     1       1.638   3.101  21.146  0.00  0.00    +0.000 S 
ATOM     11  O   UNL     1       2.650   2.456  22.153  0.00  0.00    +0.000 OA
BRANCH  10  12
ATOM     12  N   UNL     1       1.519   2.219  19.742  0.00  0.00    +0.000 NA
ATOM     13  H   UNL     1       2.398   1.996  19.276  0.00  0.00    +0.000 HD
ATOM     14  H   UNL     1       0.894   2.613  19.046  0.00  0.00    +0.000 HD
ENDBRANCH  10  12
ENDBRANCH   5  10
BRANCH   1  15
ATOM     15  C   UNL     1       5.764   6.281  17.433  0.00  0.00    +0.000 C 
BRANCH  15  16
ATOM     16  C   UNL     1       7.268   6.009  17.507  0.00  0.00    +0.000 C 
BRANCH  16  17
ATOM     17  C   UNL     1       8.009   7.100  18.279  0.00  0.00    +0.000 C 
BRANCH  17  19
ATOM     18  C   UNL     1       8.585   9.554  18.339  0.00  0.00    +0.000 C 
ATOM     19  C   UNL     1       7.790   8.468  17.632  0.00  0.00    +0.000 C 
ENDBRANCH  17  19
ENDBRANCH  16  17
ENDBRANCH  15  16
ENDBRANCH   1  15
TORSDOF 6
ENDMDL
MODEL 4
REMARK VINA RESULT:      -6.0      2.167      2.439
REMARK  Name = 
REMARK  7 active torsions:
REMARK  status: ('A' for Active; 'I' for Inactive)
REMARK    1  A    between atoms: C_1  and  C_2
REMARK    2  A    between atoms: C_2  and  C_3
REMARK    3  A    between atoms: C_3  and  C_4
REMARK    4  A    between atoms: C_4  and  C_5
REMARK    5  A    between atoms: C_5  and  N_6
REMARK    6  A    between atoms: C_10  and  S_11
REMARK    7  A    between atoms: S_11  and  N_12
REMARK                            x       y       z     vdW  Elec       q    Type
REMARK                         _______ _______ _______ _____ _____    ______ ____
ROOT
ATOM      1  N   UNL     1       3.730   2.988  18.170  0.00  0.00    +0.000 N 
ATOM      2  C   UNL     1       4.309   2.820  19.400  0.00  0.00    +0.000 A 
ATOM      3  N   UNL     1       5.435   3.493  19.514  0.00  0.00    +0.000 NA
ATOM      4  C   UNL     1       5.594   4.120  18.294  0.00  0.00    +0.000 A 
ATOM      5  C   UNL     1       6.560   4.981  17.776  0.00  0.00    +0.000 A 
ATOM      6  N   UNL     1       6.420   5.481  16.521  0.00  0.00    +0.000 NA
ATOM      7  C   UNL     1       5.351   5.086  15.807  0.00  0.00    +0.000 A 
ATOM      8  N   UNL     1       4.357   4.257  16.186  0.00  0.00    +0.000 NA
ATOM      9  C   UNL     1       4.540   3.814  17.442  0.00  0.00    +0.000 A 
ENDROOT
BRANCH   5  10
ATOM     10  S   UNL     1       7.905   5.632  18.756  0.00  0.00    +0.000 S 
ATOM     11  O   UNL     1       7.541   5.545  20.277  0.00  0.00    +0.000 OA
BRANCH  10  12
ATOM     12  N   UNL     1       7.804   7.191  18.187  0.00  0.00    +0.000 NA
ATOM     13  H   UNL     1       8.319   7.896  18.714  0.00  0.00    +0.000 HD
ATOM     14  H   UNL     1       6.858   7.534  18.058  0.00  0.00    +0.000 HD
ENDBRANCH  10  12
ENDBRANCH   5  10
BRANCH   1  15
ATOM     15  C   UNL     1       2.483   2.396  17.736  0.00  0.00    +0.000 C 
BRANCH  15  16
ATOM     16  C   UNL     1       1.591   1.988  18.911  0.00  0.00    +0.000 C 
BRANCH  16  17
ATOM     17  C   UNL     1       0.651   3.117  19.334  0.00  0.00    +0.000 C 
BRANCH  17  19
ATOM     18  C   UNL     1       1.636   5.100  20.540  0.00  0.00    +0.000 C 
ATOM     19  C   UNL     1       1.071   3.696  20.685  0.00  0.00    +0.000 C 
ENDBRANCH  17  19
ENDBRANCH  16  17
ENDBRANCH  15  16
ENDBRANCH   1  15
TORSDOF 6
ENDMDL
MODEL 5
REMARK VINA RESULT:      -5.9      1.024      1.024
REMARK  Name = 
REMARK  7 active torsions:
REMARK  status: ('A' for Active; 'I' for Inactive)
REMARK    1  A    between atoms: C_1  and  C_2
REMARK    2  A    between atoms: C_2  and  C_3
REMARK    3  A    between atoms: C_3  and  C_4
REMARK    4  A    between atoms: C_4  and  C_5
REMARK    5  A    between atoms: C_5  and  N_6
REMARK    6  A    between atoms: C_10  and  S_11
REMARK    7  A    between atoms: S_11  and  N_12
REMARK                            x       y       z     vdW  Elec       q    Type
REMARK                         _______ _______ _______ _____ _____    ______ ____
ROOT
ATOM      1  N   UNL     1       2.433   3.748  17.798  0.00  0.00    +0.000 N 
ATOM      2  C   UNL     1       3.258   2.699  17.486  0.00  0.00    +0.000 A 
ATOM      3  N   UNL     1       4.480   3.097  17.201  0.00  0.00    +0.000 NA
ATOM      4  C   UNL     1       4.440   4.472  17.327  0.00  0.00    +0.000 A 
ATOM      5  C   UNL     1       5.393   5.478  17.179  0.00  0.00    +0.000 A 
ATOM      6  N   UNL     1       5.057   6.772  17.416  0.00  0.00    +0.000 NA
ATOM      7  C   UNL     1       3.782   7.033  17.757  0.00  0.00    +0.000 A 
ATOM      8  N   UNL     1       2.769   6.158  17.924  0.00  0.00    +0.000 NA
ATOM      9  C   UNL     1       3.170   4.895  17.697  0.00  0.00    +0.000 A 
ENDROOT
BRANCH   5  10
ATOM     10  S   UNL     1       7.121   5.139  16.872  0.00  0.00    +0.000 S 
ATOM     11  O   UNL     1       7.765   4.486  18.142  0.00  0.00    +0.000 OA
BRANCH  10  12
ATOM     12  N   UNL     1       7.586   6.726  16.692  0.00  0.00    +0.000 NA
ATOM     13  H   UNL     1       6.840   7.419  16.737  0.00  0.00    +0.000 HD
ATOM     14  H   UNL     1       8.132   6.915  15.859  0.00  0.00    +0.000 HD
ENDBRANCH  10  12
ENDBRANCH   5  10
BRANCH   1  15
ATOM     15  C   UNL     1       1.039   3.643  18.169  0.00  0.00    +0.000 C 
BRANCH  15  16
ATOM     16  C   UNL     1       0.840   2.885  19.485  0.00  0.00    +0.000 C 
BRANCH  16  17
ATOM     17  C   UNL     1       1.060   3.784  20.701  0.00  0.00    +0.000 C 
BRANCH  17  19
ATOM     18  C   UNL     1       3.199   2.529  21.155  0.00  0.00    +0.000 C 
ATOM     19  C   UNL     1       1.913   3.076  21.753  0.00  0.00    +0.000 C 
ENDBRANCH  17  19
ENDBRANCH  16  17
ENDBRANCH  15  16
ENDBRANCH   1  15
TORSDOF 6
ENDMDL
MODEL 6
REMARK VINA RESULT:      -5.9      3.523      5.509
REMARK  Name = 
REMARK  7 active torsions:
REMARK  status: ('A' for Active; 'I' for Inactive)
REMARK    1  A    between atoms: C_1  and  C_2
REMARK    2  A    between atoms: C_2  and  C_3
REMARK    3  A    between atoms: C_3  and  C_4
REMARK    4  A    between atoms: C_4  and  C_5
REMARK    5  A    between atoms: C_5  and  N_6
REMARK    6  A    between atoms: C_10  and  S_11
REMARK    7  A    between atoms: S_11  and  N_12
REMARK                            x       y       z     vdW  Elec       q    Type
REMARK                         _______ _______ _______ _____ _____    ______ ____
ROOT
ATOM      1  N   UNL     1       4.989   5.320  18.250  0.00  0.00    +0.000 N 
ATOM      2  C   UNL     1       5.265   3.994  18.458  0.00  0.00    +0.000 A 
ATOM      3  N   UNL     1       4.402   3.431  19.277  0.00  0.00    +0.000 NA
ATOM      4  C   UNL     1       3.530   4.446  19.621  0.00  0.00    +0.000 A 
ATOM      5  C   UNL     1       2.398   4.505  20.432  0.00  0.00    +0.000 A 
ATOM      6  N   UNL     1       1.705   5.667  20.546  0.00  0.00    +0.000 NA
ATOM      7  C   UNL     1       2.174   6.740  19.884  0.00  0.00    +0.000 A 
ATOM      8  N   UNL     1       3.254   6.816  19.080  0.00  0.00    +0.000 NA
ATOM      9  C   UNL     1       3.883   5.631  18.990  0.00  0.00    +0.000 A 
ENDROOT
BRANCH   5  10
ATOM     10  S   UNL     1       1.678   3.061  21.200  0.00  0.00    +0.000 S 
ATOM     11  O   UNL     1       2.694   2.443  22.220  0.00  0.00    +0.000 OA
BRANCH  10  12
ATOM     12  N   UNL     1       1.572   2.153  19.810  0.00  0.00    +0.000 NA
ATOM     13  H   UNL     1       0.727   1.593  19.703  0.00  0.00    +0.000 HD
ATOM     14  H   UNL     1       2.367   1.546  19.639  0.00  0.00    +0.000 HD
ENDBRANCH  10  12
ENDBRANCH   5  10
BRANCH   1  15
ATOM     15  C   UNL     1       5.739   6.214  17.394  0.00  0.00    +0.000 C 
BRANCH  15  16
ATOM     16  C   UNL     1       5.397   6.028  15.913  0.00  0.00    +0.000 C 
BRANCH  16  17
ATOM     17  C   UNL     1       6.478   5.244  15.171  0.00  0.00    +0.000 C 
BRANCH  17  19
ATOM     18  C   UNL     1       6.132   3.706  13.204  0.00  0.00    +0.000 C 
ATOM     19  C   UNL     1       5.944   3.892  14.701  0.00  0.00    +0.000 C 
ENDBRANCH  17  19
ENDBRANCH  16  17
ENDBRANCH  15  16
ENDBRANCH   1  15
TORSDOF 6
ENDMDL
MODEL 7
REMARK VINA RESULT:      -5.9      1.343      2.023
REMARK  Name = 
REMARK  7 active torsions:
REMARK  status: ('A' for Active; 'I' for Inactive)
REMARK    1  A    between atoms: C_1  and  C_2
REMARK    2  A    between atoms: C_2  and  C_3
REMARK    3  A    between atoms: C_3  and  C_4
REMARK    4  A    between atoms: C_4  and  C_5
REMARK    5  A    between atoms: C_5  and  N_6
REMARK    6  A    between atoms: C_10  and  S_11
REMARK    7  A    between atoms: S_11  and  N_12
REMARK                            x       y       z     vdW  Elec       q    Type
REMARK                         _______ _______ _______ _____ _____    ______ ____
ROOT
ATOM      1  N   UNL     1       3.425   4.431  20.111  0.00  0.00    +0.000 N 
ATOM      2  C   UNL     1       4.315   3.390  20.074  0.00  0.00    +0.000 A 
ATOM      3  N   UNL     1       5.198   3.526  19.107  0.00  0.00    +0.000 NA
ATOM      4  C   UNL     1       4.856   4.710  18.484  0.00  0.00    +0.000 A 
ATOM      5  C   UNL     1       5.393   5.422  17.412  0.00  0.00    +0.000 A 
ATOM      6  N   UNL     1       4.848   6.610  17.045  0.00  0.00    +0.000 NA
ATOM      7  C   UNL     1       3.769   7.039  17.725  0.00  0.00    +0.000 A 
ATOM      8  N   UNL     1       3.153   6.445  18.767  0.00  0.00    +0.000 NA
ATOM      9  C   UNL     1       3.750   5.286  19.096  0.00  0.00    +0.000 A 
ENDROOT
BRANCH   5  10
ATOM     10  S   UNL     1       6.909   4.945  16.594  0.00  0.00    +0.000 S 
ATOM     11  O   UNL     1       6.625   3.763  15.605  0.00  0.00    +0.000 OA
BRANCH  10  12
ATOM     12  N   UNL     1       7.696   4.426  17.963  0.00  0.00    +0.000 NA
ATOM     13  H   UNL     1       8.655   4.105  17.835  0.00  0.00    +0.000 HD
ATOM     14  H   UNL     1       7.202   3.714  18.492  0.00  0.00    +0.000 HD
ENDBRANCH  10  12
ENDBRANCH   5  10
BRANCH   1  15
ATOM     15  C   UNL     1       2.345   4.584  21.061  0.00  0.00    +0.000 C 
BRANCH  15  16
ATOM     16  C   UNL     1       1.302   3.469  20.944  0.00  0.00    +0.000 C 
BRANCH  16  17
ATOM     17  C   UNL     1       0.654   3.436  19.561  0.00  0.00    +0.000 C 
BRANCH  17  19
ATOM     18  C   UNL     1       2.021   2.279  17.786  0.00  0.00    +0.000 C 
ATOM     19  C   UNL     1       0.950   2.115  18.852  0.00  0.00    +0.000 C 
ENDBRANCH  17  19
ENDBRANCH  16  17
ENDBRANCH  15  16
ENDBRANCH   1  15
TORSDOF 6
ENDMDL
MODEL 8
REMARK VINA RESULT:      -5.9      1.100      1.155
REMARK  Name = 
REMARK  7 active torsions:
REMARK  status: ('A' for Active; 'I' for Inactive)
REMARK    1  A    between atoms: C_1  and  C_2
REMARK    2  A    between atoms: C_2  and  C_3
REMARK    3  A    between atoms: C_3  and  C_4
REMARK    4  A    between atoms: C_4  and  C_5
REMARK    5  A    between atoms: C_5  and  N_6
REMARK    6  A    between atoms: C_10  and  S_11
REMARK    7  A    between atoms: S_11  and  N_12
REMARK                            x       y       z     vdW  Elec       q    Type
REMARK                         _______ _______ _______ _____ _____    ______ ____
ROOT
ATOM      1  N   UNL     1       2.879   3.864  17.983  0.00  0.00    +0.000 N 
ATOM      2  C   UNL     1       3.772   2.880  18.315  0.00  0.00    +0.000 A 
ATOM      3  N   UNL     1       5.011   3.324  18.344  0.00  0.00    +0.000 NA
ATOM      4  C   UNL     1       4.914   4.660  18.005  0.00  0.00    +0.000 A 
ATOM      5  C   UNL     1       5.846   5.687  17.873  0.00  0.00    +0.000 A 
ATOM      6  N   UNL     1       5.432   6.943  17.560  0.00  0.00    +0.000 NA
ATOM      7  C   UNL     1       4.117   7.133  17.354  0.00  0.00    +0.000 A 
ATOM      8  N   UNL     1       3.121   6.228  17.442  0.00  0.00    +0.000 NA
ATOM      9  C   UNL     1       3.590   5.013  17.775  0.00  0.00    +0.000 A 
ENDROOT
BRANCH   5  10
ATOM     10  S   UNL     1       7.573   5.489  18.285  0.00  0.00    +0.000 S 
ATOM     11  O   UNL     1       8.152   4.234  17.546  0.00  0.00    +0.000 OA
BRANCH  10  12
ATOM     12  N   UNL     1       7.339   5.195  19.905  0.00  0.00    +0.000 NA
ATOM     13  H   UNL     1       6.552   5.677  20.338  0.00  0.00    +0.000 HD
ATOM     14  H   UNL     1       8.155   5.353  20.486  0.00  0.00    +0.000 HD
ENDBRANCH  10  12
ENDBRANCH   5  10
BRANCH   1  15
ATOM     15  C   UNL     1       1.445   3.702  17.881  0.00  0.00    +0.000 C 
BRANCH  15  16
ATOM     16  C   UNL     1       0.906   2.648  18.851  0.00  0.00    +0.000 C 
BRANCH  16  17
ATOM     17  C   UNL     1       0.536   3.254  20.205  0.00  0.00    +0.000 C 
BRANCH  17  19
ATOM     18  C   UNL     1       2.471   3.679  21.764  0.00  0.00    +0.000 C 
ATOM     19  C   UNL     1       1.416   2.681  21.315  0.00  0.00    +0.000 C 
ENDBRANCH  17  19
ENDBRANCH  16  17
ENDBRANCH  15  16
ENDBRANCH   1  15
TORSDOF 6
ENDMDL
MODEL 9
REMARK VINA RESULT:      -5.9      1.863      2.636
REMARK  Name = 
REMARK  7 active torsions:
REMARK  status: ('A' for Active; 'I' for Inactive)
REMARK    1  A    between atoms: C_1  and  C_2
REMARK    2  A    between atoms: C_2  and  C_3
REMARK    3  A    between atoms: C_3  and  C_4
REMARK    4  A    between atoms: C_4  and  C_5
REMARK    5  A    between atoms: C_5  and  N_6
REMARK    6  A    between atoms: C_10  and  S_11
REMARK    7  A    between atoms: S_11  and  N_12
REMARK                            x       y       z     vdW  Elec       q    Type
REMARK                         _______ _______ _______ _____ _____    ______ ____
ROOT
ATOM      1  N   UNL     1       4.280   4.358  18.477  0.00  0.00    +0.000 N 
ATOM      2  C   UNL     1       3.851   3.514  17.486  0.00  0.00    +0.000 A 
ATOM      3  N   UNL     1       4.588   3.611  16.399  0.00  0.00    +0.000 NA
ATOM      4  C   UNL     1       5.534   4.572  16.701  0.00  0.00    +0.000 A 
ATOM      5  C   UNL     1       6.603   5.122  15.996  0.00  0.00    +0.000 A 
ATOM      6  N   UNL     1       7.403   6.045  16.588  0.00  0.00    +0.000 NA
ATOM      7  C   UNL     1       7.100   6.421  17.843  0.00  0.00    +0.000 A 
ATOM      8  N   UNL     1       6.096   5.975  18.626  0.00  0.00    +0.000 NA
ATOM      9  C   UNL     1       5.354   5.050  17.993  0.00  0.00    +0.000 A 
ENDROOT
BRANCH   5  10
ATOM     10  S   UNL     1       7.109   4.531  14.386  0.00  0.00    +0.000 S 
ATOM     11  O   UNL     1       7.905   5.655  13.638  0.00  0.00    +0.000 OA
BRANCH  10  12
ATOM     12  N   UNL     1       5.575   4.350  13.772  0.00  0.00    +0.000 NA
ATOM     13  H   UNL     1       5.512   4.148  12.774  0.00  0.00    +0.000 HD
ATOM     14  H   UNL     1       4.945   5.120  13.970  0.00  0.00    +0.000 HD
ENDBRANCH  10  12
ENDBRANCH   5  10
BRANCH   1  15
ATOM     15  C   UNL     1       3.693   4.480  19.794  0.00  0.00    +0.000 C 
BRANCH  15  16
ATOM     16  C   UNL     1       3.301   3.123  20.386  0.00  0.00    +0.000 C 
BRANCH  16  17
ATOM     17  C   UNL     1       1.944   3.175  21.087  0.00  0.00    +0.000 C 
BRANCH  17  19
ATOM     18  C   UNL     1       0.670   2.490  19.022  0.00  0.00    +0.000 C 
ATOM     19  C   UNL     1       0.837   3.548  20.101  0.00  0.00    +0.000 C 
ENDBRANCH  17  19
ENDBRANCH  16  17
ENDBRANCH  15  16
ENDBRANCH   1  15
TORSDOF 6
ENDMDL
