MODEL 1
REMARK VINA RESULT:      -8.5      0.000      0.000
REMARK  Name = 
REMARK  10 active torsions:
REMARK  status: ('A' for Active; 'I' for Inactive)
REMARK    1  A    between atoms: C_2  and  C_3
REMARK    2  A    between atoms: N_5  and  C_6
REMARK    3  A    between atoms: C_6  and  C_7
REMARK    4  A    between atoms: C_7  and  C_8
REMARK    5  A    between atoms: C_8  and  C_9
REMARK    6  A    between atoms: C_9  and  N_10
REMARK    7  A    between atoms: C_9  and  C_22
REMARK    8  A    between atoms: C_11  and  C_13
REMARK    9  A    between atoms: C_18  and  C_19
REMARK   10  A    between atoms: C_19  and  O_21
REMARK                            x       y       z     vdW  Elec       q    Type
REMARK                         _______ _______ _______ _____ _____    ______ ____
ROOT
ATOM      1  C   UNL     1       6.000   6.225  17.404  0.00  0.00    +0.000 C 
ENDROOT
BRANCH   1   2
ATOM      2  C   UNL     1       6.149   5.568  16.065  0.00  0.00    +0.000 A 
ATOM      3  N   UNL     1       7.196   5.707  15.275  0.00  0.00    +0.000 NA
ATOM      4  C   UNL     1       6.924   4.965  14.160  0.00  0.00    +0.000 A 
ATOM      5  C   UNL     1       7.698   4.792  13.004  0.00  0.00    +0.000 A 
ATOM      6  C   UNL     1       7.196   3.995  11.971  0.00  0.00    +0.000 A 
ATOM      7  C   UNL     1       5.951   3.373  12.096  0.00  0.00    +0.000 A 
ATOM      8  C   UNL     1       5.171   3.520  13.254  0.00  0.00    +0.000 A 
ATOM      9  C   UNL     1       5.693   4.329  14.269  0.00  0.00    +0.000 A 
ATOM     10  N   UNL     1       5.227   4.709  15.502  0.00  0.00    +0.000 N 
ATOM     11  H   UNL     1       4.339   4.465  15.929  0.00  0.00    +0.000 HD
ENDBRANCH   1   2
BRANCH   1  12
ATOM     12  N   UNL     1       5.160   5.448  18.308  0.00  0.00    +0.000 N 
ATOM     13  C   UNL     1       3.788   5.497  18.352  0.00  0.00    +0.000 C 
ATOM     14  O   UNL     1       3.148   6.328  17.709  0.00  0.00    +0.000 OA
ATOM     15  H   UNL     1       5.601   4.575  18.571  0.00  0.00    +0.000 HD
BRANCH  13  16
ATOM     16  C   UNL     1       3.059   4.567  19.286  0.00  0.00    +0.000 A 
ATOM     17  C   UNL     1       2.657   5.165  20.499  0.00  0.00    +0.000 A 
ATOM     18  C   UNL     1       2.007   4.437  21.499  0.00  0.00    +0.000 A 
ATOM     19  C   UNL     1       1.718   3.095  21.299  0.00  0.00    +0.000 A 
ATOM     20  C   UNL     1       2.076   2.484  20.099  0.00  0.00    +0.000 A 
ATOM     21  C   UNL     1       2.767   3.200  19.095  0.00  0.00    +0.000 A 
BRANCH  21  22
ATOM     22  C   UNL     1       3.072   2.472  17.841  0.00  0.00    +0.000 C 
ATOM     23  O   UNL     1       4.162   2.510  17.299  0.00  0.00    +0.000 OA
BRANCH  22  24
ATOM     24  O   UNL     1       2.071   1.691  17.385  0.00  0.00    +0.000 OA
ATOM     25  H   UNL     1       1.221   1.740  17.862  0.00  0.00    +0.000 HD
ENDBRANCH  22  24
ENDBRANCH  21  22
ENDBRANCH  13  16
ENDBRANCH   1  12
BRANCH   1  26
ATOM     26  C   UNL     1       7.316   6.659  18.051  0.00  0.00    +0.000 C 
BRANCH  26  27
ATOM     27  C   UNL     1       7.913   7.919  17.413  0.00  0.00    +0.000 C 
BRANCH  27  28
ATOM     28  C   UNL     1       8.460   8.838  18.498  0.00  0.00    +0.000 C 
BRANCH  28  31
ATOM     29  N   UNL     1       9.238  12.370  18.110  0.00  0.00    +0.000 NA
ATOM     30  C   UNL     1       9.155  11.227  18.720  0.00  0.00    +0.000 C 
ATOM     31  N   UNL     1       8.609  10.187  18.020  0.00  0.00    +0.000 N 
ATOM     32  H   UNL     1       9.659  13.058  18.751  0.00  0.00    +0.000 HD
ATOM     33  H   UNL     1       8.411  10.391  17.044  0.00  0.00    +0.000 HD
BRANCH  30  34
ATOM     34  C   UNL     1       9.640  11.017  20.152  0.00  0.00    +0.000 C 
ATOM     35 CL   UNL     1      11.205  11.797  20.435  0.00  0.00    +0.000 Cl
ENDBRANCH  30  34
ENDBRANCH  28  31
ENDBRANCH  27  28
ENDBRANCH  26  27
ENDBRANCH   1  26
TORSDOF 10
ENDMDL
MODEL 2
REMARK VINA RESULT:      -8.4      0.411      1.183
REMARK  Name = 
REMARK  10 active torsions:
REMARK  status: ('A' for Active; 'I' for Inactive)
REMARK    1  A    between atoms: C_2  and  C_3
REMARK    2  A    between atoms: N_5  and  C_6
REMARK    3  A    between atoms: C_6  and  C_7
REMARK    4  A    between atoms: C_7  and  C_8
REMARK    5  A    between atoms: C_8  and  C_9
REMARK    6  A    between atoms: C_9  and  N_10
REMARK    7  A    between atoms: C_9  and  C_22
REMARK    8  A    between atoms: C_11  and  C_13
REMARK    9  A    between atoms: C_18  and  C_19
REMARK   10  A    between atoms: C_19  and  O_21
REMARK                            x       y       z     vdW  Elec       q    Type
REMARK                         _______ _______ _______ _____ _____    ______ ____
ROOT
ATOM      1  C   UNL     1       5.941   6.107  17.275  0.00  0.00    +0.000 C 
ENDROOT
BRANCH   1   2
ATOM      2  C   UNL     1       6.106   5.489  15.920  0.00  0.00    +0.000 A 
ATOM      3  N   UNL     1       5.243   4.660  15.365  0.00  0.00    +0.000 NA
ATOM      4  C   UNL     1       5.776   4.323  14.152  0.00  0.00    +0.000 A 
ATOM      5  C   UNL     1       5.271   3.453  13.177  0.00  0.00    +0.000 A 
ATOM      6  C   UNL     1       6.014   3.244  12.011  0.00  0.00    +0.000 A 
ATOM      7  C   UNL     1       7.231   3.902  11.818  0.00  0.00    +0.000 A 
ATOM      8  C   UNL     1       7.743   4.793  12.776  0.00  0.00    +0.000 A 
ATOM      9  C   UNL     1       6.983   4.977  13.936  0.00  0.00    +0.000 A 
ATOM     10  N   UNL     1       7.163   5.733  15.067  0.00  0.00    +0.000 N 
ATOM     11  H   UNL     1       7.951   6.332  15.291  0.00  0.00    +0.000 HD
ENDBRANCH   1   2
BRANCH   1  12
ATOM     12  N   UNL     1       5.134   5.279  18.164  0.00  0.00    +0.000 N 
ATOM     13  C   UNL     1       3.807   5.483  18.451  0.00  0.00    +0.000 C 
ATOM     14  O   UNL     1       3.211   6.494  18.078  0.00  0.00    +0.000 OA
ATOM     15  H   UNL     1       5.472   4.324  18.194  0.00  0.00    +0.000 HD
BRANCH  13  16
ATOM     16  C   UNL     1       3.091   4.485  19.322  0.00  0.00    +0.000 A 
ATOM     17  C   UNL     1       2.727   4.984  20.591  0.00  0.00    +0.000 A 
ATOM     18  C   UNL     1       2.094   4.181  21.544  0.00  0.00    +0.000 A 
ATOM     19  C   UNL     1       1.784   2.864  21.241  0.00  0.00    +0.000 A 
ATOM     20  C   UNL     1       2.104   2.352  19.984  0.00  0.00    +0.000 A 
ATOM     21  C   UNL     1       2.777   3.142  19.026  0.00  0.00    +0.000 A 
BRANCH  21  22
ATOM     22  C   UNL     1       3.042   2.519  17.708  0.00  0.00    +0.000 C 
ATOM     23  O   UNL     1       2.558   2.931  16.669  0.00  0.00    +0.000 OA
BRANCH  22  24
ATOM     24  O   UNL     1       3.932   1.506  17.732  0.00  0.00    +0.000 OA
ATOM     25  H   UNL     1       3.769   0.760  17.124  0.00  0.00    +0.000 HD
ENDBRANCH  22  24
ENDBRANCH  21  22
ENDBRANCH  13  16
ENDBRANCH   1  12
BRANCH   1  26
ATOM     26  C   UNL     1       7.243   6.574  17.926  0.00  0.00    +0.000 C 
BRANCH  26  27
ATOM     27  C   UNL     1       7.781   7.879  17.328  0.00  0.00    +0.000 C 
BRANCH  27  28
ATOM     28  C   UNL     1       8.362   8.753  18.432  0.00  0.00    +0.000 C 
BRANCH  28  31
ATOM     29  N   UNL     1       9.587  12.156  18.046  0.00  0.00    +0.000 NA
ATOM     30  C   UNL     1       9.256  11.072  18.680  0.00  0.00    +0.000 C 
ATOM     31  N   UNL     1       8.752  10.044  17.932  0.00  0.00    +0.000 N 
ATOM     32  H   UNL     1       9.942  12.842  18.727  0.00  0.00    +0.000 HD
ATOM     33  H   UNL     1       8.780  10.198  16.927  0.00  0.00    +0.000 HD
BRANCH  30  34
ATOM     34  C   UNL     1       9.415  10.916  20.189  0.00  0.00    +0.000 C 
ATOM     35 CL   UNL     1      10.787  11.853  20.805  0.00  0.00    +0.000 Cl
ENDBRANCH  30  34
ENDBRANCH  28  31
ENDBRANCH  27  28
ENDBRANCH  26  27
ENDBRANCH   1  26
TORSDOF 10
ENDMDL
MODEL 3
REMARK VINA RESULT:      -8.4      4.579      7.382
REMARK  Name = 
REMARK  10 active torsions:
REMARK  status: ('A' for Active; 'I' for Inactive)
REMARK    1  A    between atoms: C_2  and  C_3
REMARK    2  A    between atoms: N_5  and  C_6
REMARK    3  A    between atoms: C_6  and  C_7
REMARK    4  A    between atoms: C_7  and  C_8
REMARK    5  A    between atoms: C_8  and  C_9
REMARK    6  A    between atoms: C_9  and  N_10
REMARK    7  A    between atoms: C_9  and  C_22
REMARK    8  A    between atoms: C_11  and  C_13
REMARK    9  A    between atoms: C_18  and  C_19
REMARK   10  A    between atoms: C_19  and  O_21
REMARK                            x       y       z     vdW  Elec       q    Type
REMARK                         _______ _______ _______ _____ _____    ______ ____
ROOT
ATOM      1  C   UNL     1       2.460   6.290  20.237  0.00  0.00    +0.000 C 
ENDROOT
BRANCH   1   2
ATOM      2  C   UNL     1       3.528   6.008  19.224  0.00  0.00    +0.000 A 
ATOM      3  N   UNL     1       4.633   5.330  19.470  0.00  0.00    +0.000 NA
ATOM      4  C   UNL     1       5.332   5.318  18.297  0.00  0.00    +0.000 A 
ATOM      5  C   UNL     1       6.584   4.752  18.021  0.00  0.00    +0.000 A 
ATOM      6  C   UNL     1       7.117   4.888  16.735  0.00  0.00    +0.000 A 
ATOM      7  C   UNL     1       6.407   5.568  15.742  0.00  0.00    +0.000 A 
ATOM      8  C   UNL     1       5.143   6.125  15.995  0.00  0.00    +0.000 A 
ATOM      9  C   UNL     1       4.637   5.980  17.291  0.00  0.00    +0.000 A 
ATOM     10  N   UNL     1       3.479   6.392  17.900  0.00  0.00    +0.000 N 
ATOM     11  H   UNL     1       2.725   6.934  17.491  0.00  0.00    +0.000 HD
ENDBRANCH   1   2
BRANCH   1  12
ATOM     12  N   UNL     1       1.659   7.456  19.883  0.00  0.00    +0.000 N 
ATOM     13  C   UNL     1       1.407   8.525  20.707  0.00  0.00    +0.000 C 
ATOM     14  O   UNL     1       1.732   8.519  21.894  0.00  0.00    +0.000 OA
ATOM     15  H   UNL     1       1.680   7.634  18.886  0.00  0.00    +0.000 HD
BRANCH  13  16
ATOM     16  C   UNL     1       0.631   9.695  20.161  0.00  0.00    +0.000 A 
ATOM     17  C   UNL     1      -0.357  10.191  21.038  0.00  0.00    +0.000 A 
ATOM     18  C   UNL     1      -1.199  11.246  20.677  0.00  0.00    +0.000 A 
ATOM     19  C   UNL     1      -1.057  11.849  19.436  0.00  0.00    +0.000 A 
ATOM     20  C   UNL     1      -0.071  11.400  18.560  0.00  0.00    +0.000 A 
ATOM     21  C   UNL     1       0.762  10.311  18.899  0.00  0.00    +0.000 A 
BRANCH  21  22
ATOM     22  C   UNL     1       1.804   9.930  17.916  0.00  0.00    +0.000 C 
ATOM     23  O   UNL     1       1.889   8.814  17.435  0.00  0.00    +0.000 OA
BRANCH  22  24
ATOM     24  O   UNL     1       2.605  10.942  17.524  0.00  0.00    +0.000 OA
ATOM     25  H   UNL     1       2.215  11.837  17.518  0.00  0.00    +0.000 HD
ENDBRANCH  22  24
ENDBRANCH  21  22
ENDBRANCH  13  16
ENDBRANCH   1  12
BRANCH   1  26
ATOM     26  C   UNL     1       1.605   5.080  20.617  0.00  0.00    +0.000 C 
BRANCH  26  27
ATOM     27  C   UNL     1       2.294   4.147  21.618  0.00  0.00    +0.000 C 
BRANCH  27  28
ATOM     28  C   UNL     1       2.255   2.714  21.100  0.00  0.00    +0.000 C 
BRANCH  28  31
ATOM     29  N   UNL     1       4.229   2.086  18.111  0.00  0.00    +0.000 NA
ATOM     30  C   UNL     1       3.151   2.259  18.814  0.00  0.00    +0.000 C 
ATOM     31  N   UNL     1       3.312   2.467  20.156  0.00  0.00    +0.000 N 
ATOM     32  H   UNL     1       3.962   1.935  17.127  0.00  0.00    +0.000 HD
ATOM     33  H   UNL     1       4.278   2.565  20.457  0.00  0.00    +0.000 HD
BRANCH  30  34
ATOM     34  C   UNL     1       1.754   2.242  18.202  0.00  0.00    +0.000 C 
ATOM     35 CL   UNL     1       1.334   3.807  17.485  0.00  0.00    +0.000 Cl
ENDBRANCH  30  34
ENDBRANCH  28  31
ENDBRANCH  27  28
ENDBRANCH  26  27
ENDBRANCH   1  26
TORSDOF 10
ENDMDL
MODEL 4
REMARK VINA RESULT:      -8.4      4.724      7.627
REMARK  Name = 
REMARK  10 active torsions:
REMARK  status: ('A' for Active; 'I' for Inactive)
REMARK    1  A    between atoms: C_2  and  C_3
REMARK    2  A    between atoms: N_5  and  C_6
REMARK    3  A    between atoms: C_6  and  C_7
REMARK    4  A    between atoms: C_7  and  C_8
REMARK    5  A    between atoms: C_8  and  C_9
REMARK    6  A    between atoms: C_9  and  N_10
REMARK    7  A    between atoms: C_9  and  C_22
REMARK    8  A    between atoms: C_11  and  C_13
REMARK    9  A    between atoms: C_18  and  C_19
REMARK   10  A    between atoms: C_19  and  O_21
REMARK                            x       y       z     vdW  Elec       q    Type
REMARK                         _______ _______ _______ _____ _____    ______ ____
ROOT
ATOM      1  C   UNL     1       2.695   6.341  20.421  0.00  0.00    +0.000 C 
ENDROOT
BRANCH   1   2
ATOM      2  C   UNL     1       3.675   6.046  19.326  0.00  0.00    +0.000 A 
ATOM      3  N   UNL     1       3.555   6.464  18.081  0.00  0.00    +0.000 NA
ATOM      4  C   UNL     1       4.639   5.966  17.414  0.00  0.00    +0.000 A 
ATOM      5  C   UNL     1       4.979   6.096  16.061  0.00  0.00    +0.000 A 
ATOM      6  C   UNL     1       6.140   5.472  15.595  0.00  0.00    +0.000 A 
ATOM      7  C   UNL     1       6.952   4.744  16.468  0.00  0.00    +0.000 A 
ATOM      8  C   UNL     1       6.638   4.620  17.831  0.00  0.00    +0.000 A 
ATOM      9  C   UNL     1       5.467   5.247  18.268  0.00  0.00    +0.000 A 
ATOM     10  N   UNL     1       4.844   5.330  19.488  0.00  0.00    +0.000 N 
ATOM     11  H   UNL     1       5.136   4.904  20.361  0.00  0.00    +0.000 HD
ENDBRANCH   1   2
BRANCH   1  12
ATOM     12  N   UNL     1       1.757   7.394  20.052  0.00  0.00    +0.000 N 
ATOM     13  C   UNL     1       1.371   8.433  20.863  0.00  0.00    +0.000 C 
ATOM     14  O   UNL     1       1.690   8.480  22.051  0.00  0.00    +0.000 OA
ATOM     15  H   UNL     1       1.760   7.564  19.053  0.00  0.00    +0.000 HD
BRANCH  13  16
ATOM     16  C   UNL     1       0.459   9.492  20.303  0.00  0.00    +0.000 A 
ATOM     17  C   UNL     1       0.484   9.590  18.895  0.00  0.00    +0.000 A 
ATOM     18  C   UNL     1      -0.269  10.547  18.210  0.00  0.00    +0.000 A 
ATOM     19  C   UNL     1      -1.087  11.416  18.916  0.00  0.00    +0.000 A 
ATOM     20  C   UNL     1      -1.156  11.324  20.305  0.00  0.00    +0.000 A 
ATOM     21  C   UNL     1      -0.372  10.385  21.012  0.00  0.00    +0.000 A 
BRANCH  21  22
ATOM     22  C   UNL     1      -0.542  10.341  22.483  0.00  0.00    +0.000 C 
ATOM     23  O   UNL     1      -0.470  11.329  23.191  0.00  0.00    +0.000 OA
BRANCH  22  24
ATOM     24  O   UNL     1      -0.868   9.128  22.976  0.00  0.00    +0.000 OA
ATOM     25  H   UNL     1      -0.189   8.670  23.506  0.00  0.00    +0.000 HD
ENDBRANCH  22  24
ENDBRANCH  21  22
ENDBRANCH  13  16
ENDBRANCH   1  12
BRANCH   1  26
ATOM     26  C   UNL     1       1.998   5.109  21.002  0.00  0.00    +0.000 C 
BRANCH  26  27
ATOM     27  C   UNL     1       1.168   4.343  19.966  0.00  0.00    +0.000 C 
BRANCH  27  28
ATOM     28  C   UNL     1       1.461   2.852  20.070  0.00  0.00    +0.000 C 
BRANCH  28  31
ATOM     29  N   UNL     1       4.982   1.983  19.796  0.00  0.00    +0.000 NA
ATOM     30  C   UNL     1       3.750   2.105  19.406  0.00  0.00    +0.000 C 
ATOM     31  N   UNL     1       2.857   2.605  20.313  0.00  0.00    +0.000 N 
ATOM     32  H   UNL     1       5.538   1.592  19.022  0.00  0.00    +0.000 HD
ATOM     33  H   UNL     1       3.273   2.930  21.182  0.00  0.00    +0.000 HD
BRANCH  30  34
ATOM     34  C   UNL     1       3.285   1.722  18.003  0.00  0.00    +0.000 C 
ATOM     35 CL   UNL     1       2.885   3.149  17.033  0.00  0.00    +0.000 Cl
ENDBRANCH  30  34
ENDBRANCH  28  31
ENDBRANCH  27  28
ENDBRANCH  26  27
ENDBRANCH   1  26
TORSDOF 10
ENDMDL
MODEL 5
REMARK VINA RESULT:      -8.3      0.983      1.587
REMARK  Name = 
REMARK  10 active torsions:
REMARK  status: ('A' for Active; 'I' for Inactive)
REMARK    1  A    between atoms: C_2  and  C_3
REMARK    2  A    between atoms: N_5  and  C_6
REMARK    3  A    between atoms: C_6  and  C_7
REMARK    4  A    between atoms: C_7  and  C_8
REMARK    5  A    between atoms: C_8  and  C_9
REMARK    6  A    between atoms: C_9  and  N_10
REMARK    7  A    between atoms: C_9  and  C_22
REMARK    8  A    between atoms: C_11  and  C_13
REMARK    9  A    between atoms: C_18  and  C_19
REMARK   10  A    between atoms: C_19  and  O_21
REMARK                            x       y       z     vdW  Elec       q    Type
REMARK                         _______ _______ _______ _____ _____    ______ ____
ROOT
ATOM      1  C   UNL     1       5.858   6.209  17.214  0.00  0.00    +0.000 C 
ENDROOT
BRANCH   1   2
ATOM      2  C   UNL     1       6.022   5.542  15.882  0.00  0.00    +0.000 A 
ATOM      3  N   UNL     1       5.119   4.763  15.319  0.00  0.00    +0.000 NA
ATOM      4  C   UNL     1       5.666   4.353  14.136  0.00  0.00    +0.000 A 
ATOM      5  C   UNL     1       5.131   3.493  13.167  0.00  0.00    +0.000 A 
ATOM      6  C   UNL     1       5.894   3.196  12.034  0.00  0.00    +0.000 A 
ATOM      7  C   UNL     1       7.163   3.757  11.867  0.00  0.00    +0.000 A 
ATOM      8  C   UNL     1       7.707   4.635  12.818  0.00  0.00    +0.000 A 
ATOM      9  C   UNL     1       6.925   4.909  13.945  0.00  0.00    +0.000 A 
ATOM     10  N   UNL     1       7.122   5.682  15.061  0.00  0.00    +0.000 N 
ATOM     11  H   UNL     1       7.945   6.228  15.298  0.00  0.00    +0.000 HD
ENDBRANCH   1   2
BRANCH   1  12
ATOM     12  N   UNL     1       5.091   5.394  18.148  0.00  0.00    +0.000 N 
ATOM     13  C   UNL     1       3.742   5.507  18.378  0.00  0.00    +0.000 C 
ATOM     14  O   UNL     1       3.079   6.427  17.901  0.00  0.00    +0.000 OA
ATOM     15  H   UNL     1       5.507   4.478  18.273  0.00  0.00    +0.000 HD
BRANCH  13  16
ATOM     16  C   UNL     1       3.080   4.529  19.313  0.00  0.00    +0.000 A 
ATOM     17  C   UNL     1       2.683   5.088  20.546  0.00  0.00    +0.000 A 
ATOM     18  C   UNL     1       2.092   4.315  21.549  0.00  0.00    +0.000 A 
ATOM     19  C   UNL     1       1.860   2.965  21.333  0.00  0.00    +0.000 A 
ATOM     20  C   UNL     1       2.215   2.390  20.114  0.00  0.00    +0.000 A 
ATOM     21  C   UNL     1       2.846   3.153  19.106  0.00  0.00    +0.000 A 
BRANCH  21  22
ATOM     22  C   UNL     1       3.152   2.461  17.832  0.00  0.00    +0.000 C 
ATOM     23  O   UNL     1       2.292   2.018  17.093  0.00  0.00    +0.000 OA
BRANCH  22  24
ATOM     24  O   UNL     1       4.461   2.432  17.508  0.00  0.00    +0.000 OA
ATOM     25  H   UNL     1       4.819   3.214  17.047  0.00  0.00    +0.000 HD
ENDBRANCH  22  24
ENDBRANCH  21  22
ENDBRANCH  13  16
ENDBRANCH   1  12
BRANCH   1  26
ATOM     26  C   UNL     1       7.154   6.743  17.824  0.00  0.00    +0.000 C 
BRANCH  26  27
ATOM     27  C   UNL     1       7.272   8.270  17.747  0.00  0.00    +0.000 C 
BRANCH  27  28
ATOM     28  C   UNL     1       8.717   8.689  17.988  0.00  0.00    +0.000 C 
BRANCH  28  31
ATOM     29  N   UNL     1       9.463  10.903  20.776  0.00  0.00    +0.000 NA
ATOM     30  C   UNL     1       9.429  10.514  19.538  0.00  0.00    +0.000 C 
ATOM     31  N   UNL     1       8.882   9.286  19.287  0.00  0.00    +0.000 N 
ATOM     32  H   UNL     1       9.903  11.833  20.819  0.00  0.00    +0.000 HD
ATOM     33  H   UNL     1       8.460   8.837  20.095  0.00  0.00    +0.000 HD
BRANCH  30  34
ATOM     34  C   UNL     1       9.963  11.365  18.389  0.00  0.00    +0.000 C 
ATOM     35 CL   UNL     1       8.734  12.485  17.777  0.00  0.00    +0.000 Cl
ENDBRANCH  30  34
ENDBRANCH  28  31
ENDBRANCH  27  28
ENDBRANCH  26  27
ENDBRANCH   1  26
TORSDOF 10
ENDMDL
MODEL 6
REMARK VINA RESULT:      -8.3      1.092      1.660
REMARK  Name = 
REMARK  10 active torsions:
REMARK  status: ('A' for Active; 'I' for Inactive)
REMARK    1  A    between atoms: C_2  and  C_3
REMARK    2  A    between atoms: N_5  and  C_6
REMARK    3  A    between atoms: C_6  and  C_7
REMARK    4  A    between atoms: C_7  and  C_8
REMARK    5  A    between atoms: C_8  and  C_9
REMARK    6  A    between atoms: C_9  and  N_10
REMARK    7  A    between atoms: C_9  and  C_22
REMARK    8  A    between atoms: C_11  and  C_13
REMARK    9  A    between atoms: C_18  and  C_19
REMARK   10  A    between atoms: C_19  and  O_21
REMARK                            x       y       z     vdW  Elec       q    Type
REMARK                         _______ _______ _______ _____ _____    ______ ____
ROOT
ATOM      1  C   UNL     1       5.758   6.348  17.075  0.00  0.00    +0.000 C 
ENDROOT
BRANCH   1   2
ATOM      2  C   UNL     1       5.957   5.628  15.776  0.00  0.00    +0.000 A 
ATOM      3  N   UNL     1       5.060   4.843  15.210  0.00  0.00    +0.000 NA
ATOM      4  C   UNL     1       5.641   4.379  14.064  0.00  0.00    +0.000 A 
ATOM      5  C   UNL     1       5.125   3.493  13.109  0.00  0.00    +0.000 A 
ATOM      6  C   UNL     1       5.923   3.141  12.016  0.00  0.00    +0.000 A 
ATOM      7  C   UNL     1       7.206   3.674  11.874  0.00  0.00    +0.000 A 
ATOM      8  C   UNL     1       7.732   4.579  12.810  0.00  0.00    +0.000 A 
ATOM      9  C   UNL     1       6.916   4.908  13.898  0.00  0.00    +0.000 A 
ATOM     10  N   UNL     1       7.088   5.719  14.990  0.00  0.00    +0.000 N 
ATOM     11  H   UNL     1       7.911   6.260  15.235  0.00  0.00    +0.000 HD
ENDBRANCH   1   2
BRANCH   1  12
ATOM     12  N   UNL     1       4.714   5.737  17.890  0.00  0.00    +0.000 N 
ATOM     13  C   UNL     1       4.902   4.703  18.774  0.00  0.00    +0.000 C 
ATOM     14  O   UNL     1       5.972   4.099  18.847  0.00  0.00    +0.000 OA
ATOM     15  H   UNL     1       3.969   6.392  18.095  0.00  0.00    +0.000 HD
BRANCH  13  16
ATOM     16  C   UNL     1       3.736   4.239  19.607  0.00  0.00    +0.000 A 
ATOM     17  C   UNL     1       2.926   5.286  20.099  0.00  0.00    +0.000 A 
ATOM     18  C   UNL     1       1.827   5.039  20.925  0.00  0.00    +0.000 A 
ATOM     19  C   UNL     1       1.493   3.736  21.260  0.00  0.00    +0.000 A 
ATOM     20  C   UNL     1       2.256   2.680  20.765  0.00  0.00    +0.000 A 
ATOM     21  C   UNL     1       3.392   2.917  19.959  0.00  0.00    +0.000 A 
BRANCH  21  22
ATOM     22  C   UNL     1       4.117   1.729  19.452  0.00  0.00    +0.000 C 
ATOM     23  O   UNL     1       3.756   1.095  18.477  0.00  0.00    +0.000 OA
BRANCH  22  24
ATOM     24  O   UNL     1       5.263   1.448  20.106  0.00  0.00    +0.000 OA
ATOM     25  H   UNL     1       5.214   0.781  20.816  0.00  0.00    +0.000 HD
ENDBRANCH  22  24
ENDBRANCH  21  22
ENDBRANCH  13  16
ENDBRANCH   1  12
BRANCH   1  26
ATOM     26  C   UNL     1       7.043   6.609  17.863  0.00  0.00    +0.000 C 
BRANCH  26  27
ATOM     27  C   UNL     1       7.851   7.794  17.321  0.00  0.00    +0.000 C 
BRANCH  27  28
ATOM     28  C   UNL     1       8.344   8.655  18.477  0.00  0.00    +0.000 C 
BRANCH  28  31
ATOM     29  N   UNL     1       9.612  12.054  18.219  0.00  0.00    +0.000 NA
ATOM     30  C   UNL     1       9.279  10.947  18.810  0.00  0.00    +0.000 C 
ATOM     31  N   UNL     1       8.743   9.962  18.027  0.00  0.00    +0.000 N 
ATOM     32  H   UNL     1       9.992  12.704  18.923  0.00  0.00    +0.000 HD
ATOM     33  H   UNL     1       8.752  10.161  17.030  0.00  0.00    +0.000 HD
BRANCH  30  34
ATOM     34  C   UNL     1       9.466  10.720  20.307  0.00  0.00    +0.000 C 
ATOM     35 CL   UNL     1      10.287  12.087  21.080  0.00  0.00    +0.000 Cl
ENDBRANCH  30  34
ENDBRANCH  28  31
ENDBRANCH  27  28
ENDBRANCH  26  27
ENDBRANCH   1  26
TORSDOF 10
ENDMDL
MODEL 7
REMARK VINA RESULT:      -8.2      4.526      7.307
REMARK  Name = 
REMARK  10 active torsions:
REMARK  status: ('A' for Active; 'I' for Inactive)
REMARK    1  A    between atoms: C_2  and  C_3
REMARK    2  A    between atoms: N_5  and  C_6
REMARK    3  A    between atoms: C_6  and  C_7
REMARK    4  A    between atoms: C_7  and  C_8
REMARK    5  A    between atoms: C_8  and  C_9
REMARK    6  A    between atoms: C_9  and  N_10
REMARK    7  A    between atoms: C_9  and  C_22
REMARK    8  A    between atoms: C_11  and  C_13
REMARK    9  A    between atoms: C_18  and  C_19
REMARK   10  A    between atoms: C_19  and  O_21
REMARK                            x       y       z     vdW  Elec       q    Type
REMARK                         _______ _______ _______ _____ _____    ______ ____
ROOT
ATOM      1  C   UNL     1       2.615   6.400  20.334  0.00  0.00    +0.000 C 
ENDROOT
BRANCH   1   2
ATOM      2  C   UNL     1       3.628   6.080  19.277  0.00  0.00    +0.000 A 
ATOM      3  N   UNL     1       3.544   6.466  18.018  0.00  0.00    +0.000 NA
ATOM      4  C   UNL     1       4.648   5.954  17.397  0.00  0.00    +0.000 A 
ATOM      5  C   UNL     1       5.028   6.050  16.051  0.00  0.00    +0.000 A 
ATOM      6  C   UNL     1       6.203   5.417  15.635  0.00  0.00    +0.000 A 
ATOM      7  C   UNL     1       6.990   4.712  16.550  0.00  0.00    +0.000 A 
ATOM      8  C   UNL     1       6.635   4.622  17.906  0.00  0.00    +0.000 A 
ATOM      9  C   UNL     1       5.451   5.258  18.293  0.00  0.00    +0.000 A 
ATOM     10  N   UNL     1       4.792   5.370  19.491  0.00  0.00    +0.000 N 
ATOM     11  H   UNL     1       5.059   4.967  20.383  0.00  0.00    +0.000 HD
ENDBRANCH   1   2
BRANCH   1  12
ATOM     12  N   UNL     1       1.736   7.495  19.941  0.00  0.00    +0.000 N 
ATOM     13  C   UNL     1       1.386   8.556  20.740  0.00  0.00    +0.000 C 
ATOM     14  O   UNL     1       1.684   8.595  21.933  0.00  0.00    +0.000 OA
ATOM     15  H   UNL     1       1.766   7.658  18.942  0.00  0.00    +0.000 HD
BRANCH  13  16
ATOM     16  C   UNL     1       0.536   9.654  20.156  0.00  0.00    +0.000 A 
ATOM     17  C   UNL     1      -0.454  10.146  21.035  0.00  0.00    +0.000 A 
ATOM     18  C   UNL     1      -1.359  11.136  20.643  0.00  0.00    +0.000 A 
ATOM     19  C   UNL     1      -1.281  11.678  19.369  0.00  0.00    +0.000 A 
ATOM     20  C   UNL     1      -0.296  11.233  18.490  0.00  0.00    +0.000 A 
ATOM     21  C   UNL     1       0.602  10.207  18.860  0.00  0.00    +0.000 A 
BRANCH  21  22
ATOM     22  C   UNL     1       1.636   9.828  17.869  0.00  0.00    +0.000 C 
ATOM     23  O   UNL     1       1.676   8.735  17.335  0.00  0.00    +0.000 OA
BRANCH  22  24
ATOM     24  O   UNL     1       2.487  10.821  17.536  0.00  0.00    +0.000 OA
ATOM     25  H   UNL     1       2.252  11.360  16.757  0.00  0.00    +0.000 HD
ENDBRANCH  22  24
ENDBRANCH  21  22
ENDBRANCH  13  16
ENDBRANCH   1  12
BRANCH   1  26
ATOM     26  C   UNL     1       1.847   5.191  20.868  0.00  0.00    +0.000 C 
BRANCH  26  27
ATOM     27  C   UNL     1       1.182   4.363  19.762  0.00  0.00    +0.000 C 
BRANCH  27  28
ATOM     28  C   UNL     1       1.468   2.883  19.982  0.00  0.00    +0.000 C 
BRANCH  28  31
ATOM     29  N   UNL     1       5.001   2.022  19.930  0.00  0.00    +0.000 NA
ATOM     30  C   UNL     1       3.790   2.118  19.472  0.00  0.00    +0.000 C 
ATOM     31  N   UNL     1       2.851   2.657  20.307  0.00  0.00    +0.000 N 
ATOM     32  H   UNL     1       5.597   1.597  19.205  0.00  0.00    +0.000 HD
ATOM     33  H   UNL     1       3.220   3.024  21.180  0.00  0.00    +0.000 HD
BRANCH  30  34
ATOM     34  C   UNL     1       3.399   1.665  18.068  0.00  0.00    +0.000 C 
ATOM     35 CL   UNL     1       3.012   3.040  17.020  0.00  0.00    +0.000 Cl
ENDBRANCH  30  34
ENDBRANCH  28  31
ENDBRANCH  27  28
ENDBRANCH  26  27
ENDBRANCH   1  26
TORSDOF 10
ENDMDL
MODEL 8
REMARK VINA RESULT:      -8.2      0.872      1.089
REMARK  Name = 
REMARK  10 active torsions:
REMARK  status: ('A' for Active; 'I' for Inactive)
REMARK    1  A    between atoms: C_2  and  C_3
REMARK    2  A    between atoms: N_5  and  C_6
REMARK    3  A    between atoms: C_6  and  C_7
REMARK    4  A    between atoms: C_7  and  C_8
REMARK    5  A    between atoms: C_8  and  C_9
REMARK    6  A    between atoms: C_9  and  N_10
REMARK    7  A    between atoms: C_9  and  C_22
REMARK    8  A    between atoms: C_11  and  C_13
REMARK    9  A    between atoms: C_18  and  C_19
REMARK   10  A    between atoms: C_19  and  O_21
REMARK                            x       y       z     vdW  Elec       q    Type
REMARK                         _______ _______ _______ _____ _____    ______ ____
ROOT
ATOM      1  C   UNL     1       5.870   6.149  17.178  0.00  0.00    +0.000 C 
ENDROOT
BRANCH   1   2
ATOM      2  C   UNL     1       6.065   5.480  15.851  0.00  0.00    +0.000 A 
ATOM      3  N   UNL     1       7.108   5.664  15.066  0.00  0.00    +0.000 NA
ATOM      4  C   UNL     1       6.886   4.890  13.962  0.00  0.00    +0.000 A 
ATOM      5  C   UNL     1       7.676   4.740  12.814  0.00  0.00    +0.000 A 
ATOM      6  C   UNL     1       7.227   3.900  11.791  0.00  0.00    +0.000 A 
ATOM      7  C   UNL     1       6.018   3.212  11.919  0.00  0.00    +0.000 A 
ATOM      8  C   UNL     1       5.222   3.334  13.070  0.00  0.00    +0.000 A 
ATOM      9  C   UNL     1       5.691   4.187  14.074  0.00  0.00    +0.000 A 
ATOM     10  N   UNL     1       5.196   4.562  15.297  0.00  0.00    +0.000 N 
ATOM     11  H   UNL     1       4.320   4.276  15.723  0.00  0.00    +0.000 HD
ENDBRANCH   1   2
BRANCH   1  12
ATOM     12  N   UNL     1       5.097   5.328  18.101  0.00  0.00    +0.000 N 
ATOM     13  C   UNL     1       3.768   5.504  18.398  0.00  0.00    +0.000 C 
ATOM     14  O   UNL     1       3.141   6.486  18.001  0.00  0.00    +0.000 OA
ATOM     15  H   UNL     1       5.462   4.384  18.158  0.00  0.00    +0.000 HD
BRANCH  13  16
ATOM     16  C   UNL     1       3.089   4.515  19.309  0.00  0.00    +0.000 A 
ATOM     17  C   UNL     1       2.695   5.053  20.553  0.00  0.00    +0.000 A 
ATOM     18  C   UNL     1       2.090   4.266  21.537  0.00  0.00    +0.000 A 
ATOM     19  C   UNL     1       1.841   2.924  21.290  0.00  0.00    +0.000 A 
ATOM     20  C   UNL     1       2.192   2.372  20.060  0.00  0.00    +0.000 A 
ATOM     21  C   UNL     1       2.837   3.148  19.071  0.00  0.00    +0.000 A 
BRANCH  21  22
ATOM     22  C   UNL     1       3.138   2.480  17.783  0.00  0.00    +0.000 C 
ATOM     23  O   UNL     1       2.275   2.127  16.999  0.00  0.00    +0.000 OA
BRANCH  22  24
ATOM     24  O   UNL     1       4.453   2.367  17.502  0.00  0.00    +0.000 OA
ATOM     25  H   UNL     1       4.695   2.260  16.562  0.00  0.00    +0.000 HD
ENDBRANCH  22  24
ENDBRANCH  21  22
ENDBRANCH  13  16
ENDBRANCH   1  12
BRANCH   1  26
ATOM     26  C   UNL     1       7.150   6.700  17.809  0.00  0.00    +0.000 C 
BRANCH  26  27
ATOM     27  C   UNL     1       7.211   8.231  17.807  0.00  0.00    +0.000 C 
BRANCH  27  28
ATOM     28  C   UNL     1       8.656   8.690  17.955  0.00  0.00    +0.000 C 
BRANCH  28  31
ATOM     29  N   UNL     1       9.525  11.143  20.497  0.00  0.00    +0.000 NA
ATOM     30  C   UNL     1       9.467  10.629  19.306  0.00  0.00    +0.000 C 
ATOM     31  N   UNL     1       8.857   9.411  19.184  0.00  0.00    +0.000 N 
ATOM     32  H   UNL     1      10.012  12.049  20.443  0.00  0.00    +0.000 HD
ATOM     33  H   UNL     1       8.416   9.071  20.035  0.00  0.00    +0.000 HD
BRANCH  30  34
ATOM     34  C   UNL     1      10.038  11.327  18.075  0.00  0.00    +0.000 C 
ATOM     35 CL   UNL     1       9.791  13.080  18.143  0.00  0.00    +0.000 Cl
ENDBRANCH  30  34
ENDBRANCH  28  31
ENDBRANCH  27  28
ENDBRANCH  26  27
ENDBRANCH   1  26
TORSDOF 10
ENDMDL
MODEL 9
REMARK VINA RESULT:      -8.2      1.144      1.325
REMARK  Name = 
REMARK  10 active torsions:
REMARK  status: ('A' for Active; 'I' for Inactive)
REMARK    1  A    between atoms: C_2  and  C_3
REMARK    2  A    between atoms: N_5  and  C_6
REMARK    3  A    between atoms: C_6  and  C_7
REMARK    4  A    between atoms: C_7  and  C_8
REMARK    5  A    between atoms: C_8  and  C_9
REMARK    6  A    between atoms: C_9  and  N_10
REMARK    7  A    between atoms: C_9  and  C_22
REMARK    8  A    between atoms: C_11  and  C_13
REMARK    9  A    between atoms: C_18  and  C_19
REMARK   10  A    between atoms: C_19  and  O_21
REMARK                            x       y       z     vdW  Elec       q    Type
REMARK                         _______ _______ _______ _____ _____    ______ ____
ROOT
ATOM      1  C   UNL     1       5.800   6.353  17.119  0.00  0.00    +0.000 C 
ENDROOT
BRANCH   1   2
ATOM      2  C   UNL     1       6.010   5.625  15.826  0.00  0.00    +0.000 A 
ATOM      3  N   UNL     1       7.103   5.703  15.092  0.00  0.00    +0.000 NA
ATOM      4  C   UNL     1       6.878   4.910  14.002  0.00  0.00    +0.000 A 
ATOM      5  C   UNL     1       7.712   4.663  12.903  0.00  0.00    +0.000 A 
ATOM      6  C   UNL     1       7.252   3.823  11.884  0.00  0.00    +0.000 A 
ATOM      7  C   UNL     1       5.989   3.233  11.968  0.00  0.00    +0.000 A 
ATOM      8  C   UNL     1       5.148   3.454  13.071  0.00  0.00    +0.000 A 
ATOM      9  C   UNL     1       5.629   4.304  14.072  0.00  0.00    +0.000 A 
ATOM     10  N   UNL     1       5.102   4.757  15.254  0.00  0.00    +0.000 N 
ATOM     11  H   UNL     1       4.187   4.552  15.642  0.00  0.00    +0.000 HD
ENDBRANCH   1   2
BRANCH   1  12
ATOM     12  N   UNL     1       4.747   5.748  17.927  0.00  0.00    +0.000 N 
ATOM     13  C   UNL     1       4.915   4.687  18.782  0.00  0.00    +0.000 C 
ATOM     14  O   UNL     1       5.970   4.054  18.830  0.00  0.00    +0.000 OA
ATOM     15  H   UNL     1       4.021   6.416  18.156  0.00  0.00    +0.000 HD
BRANCH  13  16
ATOM     16  C   UNL     1       3.745   4.232  19.614  0.00  0.00    +0.000 A 
ATOM     17  C   UNL     1       2.934   5.284  20.092  0.00  0.00    +0.000 A 
ATOM     18  C   UNL     1       1.829   5.046  20.915  0.00  0.00    +0.000 A 
ATOM     19  C   UNL     1       1.493   3.746  21.260  0.00  0.00    +0.000 A 
ATOM     20  C   UNL     1       2.257   2.685  20.779  0.00  0.00    +0.000 A 
ATOM     21  C   UNL     1       3.397   2.914  19.977  0.00  0.00    +0.000 A 
BRANCH  21  22
ATOM     22  C   UNL     1       4.124   1.720  19.485  0.00  0.00    +0.000 C 
ATOM     23  O   UNL     1       3.770   1.080  18.511  0.00  0.00    +0.000 OA
BRANCH  22  24
ATOM     24  O   UNL     1       5.264   1.441  20.150  0.00  0.00    +0.000 OA
ATOM     25  H   UNL     1       5.310   1.721  21.084  0.00  0.00    +0.000 HD
ENDBRANCH  22  24
ENDBRANCH  21  22
ENDBRANCH  13  16
ENDBRANCH   1  12
BRANCH   1  26
ATOM     26  C   UNL     1       7.077   6.616  17.918  0.00  0.00    +0.000 C 
BRANCH  26  27
ATOM     27  C   UNL     1       7.926   7.753  17.336  0.00  0.00    +0.000 C 
BRANCH  27  28
ATOM     28  C   UNL     1       8.330   8.715  18.446  0.00  0.00    +0.000 C 
BRANCH  28  31
ATOM     29  N   UNL     1       9.202  12.205  17.910  0.00  0.00    +0.000 NA
ATOM     30  C   UNL     1       9.205  11.054  18.510  0.00  0.00    +0.000 C 
ATOM     31  N   UNL     1       8.437  10.065  17.960  0.00  0.00    +0.000 N 
ATOM     32  H   UNL     1       9.812  12.852  18.431  0.00  0.00    +0.000 HD
ATOM     33  H   UNL     1       8.014  10.304  17.067  0.00  0.00    +0.000 HD
BRANCH  30  34
ATOM     34  C   UNL     1      10.019  10.781  19.771  0.00  0.00    +0.000 C 
ATOM     35 CL   UNL     1       9.236  11.447  21.214  0.00  0.00    +0.000 Cl
ENDBRANCH  30  34
ENDBRANCH  28  31
ENDBRANCH  27  28
ENDBRANCH  26  27
ENDBRANCH   1  26
TORSDOF 10
ENDMDL
