MODEL 1
REMARK VINA RESULT:      -8.4      0.000      0.000
REMARK  Name = 
REMARK  10 active torsions:
REMARK  status: ('A' for Active; 'I' for Inactive)
REMARK    1  A    between atoms: C_2  and  C_5
REMARK    2  A    between atoms: C_8  and  C_9
REMARK    3  A    between atoms: C_9  and  S_10
REMARK    4  A    between atoms: S_10  and  C_11
REMARK    5  A    between atoms: N_19  and  C_20
REMARK    6  A    between atoms: C_20  and  C_21
REMARK    7  A    between atoms: C_21  and  C_22
REMARK    8  A    between atoms: C_22  and  C_23
REMARK    9  A    between atoms: C_23  and  C_24
REMARK   10  A    between atoms: C_24  and  C_25
REMARK                            x       y       z     vdW  Elec       q    Type
REMARK                         _______ _______ _______ _____ _____    ______ ____
ROOT
ATOM      1  C   UNL     1       1.378   9.646  19.159  0.00  0.00    +0.000 A 
ATOM      2  C   UNL     1       0.876   8.985  20.275  0.00  0.00    +0.000 A 
ATOM      3  C   UNL     1       0.080   9.708  21.172  0.00  0.00    +0.000 A 
ATOM      4  C   UNL     1      -0.052   9.340  22.513  0.00  0.00    +0.000 A 
ATOM      5  C   UNL     1      -0.740  10.180  23.387  0.00  0.00    +0.000 A 
ATOM      6  C   UNL     1      -1.400  11.318  22.911  0.00  0.00    +0.000 A 
ATOM      7  C   UNL     1      -1.346  11.661  21.555  0.00  0.00    +0.000 A 
ATOM      8  C   UNL     1      -0.566  10.887  20.694  0.00  0.00    +0.000 A 
ATOM      9  N   UNL     1      -0.315  11.232  19.391  0.00  0.00    +0.000 N 
ATOM     10  C   UNL     1       0.975  10.985  18.998  0.00  0.00    +0.000 A 
ENDROOT
BRANCH   1  11
ATOM     11  S   UNL     1       2.004   8.712  17.789  0.00  0.00    +0.000 S 
BRANCH  11  12
ATOM     12  C   UNL     1       2.446   7.134  18.589  0.00  0.00    +0.000 C 
BRANCH  12  16
ATOM     13  C   UNL     1       5.528   5.084  16.338  0.00  0.00    +0.000 A 
ATOM     14  C   UNL     1       4.518   4.358  16.991  0.00  0.00    +0.000 A 
ATOM     15  C   UNL     1       3.520   5.016  17.716  0.00  0.00    +0.000 A 
ATOM     16  C   UNL     1       3.505   6.416  17.795  0.00  0.00    +0.000 A 
ATOM     17  C   UNL     1       4.498   7.145  17.141  0.00  0.00    +0.000 A 
ATOM     18  C   UNL     1       5.512   6.481  16.423  0.00  0.00    +0.000 A 
BRANCH  13  20
ATOM     19  F   UNL     1       6.175   3.230  14.954  0.00  0.00    +0.000 F 
ATOM     20  C   UNL     1       6.596   4.394  15.521  0.00  0.00    +0.000 C 
ATOM     21  F   UNL     1       7.683   4.082  16.284  0.00  0.00    +0.000 F 
ATOM     22  F   UNL     1       7.066   5.166  14.504  0.00  0.00    +0.000 F 
ENDBRANCH  13  20
ENDBRANCH  12  16
ENDBRANCH  11  12
ENDBRANCH   1  11
BRANCH   9  23
ATOM     23  C   UNL     1      -1.305  10.707  18.372  0.00  0.00    +0.000 C 
BRANCH  23  24
ATOM     24  C   UNL     1      -2.106  11.786  17.651  0.00  0.00    +0.000 C 
BRANCH  24  25
ATOM     25  C   UNL     1      -3.240  11.046  16.909  0.00  0.00    +0.000 C 
BRANCH  25  26
ATOM     26  C   UNL     1      -4.537  10.827  17.677  0.00  0.00    +0.000 C 
BRANCH  26  27
ATOM     27  C   UNL     1      -5.417  12.073  17.722  0.00  0.00    +0.000 C 
BRANCH  27  28
ATOM     28  C   UNL     1      -6.898  11.761  18.032  0.00  0.00    +0.000 C 
ATOM     29  C   UNL     1      -7.101  10.927  19.307  0.00  0.00    +0.000 C 
ATOM     30  C   UNL     1      -6.701  11.697  20.561  0.00  0.00    +0.000 C 
ATOM     31  C   UNL     1      -7.473  13.010  20.671  0.00  0.00    +0.000 C 
ATOM     32  C   UNL     1      -7.371  13.861  19.408  0.00  0.00    +0.000 C 
ATOM     33  C   UNL     1      -7.708  13.066  18.145  0.00  0.00    +0.000 C 
ENDBRANCH  27  28
ENDBRANCH  26  27
ENDBRANCH  25  26
ENDBRANCH  24  25
ENDBRANCH  23  24
ENDBRANCH   9  23
TORSDOF 10
ENDMDL
MODEL 2
REMARK VINA RESULT:      -8.4      3.213      6.021
REMARK  Name = 
REMARK  10 active torsions:
REMARK  status: ('A' for Active; 'I' for Inactive)
REMARK    1  A    between atoms: C_2  and  C_5
REMARK    2  A    between atoms: C_8  and  C_9
REMARK    3  A    between atoms: C_9  and  S_10
REMARK    4  A    between atoms: S_10  and  C_11
REMARK    5  A    between atoms: N_19  and  C_20
REMARK    6  A    between atoms: C_20  and  C_21
REMARK    7  A    between atoms: C_21  and  C_22
REMARK    8  A    between atoms: C_22  and  C_23
REMARK    9  A    between atoms: C_23  and  C_24
REMARK   10  A    between atoms: C_24  and  C_25
REMARK                            x       y       z     vdW  Elec       q    Type
REMARK                         _______ _______ _______ _____ _____    ______ ____
ROOT
ATOM      1  C   UNL     1       4.186   5.646  18.190  0.00  0.00    +0.000 A 
ATOM      2  C   UNL     1       3.169   4.900  17.602  0.00  0.00    +0.000 A 
ATOM      3  C   UNL     1       2.269   4.231  18.441  0.00  0.00    +0.000 A 
ATOM      4  C   UNL     1       1.563   3.101  18.023  0.00  0.00    +0.000 A 
ATOM      5  C   UNL     1       0.794   2.395  18.947  0.00  0.00    +0.000 A 
ATOM      6  C   UNL     1       0.625   2.877  20.249  0.00  0.00    +0.000 A 
ATOM      7  C   UNL     1       1.261   4.053  20.664  0.00  0.00    +0.000 A 
ATOM      8  C   UNL     1       2.123   4.703  19.779  0.00  0.00    +0.000 A 
ATOM      9  N   UNL     1       2.917   5.761  20.141  0.00  0.00    +0.000 N 
ATOM     10  C   UNL     1       4.173   5.714  19.594  0.00  0.00    +0.000 A 
ENDROOT
BRANCH   1  11
ATOM     11  S   UNL     1       5.068   6.846  17.227  0.00  0.00    +0.000 S 
BRANCH  11  12
ATOM     12  C   UNL     1       6.618   5.958  16.860  0.00  0.00    +0.000 C 
BRANCH  12  16
ATOM     13  C   UNL     1       6.225   3.783  13.134  0.00  0.00    +0.000 A 
ATOM     14  C   UNL     1       7.287   4.681  13.328  0.00  0.00    +0.000 A 
ATOM     15  C   UNL     1       7.419   5.383  14.530  0.00  0.00    +0.000 A 
ATOM     16  C   UNL     1       6.496   5.193  15.569  0.00  0.00    +0.000 A 
ATOM     17  C   UNL     1       5.444   4.296  15.388  0.00  0.00    +0.000 A 
ATOM     18  C   UNL     1       5.304   3.600  14.171  0.00  0.00    +0.000 A 
BRANCH  13  20
ATOM     19  F   UNL     1       7.248   2.873  11.160  0.00  0.00    +0.000 F 
ATOM     20  C   UNL     1       6.083   2.990  11.855  0.00  0.00    +0.000 C 
ATOM     21  F   UNL     1       5.183   3.567  11.008  0.00  0.00    +0.000 F 
ATOM     22  F   UNL     1       5.635   1.722  12.066  0.00  0.00    +0.000 F 
ENDBRANCH  13  20
ENDBRANCH  12  16
ENDBRANCH  11  12
ENDBRANCH   1  11
BRANCH   9  23
ATOM     23  C   UNL     1       2.298   7.132  19.969  0.00  0.00    +0.000 C 
BRANCH  23  24
ATOM     24  C   UNL     1       1.131   7.424  20.906  0.00  0.00    +0.000 C 
BRANCH  24  25
ATOM     25  C   UNL     1       1.473   8.757  21.606  0.00  0.00    +0.000 C 
BRANCH  25  26
ATOM     26  C   UNL     1       0.340   9.762  21.766  0.00  0.00    +0.000 C 
BRANCH  26  27
ATOM     27  C   UNL     1      -0.557   9.844  20.534  0.00  0.00    +0.000 C 
BRANCH  27  28
ATOM     28  C   UNL     1       0.066  10.661  19.380  0.00  0.00    +0.000 C 
ATOM     29  C   UNL     1      -0.164  10.045  17.991  0.00  0.00    +0.000 C 
ATOM     30  C   UNL     1      -1.637  10.066  17.595  0.00  0.00    +0.000 C 
ATOM     31  C   UNL     1      -2.197  11.487  17.633  0.00  0.00    +0.000 C 
ATOM     32  C   UNL     1      -1.941  12.186  18.966  0.00  0.00    +0.000 C 
ATOM     33  C   UNL     1      -0.474  12.103  19.392  0.00  0.00    +0.000 C 
ENDBRANCH  27  28
ENDBRANCH  26  27
ENDBRANCH  25  26
ENDBRANCH  24  25
ENDBRANCH  23  24
ENDBRANCH   9  23
TORSDOF 10
ENDMDL
MODEL 3
REMARK VINA RESULT:      -8.2      0.920      1.242
REMARK  Name = 
REMARK  10 active torsions:
REMARK  status: ('A' for Active; 'I' for Inactive)
REMARK    1  A    between atoms: C_2  and  C_5
REMARK    2  A    between atoms: C_8  and  C_9
REMARK    3  A    between atoms: C_9  and  S_10
REMARK    4  A    between atoms: S_10  and  C_11
REMARK    5  A    between atoms: N_19  and  C_20
REMARK    6  A    between atoms: C_20  and  C_21
REMARK    7  A    between atoms: C_21  and  C_22
REMARK    8  A    between atoms: C_22  and  C_23
REMARK    9  A    between atoms: C_23  and  C_24
REMARK   10  A    between atoms: C_24  and  C_25
REMARK                            x       y       z     vdW  Elec       q    Type
REMARK                         _______ _______ _______ _____ _____    ______ ____
ROOT
ATOM      1  C   UNL     1       1.286   9.730  19.152  0.00  0.00    +0.000 A 
ATOM      2  C   UNL     1       0.754   9.096  20.270  0.00  0.00    +0.000 A 
ATOM      3  C   UNL     1      -0.054   9.845  21.134  0.00  0.00    +0.000 A 
ATOM      4  C   UNL     1      -0.219   9.506  22.479  0.00  0.00    +0.000 A 
ATOM      5  C   UNL     1      -0.917  10.370  23.321  0.00  0.00    +0.000 A 
ATOM      6  C   UNL     1      -1.555  11.504  22.808  0.00  0.00    +0.000 A 
ATOM      7  C   UNL     1      -1.469  11.819  21.447  0.00  0.00    +0.000 A 
ATOM      8  C   UNL     1      -0.678  11.020  20.619  0.00  0.00    +0.000 A 
ATOM      9  N   UNL     1      -0.395  11.336  19.314  0.00  0.00    +0.000 N 
ATOM     10  C   UNL     1       0.901  11.069  18.955  0.00  0.00    +0.000 A 
ENDROOT
BRANCH   1  11
ATOM     11  S   UNL     1       1.933   8.762  17.814  0.00  0.00    +0.000 S 
BRANCH  11  12
ATOM     12  C   UNL     1       2.574   7.299  18.695  0.00  0.00    +0.000 C 
BRANCH  12  16
ATOM     13  C   UNL     1       5.155   4.961  16.119  0.00  0.00    +0.000 A 
ATOM     14  C   UNL     1       4.182   4.333  16.914  0.00  0.00    +0.000 A 
ATOM     15  C   UNL     1       3.345   5.084  17.744  0.00  0.00    +0.000 A 
ATOM     16  C   UNL     1       3.457   6.482  17.789  0.00  0.00    +0.000 A 
ATOM     17  C   UNL     1       4.414   7.113  16.996  0.00  0.00    +0.000 A 
ATOM     18  C   UNL     1       5.267   6.355  16.170  0.00  0.00    +0.000 A 
BRANCH  13  20
ATOM     19  F   UNL     1       5.651   4.220  13.888  0.00  0.00    +0.000 F 
ATOM     20  C   UNL     1       6.047   4.170  15.189  0.00  0.00    +0.000 C 
ATOM     21  F   UNL     1       6.080   2.850  15.533  0.00  0.00    +0.000 F 
ATOM     22  F   UNL     1       7.341   4.592  15.211  0.00  0.00    +0.000 F 
ENDBRANCH  13  20
ENDBRANCH  12  16
ENDBRANCH  11  12
ENDBRANCH   1  11
BRANCH   9  23
ATOM     23  C   UNL     1      -1.368  10.800  18.286  0.00  0.00    +0.000 C 
BRANCH  23  24
ATOM     24  C   UNL     1      -2.658  11.603  18.152  0.00  0.00    +0.000 C 
BRANCH  24  25
ATOM     25  C   UNL     1      -3.734  10.601  17.683  0.00  0.00    +0.000 C 
BRANCH  25  26
ATOM     26  C   UNL     1      -5.174  10.900  18.081  0.00  0.00    +0.000 C 
BRANCH  26  27
ATOM     27  C   UNL     1      -5.319  12.225  18.824  0.00  0.00    +0.000 C 
BRANCH  27  28
ATOM     28  C   UNL     1      -5.916  12.066  20.241  0.00  0.00    +0.000 C 
ATOM     29  C   UNL     1      -5.030  12.649  21.354  0.00  0.00    +0.000 C 
ATOM     30  C   UNL     1      -4.919  14.167  21.257  0.00  0.00    +0.000 C 
ATOM     31  C   UNL     1      -6.298  14.823  21.293  0.00  0.00    +0.000 C 
ATOM     32  C   UNL     1      -7.255  14.242  20.255  0.00  0.00    +0.000 C 
ATOM     33  C   UNL     1      -7.311  12.713  20.311  0.00  0.00    +0.000 C 
ENDBRANCH  27  28
ENDBRANCH  26  27
ENDBRANCH  25  26
ENDBRANCH  24  25
ENDBRANCH  23  24
ENDBRANCH   9  23
TORSDOF 10
ENDMDL
MODEL 4
REMARK VINA RESULT:      -8.2      4.269      6.590
REMARK  Name = 
REMARK  10 active torsions:
REMARK  status: ('A' for Active; 'I' for Inactive)
REMARK    1  A    between atoms: C_2  and  C_5
REMARK    2  A    between atoms: C_8  and  C_9
REMARK    3  A    between atoms: C_9  and  S_10
REMARK    4  A    between atoms: S_10  and  C_11
REMARK    5  A    between atoms: N_19  and  C_20
REMARK    6  A    between atoms: C_20  and  C_21
REMARK    7  A    between atoms: C_21  and  C_22
REMARK    8  A    between atoms: C_22  and  C_23
REMARK    9  A    between atoms: C_23  and  C_24
REMARK   10  A    between atoms: C_24  and  C_25
REMARK                            x       y       z     vdW  Elec       q    Type
REMARK                         _______ _______ _______ _____ _____    ______ ____
ROOT
ATOM      1  C   UNL     1       5.539   4.506  18.728  0.00  0.00    +0.000 A 
ATOM      2  C   UNL     1       4.702   3.544  18.173  0.00  0.00    +0.000 A 
ATOM      3  C   UNL     1       3.379   3.477  18.626  0.00  0.00    +0.000 A 
ATOM      4  C   UNL     1       2.623   2.305  18.543  0.00  0.00    +0.000 A 
ATOM      5  C   UNL     1       1.365   2.260  19.141  0.00  0.00    +0.000 A 
ATOM      6  C   UNL     1       0.805   3.408  19.711  0.00  0.00    +0.000 A 
ATOM      7  C   UNL     1       1.515   4.615  19.733  0.00  0.00    +0.000 A 
ATOM      8  C   UNL     1       2.820   4.638  19.237  0.00  0.00    +0.000 A 
ATOM      9  N   UNL     1       3.654   5.720  19.363  0.00  0.00    +0.000 N 
ATOM     10  C   UNL     1       4.949   5.381  19.658  0.00  0.00    +0.000 A 
ENDROOT
BRANCH   1  11
ATOM     11  S   UNL     1       7.055   4.932  17.912  0.00  0.00    +0.000 S 
BRANCH  11  12
ATOM     12  C   UNL     1       6.457   5.983  16.547  0.00  0.00    +0.000 C 
BRANCH  12  16
ATOM     13  C   UNL     1       6.003   3.615  12.948  0.00  0.00    +0.000 A 
ATOM     14  C   UNL     1       4.932   3.765  13.844  0.00  0.00    +0.000 A 
ATOM     15  C   UNL     1       5.073   4.530  15.005  0.00  0.00    +0.000 A 
ATOM     16  C   UNL     1       6.287   5.172  15.290  0.00  0.00    +0.000 A 
ATOM     17  C   UNL     1       7.353   5.037  14.400  0.00  0.00    +0.000 A 
ATOM     18  C   UNL     1       7.214   4.254  13.238  0.00  0.00    +0.000 A 
BRANCH  13  20
ATOM     19  F   UNL     1       4.868   3.276  10.858  0.00  0.00    +0.000 F 
ATOM     20  C   UNL     1       5.861   2.820  11.670  0.00  0.00    +0.000 C 
ATOM     21  F   UNL     1       5.581   1.510  11.928  0.00  0.00    +0.000 F 
ATOM     22  F   UNL     1       6.996   2.816  10.920  0.00  0.00    +0.000 F 
ENDBRANCH  13  20
ENDBRANCH  12  16
ENDBRANCH  11  12
ENDBRANCH   1  11
BRANCH   9  23
ATOM     23  C   UNL     1       3.597   6.725  18.232  0.00  0.00    +0.000 C 
BRANCH  23  24
ATOM     24  C   UNL     1       2.189   7.120  17.803  0.00  0.00    +0.000 C 
BRANCH  24  25
ATOM     25  C   UNL     1       2.021   8.600  18.208  0.00  0.00    +0.000 C 
BRANCH  25  26
ATOM     26  C   UNL     1       0.660   9.234  17.956  0.00  0.00    +0.000 C 
BRANCH  26  27
ATOM     27  C   UNL     1       0.108   9.957  19.182  0.00  0.00    +0.000 C 
BRANCH  27  28
ATOM     28  C   UNL     1       1.059   9.907  20.398  0.00  0.00    +0.000 C 
ATOM     29  C   UNL     1       0.961  11.138  21.313  0.00  0.00    +0.000 C 
ATOM     30  C   UNL     1      -0.393  11.222  22.010  0.00  0.00    +0.000 C 
ATOM     31  C   UNL     1      -0.678   9.954  22.813  0.00  0.00    +0.000 C 
ATOM     32  C   UNL     1      -0.530   8.683  21.980  0.00  0.00    +0.000 C 
ATOM     33  C   UNL     1       0.802   8.636  21.228  0.00  0.00    +0.000 C 
ENDBRANCH  27  28
ENDBRANCH  26  27
ENDBRANCH  25  26
ENDBRANCH  24  25
ENDBRANCH  23  24
ENDBRANCH   9  23
TORSDOF 10
ENDMDL
MODEL 5
REMARK VINA RESULT:      -8.2      3.841      6.884
REMARK  Name = 
REMARK  10 active torsions:
REMARK  status: ('A' for Active; 'I' for Inactive)
REMARK    1  A    between atoms: C_2  and  C_5
REMARK    2  A    between atoms: C_8  and  C_9
REMARK    3  A    between atoms: C_9  and  S_10
REMARK    4  A    between atoms: S_10  and  C_11
REMARK    5  A    between atoms: N_19  and  C_20
REMARK    6  A    between atoms: C_20  and  C_21
REMARK    7  A    between atoms: C_21  and  C_22
REMARK    8  A    between atoms: C_22  and  C_23
REMARK    9  A    between atoms: C_23  and  C_24
REMARK   10  A    between atoms: C_24  and  C_25
REMARK                            x       y       z     vdW  Elec       q    Type
REMARK                         _______ _______ _______ _____ _____    ______ ____
ROOT
ATOM      1  C   UNL     1       1.059   9.828  18.101  0.00  0.00    +0.000 A 
ATOM      2  C   UNL     1       2.032  10.816  17.988  0.00  0.00    +0.000 A 
ATOM      3  C   UNL     1       1.838  12.019  18.679  0.00  0.00    +0.000 A 
ATOM      4  C   UNL     1       2.433  13.215  18.271  0.00  0.00    +0.000 A 
ATOM      5  C   UNL     1       2.087  14.403  18.911  0.00  0.00    +0.000 A 
ATOM      6  C   UNL     1       1.249  14.392  20.031  0.00  0.00    +0.000 A 
ATOM      7  C   UNL     1       0.705  13.192  20.505  0.00  0.00    +0.000 A 
ATOM      8  C   UNL     1       0.957  12.013  19.801  0.00  0.00    +0.000 A 
ATOM      9  N   UNL     1       0.341  10.821  20.083  0.00  0.00    +0.000 N 
ATOM     10  C   UNL     1      -0.014  10.110  18.966  0.00  0.00    +0.000 A 
ENDROOT
BRANCH   1  11
ATOM     11  S   UNL     1       1.437   8.161  17.630  0.00  0.00    +0.000 S 
BRANCH  11  12
ATOM     12  C   UNL     1       3.173   8.011  18.166  0.00  0.00    +0.000 C 
BRANCH  12  16
ATOM     13  C   UNL     1       5.277   5.013  15.853  0.00  0.00    +0.000 A 
ATOM     14  C   UNL     1       4.442   4.637  16.918  0.00  0.00    +0.000 A 
ATOM     15  C   UNL     1       3.760   5.601  17.665  0.00  0.00    +0.000 A 
ATOM     16  C   UNL     1       3.889   6.963  17.356  0.00  0.00    +0.000 A 
ATOM     17  C   UNL     1       4.708   7.344  16.294  0.00  0.00    +0.000 A 
ATOM     18  C   UNL     1       5.407   6.373  15.550  0.00  0.00    +0.000 A 
BRANCH  13  20
ATOM     19  F   UNL     1       7.316   4.266  14.825  0.00  0.00    +0.000 F 
ATOM     20  C   UNL     1       5.997   3.984  15.011  0.00  0.00    +0.000 C 
ATOM     21  F   UNL     1       5.444   3.882  13.768  0.00  0.00    +0.000 F 
ATOM     22  F   UNL     1       5.945   2.733  15.544  0.00  0.00    +0.000 F 
ENDBRANCH  13  20
ENDBRANCH  12  16
ENDBRANCH  11  12
ENDBRANCH   1  11
BRANCH   9  23
ATOM     23  C   UNL     1       1.051   9.939  21.089  0.00  0.00    +0.000 C 
BRANCH  23  24
ATOM     24  C   UNL     1       0.377   8.595  21.343  0.00  0.00    +0.000 C 
BRANCH  24  25
ATOM     25  C   UNL     1       1.488   7.532  21.210  0.00  0.00    +0.000 C 
BRANCH  25  26
ATOM     26  C   UNL     1       1.073   6.162  20.692  0.00  0.00    +0.000 C 
BRANCH  26  27
ATOM     27  C   UNL     1       2.186   5.124  20.803  0.00  0.00    +0.000 C 
BRANCH  27  28
ATOM     28  C   UNL     1       1.661   3.692  21.054  0.00  0.00    +0.000 C 
ATOM     29  C   UNL     1       0.668   3.202  19.988  0.00  0.00    +0.000 C 
ATOM     30  C   UNL     1       1.333   3.029  18.627  0.00  0.00    +0.000 C 
ATOM     31  C   UNL     1       2.520   2.072  18.711  0.00  0.00    +0.000 C 
ATOM     32  C   UNL     1       3.516   2.461  19.801  0.00  0.00    +0.000 C 
ATOM     33  C   UNL     1       2.834   2.700  21.150  0.00  0.00    +0.000 C 
ENDBRANCH  27  28
ENDBRANCH  26  27
ENDBRANCH  25  26
ENDBRANCH  24  25
ENDBRANCH  23  24
ENDBRANCH   9  23
TORSDOF 10
ENDMDL
MODEL 6
REMARK VINA RESULT:      -8.1      0.770      1.530
REMARK  Name = 
REMARK  10 active torsions:
REMARK  status: ('A' for Active; 'I' for Inactive)
REMARK    1  A    between atoms: C_2  and  C_5
REMARK    2  A    between atoms: C_8  and  C_9
REMARK    3  A    between atoms: C_9  and  S_10
REMARK    4  A    between atoms: S_10  and  C_11
REMARK    5  A    between atoms: N_19  and  C_20
REMARK    6  A    between atoms: C_20  and  C_21
REMARK    7  A    between atoms: C_21  and  C_22
REMARK    8  A    between atoms: C_22  and  C_23
REMARK    9  A    between atoms: C_23  and  C_24
REMARK   10  A    between atoms: C_24  and  C_25
REMARK                            x       y       z     vdW  Elec       q    Type
REMARK                         _______ _______ _______ _____ _____    ______ ____
ROOT
ATOM      1  C   UNL     1       1.388   9.563  19.220  0.00  0.00    +0.000 A 
ATOM      2  C   UNL     1       0.802   8.922  20.307  0.00  0.00    +0.000 A 
ATOM      3  C   UNL     1       0.022   9.686  21.184  0.00  0.00    +0.000 A 
ATOM      4  C   UNL     1      -0.184   9.310  22.514  0.00  0.00    +0.000 A 
ATOM      5  C   UNL     1      -0.848  10.183  23.375  0.00  0.00    +0.000 A 
ATOM      6  C   UNL     1      -1.413  11.368  22.892  0.00  0.00    +0.000 A 
ATOM      7  C   UNL     1      -1.286  11.724  21.544  0.00  0.00    +0.000 A 
ATOM      8  C   UNL     1      -0.526  10.910  20.700  0.00  0.00    +0.000 A 
ATOM      9  N   UNL     1      -0.204  11.254  19.413  0.00  0.00    +0.000 N 
ATOM     10  C   UNL     1       1.081  10.926  19.064  0.00  0.00    +0.000 A 
ENDROOT
BRANCH   1  11
ATOM     11  S   UNL     1       2.003   8.606  17.860  0.00  0.00    +0.000 S 
BRANCH  11  12
ATOM     12  C   UNL     1       2.836   7.232  18.723  0.00  0.00    +0.000 C 
BRANCH  12  16
ATOM     13  C   UNL     1       5.180   4.906  15.919  0.00  0.00    +0.000 A 
ATOM     14  C   UNL     1       5.366   6.293  16.026  0.00  0.00    +0.000 A 
ATOM     15  C   UNL     1       4.614   7.047  16.931  0.00  0.00    +0.000 A 
ATOM     16  C   UNL     1       3.666   6.427  17.758  0.00  0.00    +0.000 A 
ATOM     17  C   UNL     1       3.482   5.048  17.664  0.00  0.00    +0.000 A 
ATOM     18  C   UNL     1       4.230   4.290  16.742  0.00  0.00    +0.000 A 
BRANCH  13  20
ATOM     19  F   UNL     1       7.254   4.566  14.755  0.00  0.00    +0.000 F 
ATOM     20  C   UNL     1       6.007   4.067  14.971  0.00  0.00    +0.000 C 
ATOM     21  F   UNL     1       5.412   3.968  13.746  0.00  0.00    +0.000 F 
ATOM     22  F   UNL     1       6.177   2.789  15.405  0.00  0.00    +0.000 F 
ENDBRANCH  13  20
ENDBRANCH  12  16
ENDBRANCH  11  12
ENDBRANCH   1  11
BRANCH   9  23
ATOM     23  C   UNL     1      -1.187  10.809  18.351  0.00  0.00    +0.000 C 
BRANCH  23  24
ATOM     24  C   UNL     1      -1.793  11.942  17.530  0.00  0.00    +0.000 C 
BRANCH  24  25
ATOM     25  C   UNL     1      -2.931  11.306  16.704  0.00  0.00    +0.000 C 
BRANCH  25  26
ATOM     26  C   UNL     1      -3.535  10.016  17.241  0.00  0.00    +0.000 C 
BRANCH  26  27
ATOM     27  C   UNL     1      -4.508  10.253  18.393  0.00  0.00    +0.000 C 
BRANCH  27  28
ATOM     28  C   UNL     1      -5.389  11.507  18.197  0.00  0.00    +0.000 C 
ATOM     29  C   UNL     1      -6.897  11.227  18.305  0.00  0.00    +0.000 C 
ATOM     30  C   UNL     1      -7.299  10.811  19.716  0.00  0.00    +0.000 C 
ATOM     31  C   UNL     1      -6.892  11.869  20.739  0.00  0.00    +0.000 C 
ATOM     32  C   UNL     1      -5.416  12.247  20.642  0.00  0.00    +0.000 C 
ATOM     33  C   UNL     1      -5.001  12.598  19.211  0.00  0.00    +0.000 C 
ENDBRANCH  27  28
ENDBRANCH  26  27
ENDBRANCH  25  26
ENDBRANCH  24  25
ENDBRANCH  23  24
ENDBRANCH   9  23
TORSDOF 10
ENDMDL
MODEL 7
REMARK VINA RESULT:      -8.1      2.452      2.972
REMARK  Name = 
REMARK  10 active torsions:
REMARK  status: ('A' for Active; 'I' for Inactive)
REMARK    1  A    between atoms: C_2  and  C_5
REMARK    2  A    between atoms: C_8  and  C_9
REMARK    3  A    between atoms: C_9  and  S_10
REMARK    4  A    between atoms: S_10  and  C_11
REMARK    5  A    between atoms: N_19  and  C_20
REMARK    6  A    between atoms: C_20  and  C_21
REMARK    7  A    between atoms: C_21  and  C_22
REMARK    8  A    between atoms: C_22  and  C_23
REMARK    9  A    between atoms: C_23  and  C_24
REMARK   10  A    between atoms: C_24  and  C_25
REMARK                            x       y       z     vdW  Elec       q    Type
REMARK                         _______ _______ _______ _____ _____    ______ ____
ROOT
ATOM      1  C   UNL     1       1.427   9.580  18.994  0.00  0.00    +0.000 A 
ATOM      2  C   UNL     1       1.005   8.883  20.122  0.00  0.00    +0.000 A 
ATOM      3  C   UNL     1       0.258   9.572  21.085  0.00  0.00    +0.000 A 
ATOM      4  C   UNL     1       0.215   9.168  22.421  0.00  0.00    +0.000 A 
ATOM      5  C   UNL     1      -0.426   9.976  23.359  0.00  0.00    +0.000 A 
ATOM      6  C   UNL     1      -1.129  11.117  22.955  0.00  0.00    +0.000 A 
ATOM      7  C   UNL     1      -1.165  11.494  21.608  0.00  0.00    +0.000 A 
ATOM      8  C   UNL     1      -0.431  10.754  20.679  0.00  0.00    +0.000 A 
ATOM      9  N   UNL     1      -0.267  11.135  19.372  0.00  0.00    +0.000 N 
ATOM     10  C   UNL     1       0.999  10.916  18.894  0.00  0.00    +0.000 A 
ENDROOT
BRANCH   1  11
ATOM     11  S   UNL     1       1.977   8.689  17.563  0.00  0.00    +0.000 S 
BRANCH  11  12
ATOM     12  C   UNL     1       3.364   7.720  18.243  0.00  0.00    +0.000 C 
BRANCH  12  16
ATOM     13  C   UNL     1       2.135   3.645  19.052  0.00  0.00    +0.000 A 
ATOM     14  C   UNL     1       3.063   4.290  19.886  0.00  0.00    +0.000 A 
ATOM     15  C   UNL     1       3.460   5.605  19.630  0.00  0.00    +0.000 A 
ATOM     16  C   UNL     1       2.929   6.309  18.539  0.00  0.00    +0.000 A 
ATOM     17  C   UNL     1       1.999   5.679  17.712  0.00  0.00    +0.000 A 
ATOM     18  C   UNL     1       1.610   4.349  17.962  0.00  0.00    +0.000 A 
BRANCH  13  20
ATOM     19  F   UNL     1       2.508   1.281  18.849  0.00  0.00    +0.000 F 
ATOM     20  C   UNL     1       1.666   2.235  19.331  0.00  0.00    +0.000 C 
ATOM     21  F   UNL     1       0.446   1.996  18.769  0.00  0.00    +0.000 F 
ATOM     22  F   UNL     1       1.519   1.979  20.660  0.00  0.00    +0.000 F 
ENDBRANCH  13  20
ENDBRANCH  12  16
ENDBRANCH  11  12
ENDBRANCH   1  11
BRANCH   9  23
ATOM     23  C   UNL     1      -1.313  10.623  18.405  0.00  0.00    +0.000 C 
BRANCH  23  24
ATOM     24  C   UNL     1      -2.709  11.198  18.616  0.00  0.00    +0.000 C 
BRANCH  24  25
ATOM     25  C   UNL     1      -3.262  11.497  17.205  0.00  0.00    +0.000 C 
BRANCH  25  26
ATOM     26  C   UNL     1      -4.722  11.151  16.950  0.00  0.00    +0.000 C 
BRANCH  26  27
ATOM     27  C   UNL     1      -5.654  12.345  17.131  0.00  0.00    +0.000 C 
BRANCH  27  28
ATOM     28  C   UNL     1      -6.974  11.984  17.849  0.00  0.00    +0.000 C 
ATOM     29  C   UNL     1      -6.777  11.156  19.129  0.00  0.00    +0.000 C 
ATOM     30  C   UNL     1      -6.067  11.954  20.218  0.00  0.00    +0.000 C 
ATOM     31  C   UNL     1      -6.825  13.240  20.542  0.00  0.00    +0.000 C 
ATOM     32  C   UNL     1      -7.117  14.080  19.302  0.00  0.00    +0.000 C 
ATOM     33  C   UNL     1      -7.768  13.259  18.186  0.00  0.00    +0.000 C 
ENDBRANCH  27  28
ENDBRANCH  26  27
ENDBRANCH  25  26
ENDBRANCH  24  25
ENDBRANCH  23  24
ENDBRANCH   9  23
TORSDOF 10
ENDMDL
MODEL 8
REMARK VINA RESULT:      -8.1      3.722      6.401
REMARK  Name = 
REMARK  10 active torsions:
REMARK  status: ('A' for Active; 'I' for Inactive)
REMARK    1  A    between atoms: C_2  and  C_5
REMARK    2  A    between atoms: C_8  and  C_9
REMARK    3  A    between atoms: C_9  and  S_10
REMARK    4  A    between atoms: S_10  and  C_11
REMARK    5  A    between atoms: N_19  and  C_20
REMARK    6  A    between atoms: C_20  and  C_21
REMARK    7  A    between atoms: C_21  and  C_22
REMARK    8  A    between atoms: C_22  and  C_23
REMARK    9  A    between atoms: C_23  and  C_24
REMARK   10  A    between atoms: C_24  and  C_25
REMARK                            x       y       z     vdW  Elec       q    Type
REMARK                         _______ _______ _______ _____ _____    ______ ____
ROOT
ATOM      1  C   UNL     1       5.631   4.522  19.024  0.00  0.00    +0.000 A 
ATOM      2  C   UNL     1       4.927   3.339  18.819  0.00  0.00    +0.000 A 
ATOM      3  C   UNL     1       3.575   3.301  19.183  0.00  0.00    +0.000 A 
ATOM      4  C   UNL     1       2.924   2.106  19.497  0.00  0.00    +0.000 A 
ATOM      5  C   UNL     1       1.621   2.148  19.991  0.00  0.00    +0.000 A 
ATOM      6  C   UNL     1       0.922   3.359  20.057  0.00  0.00    +0.000 A 
ATOM      7  C   UNL     1       1.532   4.558  19.670  0.00  0.00    +0.000 A 
ATOM      8  C   UNL     1       2.873   4.539  19.282  0.00  0.00    +0.000 A 
ATOM      9  N   UNL     1       3.605   5.674  19.046  0.00  0.00    +0.000 N 
ATOM     10  C   UNL     1       4.888   5.607  19.524  0.00  0.00    +0.000 A 
ENDROOT
BRANCH   1  11
ATOM     11  S   UNL     1       7.180   4.779  18.202  0.00  0.00    +0.000 S 
BRANCH  11  12
ATOM     12  C   UNL     1       6.700   5.912  16.856  0.00  0.00    +0.000 C 
BRANCH  12  16
ATOM     13  C   UNL     1       6.252   3.778  13.113  0.00  0.00    +0.000 A 
ATOM     14  C   UNL     1       7.257   4.747  13.266  0.00  0.00    +0.000 A 
ATOM     15  C   UNL     1       7.407   5.436  14.473  0.00  0.00    +0.000 A 
ATOM     16  C   UNL     1       6.560   5.162  15.558  0.00  0.00    +0.000 A 
ATOM     17  C   UNL     1       5.566   4.195  15.417  0.00  0.00    +0.000 A 
ATOM     18  C   UNL     1       5.406   3.511  14.195  0.00  0.00    +0.000 A 
BRANCH  13  20
ATOM     19  F   UNL     1       5.488   3.706  10.836  0.00  0.00    +0.000 F 
ATOM     20  C   UNL     1       6.094   2.997  11.828  0.00  0.00    +0.000 C 
ATOM     21  F   UNL     1       5.343   1.874  12.016  0.00  0.00    +0.000 F 
ATOM     22  F   UNL     1       7.282   2.569  11.320  0.00  0.00    +0.000 F 
ENDBRANCH  13  20
ENDBRANCH  12  16
ENDBRANCH  11  12
ENDBRANCH   1  11
BRANCH   9  23
ATOM     23  C   UNL     1       3.580   6.184  17.620  0.00  0.00    +0.000 C 
BRANCH  23  24
ATOM     24  C   UNL     1       3.546   7.703  17.490  0.00  0.00    +0.000 C 
BRANCH  24  25
ATOM     25  C   UNL     1       2.308   8.169  18.285  0.00  0.00    +0.000 C 
BRANCH  25  26
ATOM     26  C   UNL     1       1.864   9.612  18.086  0.00  0.00    +0.000 C 
BRANCH  26  27
ATOM     27  C   UNL     1       0.346   9.763  18.034  0.00  0.00    +0.000 C 
BRANCH  27  28
ATOM     28  C   UNL     1      -0.237  10.473  19.276  0.00  0.00    +0.000 C 
ATOM     29  C   UNL     1       0.672  11.574  19.845  0.00  0.00    +0.000 C 
ATOM     30  C   UNL     1       0.814  12.748  18.883  0.00  0.00    +0.000 C 
ATOM     31  C   UNL     1      -0.549  13.335  18.525  0.00  0.00    +0.000 C 
ATOM     32  C   UNL     1      -1.530  12.281  18.016  0.00  0.00    +0.000 C 
ATOM     33  C   UNL     1      -1.618  11.073  18.951  0.00  0.00    +0.000 C 
ENDBRANCH  27  28
ENDBRANCH  26  27
ENDBRANCH  25  26
ENDBRANCH  24  25
ENDBRANCH  23  24
ENDBRANCH   9  23
TORSDOF 10
ENDMDL
MODEL 9
REMARK VINA RESULT:      -8.1      1.001      1.277
REMARK  Name = 
REMARK  10 active torsions:
REMARK  status: ('A' for Active; 'I' for Inactive)
REMARK    1  A    between atoms: C_2  and  C_5
REMARK    2  A    between atoms: C_8  and  C_9
REMARK    3  A    between atoms: C_9  and  S_10
REMARK    4  A    between atoms: S_10  and  C_11
REMARK    5  A    between atoms: N_19  and  C_20
REMARK    6  A    between atoms: C_20  and  C_21
REMARK    7  A    between atoms: C_21  and  C_22
REMARK    8  A    between atoms: C_22  and  C_23
REMARK    9  A    between atoms: C_23  and  C_24
REMARK   10  A    between atoms: C_24  and  C_25
REMARK                            x       y       z     vdW  Elec       q    Type
REMARK                         _______ _______ _______ _____ _____    ______ ____
ROOT
ATOM      1  C   UNL     1       1.252   9.842  19.220  0.00  0.00    +0.000 A 
ATOM      2  C   UNL     1       0.515   9.261  20.247  0.00  0.00    +0.000 A 
ATOM      3  C   UNL     1      -0.222  10.103  21.090  0.00  0.00    +0.000 A 
ATOM      4  C   UNL     1      -0.567   9.733  22.392  0.00  0.00    +0.000 A 
ATOM      5  C   UNL     1      -1.174  10.668  23.229  0.00  0.00    +0.000 A 
ATOM      6  C   UNL     1      -1.550  11.924  22.741  0.00  0.00    +0.000 A 
ATOM      7  C   UNL     1      -1.285  12.284  21.415  0.00  0.00    +0.000 A 
ATOM      8  C   UNL     1      -0.576  11.396  20.603  0.00  0.00    +0.000 A 
ATOM      9  N   UNL     1      -0.123  11.718  19.350  0.00  0.00    +0.000 N 
ATOM     10  C   UNL     1       1.131  11.236  19.080  0.00  0.00    +0.000 A 
ENDROOT
BRANCH   1  11
ATOM     11  S   UNL     1       1.836   8.838  17.879  0.00  0.00    +0.000 S 
BRANCH  11  12
ATOM     12  C   UNL     1       2.511   7.395  18.766  0.00  0.00    +0.000 C 
BRANCH  12  16
ATOM     13  C   UNL     1       5.109   5.076  16.189  0.00  0.00    +0.000 A 
ATOM     14  C   UNL     1       4.061   4.457  16.888  0.00  0.00    +0.000 A 
ATOM     15  C   UNL     1       3.218   5.202  17.719  0.00  0.00    +0.000 A 
ATOM     16  C   UNL     1       3.401   6.586  17.859  0.00  0.00    +0.000 A 
ATOM     17  C   UNL     1       4.434   7.210  17.160  0.00  0.00    +0.000 A 
ATOM     18  C   UNL     1       5.291   6.456  16.334  0.00  0.00    +0.000 A 
BRANCH  13  20
ATOM     19  F   UNL     1       5.611   4.335  13.959  0.00  0.00    +0.000 F 
ATOM     20  C   UNL     1       6.010   4.295  15.260  0.00  0.00    +0.000 C 
ATOM     21  F   UNL     1       6.062   2.977  15.608  0.00  0.00    +0.000 F 
ATOM     22  F   UNL     1       7.298   4.734  15.277  0.00  0.00    +0.000 F 
ENDBRANCH  13  20
ENDBRANCH  12  16
ENDBRANCH  11  12
ENDBRANCH   1  11
BRANCH   9  23
ATOM     23  C   UNL     1      -1.078  11.421  18.212  0.00  0.00    +0.000 C 
BRANCH  23  24
ATOM     24  C   UNL     1      -2.524  11.194  18.640  0.00  0.00    +0.000 C 
BRANCH  24  25
ATOM     25  C   UNL     1      -3.344  11.109  17.335  0.00  0.00    +0.000 C 
BRANCH  25  26
ATOM     26  C   UNL     1      -4.825  11.452  17.427  0.00  0.00    +0.000 C 
BRANCH  26  27
ATOM     27  C   UNL     1      -5.330  11.508  18.866  0.00  0.00    +0.000 C 
BRANCH  27  28
ATOM     28  C   UNL     1      -5.832  12.909  19.280  0.00  0.00    +0.000 C 
ATOM     29  C   UNL     1      -7.271  12.917  19.820  0.00  0.00    +0.000 C 
ATOM     30  C   UNL     1      -7.387  12.168  21.143  0.00  0.00    +0.000 C 
ATOM     31  C   UNL     1      -6.436  12.747  22.189  0.00  0.00    +0.000 C 
ATOM     32  C   UNL     1      -4.995  12.834  21.693  0.00  0.00    +0.000 C 
ATOM     33  C   UNL     1      -4.892  13.526  20.332  0.00  0.00    +0.000 C 
ENDBRANCH  27  28
ENDBRANCH  26  27
ENDBRANCH  25  26
ENDBRANCH  24  25
ENDBRANCH  23  24
ENDBRANCH   9  23
TORSDOF 10
ENDMDL
