MODEL 1
REMARK VINA RESULT:      -6.5      0.000      0.000
REMARK  Name = 
REMARK  4 active torsions:
REMARK  status: ('A' for Active; 'I' for Inactive)
REMARK    1  A    between atoms: C_1  and  C_2
REMARK    2  A    between atoms: C_4  and  C_5
REMARK    3  A    between atoms: N_12  and  C_13
REMARK    4  A    between atoms: N_12  and  C_14
REMARK                            x       y       z     vdW  Elec       q    Type
REMARK                         _______ _______ _______ _____ _____    ______ ____
ROOT
ATOM      1  C   UNL     1       4.297   2.131  19.698  0.00  0.00    +0.000 C 
ATOM      2  C   UNL     1       3.936   3.536  19.315  0.00  0.00    +0.000 A 
ATOM      3  C   UNL     1       4.415   4.093  18.138  0.00  0.00    +0.000 A 
ATOM      4  C   UNL     1       4.069   5.408  17.776  0.00  0.00    +0.000 A 
ATOM      5  C   UNL     1       4.633   5.972  16.505  0.00  0.00    +0.000 C 
ATOM      6  C   UNL     1       3.197   6.115  18.658  0.00  0.00    +0.000 A 
ATOM      7  C   UNL     1       2.810   5.445  19.810  0.00  0.00    +0.000 A 
ATOM      8  N   UNL     1       3.136   4.186  20.168  0.00  0.00    +0.000 NA
ATOM      9  S   UNL     1       1.857   6.380  20.840  0.00  0.00    +0.000 S 
ATOM     10  C   UNL     1       1.811   7.728  19.755  0.00  0.00    +0.000 A 
ATOM     11  C   UNL     1       1.151   8.983  19.946  0.00  0.00    +0.000 A 
ATOM     12  N   UNL     1       0.459   9.359  21.092  0.00  0.00    +0.000 N 
ATOM     13  C   UNL     1       0.271  10.785  21.326  0.00  0.00    +0.000 C 
ATOM     14  C   UNL     1      -0.530   8.488  21.710  0.00  0.00    +0.000 C 
ATOM     15  N   UNL     1       1.326   9.915  18.968  0.00  0.00    +0.000 NA
ATOM     16  C   UNL     1       2.079   9.665  17.886  0.00  0.00    +0.000 A 
ATOM     17  C   UNL     1       2.735   8.477  17.663  0.00  0.00    +0.000 A 
ATOM     18  C   UNL     1       2.607   7.454  18.627  0.00  0.00    +0.000 A 
ENDROOT
TORSDOF 0
ENDMDL
MODEL 2
REMARK VINA RESULT:      -6.4      1.359      5.612
REMARK  Name = 
REMARK  4 active torsions:
REMARK  status: ('A' for Active; 'I' for Inactive)
REMARK    1  A    between atoms: C_1  and  C_2
REMARK    2  A    between atoms: C_4  and  C_5
REMARK    3  A    between atoms: N_12  and  C_13
REMARK    4  A    between atoms: N_12  and  C_14
REMARK                            x       y       z     vdW  Elec       q    Type
REMARK                         _______ _______ _______ _____ _____    ______ ____
ROOT
ATOM      1  C   UNL     1      -0.176   9.498  22.168  0.00  0.00    +0.000 C 
ATOM      2  C   UNL     1       0.633   8.741  21.157  0.00  0.00    +0.000 A 
ATOM      3  C   UNL     1       1.092   9.366  20.006  0.00  0.00    +0.000 A 
ATOM      4  C   UNL     1       1.857   8.656  19.063  0.00  0.00    +0.000 A 
ATOM      5  C   UNL     1       2.308   9.372  17.823  0.00  0.00    +0.000 C 
ATOM      6  C   UNL     1       2.150   7.291  19.360  0.00  0.00    +0.000 A 
ATOM      7  C   UNL     1       1.611   6.787  20.535  0.00  0.00    +0.000 A 
ATOM      8  N   UNL     1       0.876   7.457  21.447  0.00  0.00    +0.000 NA
ATOM      9  S   UNL     1       1.926   5.147  20.767  0.00  0.00    +0.000 S 
ATOM     10  C   UNL     1       2.902   5.019  19.344  0.00  0.00    +0.000 A 
ATOM     11  C   UNL     1       3.564   3.856  18.838  0.00  0.00    +0.000 A 
ATOM     12  N   UNL     1       3.488   2.584  19.395  0.00  0.00    +0.000 N 
ATOM     13  C   UNL     1       3.797   1.452  18.531  0.00  0.00    +0.000 C 
ATOM     14  C   UNL     1       3.691   2.358  20.818  0.00  0.00    +0.000 C 
ATOM     15  N   UNL     1       4.217   3.998  17.651  0.00  0.00    +0.000 NA
ATOM     16  C   UNL     1       4.234   5.168  16.994  0.00  0.00    +0.000 A 
ATOM     17  C   UNL     1       3.609   6.310  17.439  0.00  0.00    +0.000 A 
ATOM     18  C   UNL     1       2.910   6.252  18.664  0.00  0.00    +0.000 A 
ENDROOT
TORSDOF 0
ENDMDL
MODEL 3
REMARK VINA RESULT:      -6.3      1.704      3.078
REMARK  Name = 
REMARK  4 active torsions:
REMARK  status: ('A' for Active; 'I' for Inactive)
REMARK    1  A    between atoms: C_1  and  C_2
REMARK    2  A    between atoms: C_4  and  C_5
REMARK    3  A    between atoms: N_12  and  C_13
REMARK    4  A    between atoms: N_12  and  C_14
REMARK                            x       y       z     vdW  Elec       q    Type
REMARK                         _______ _______ _______ _____ _____    ______ ____
ROOT
ATOM      1  C   UNL     1       5.030   4.045  16.956  0.00  0.00    +0.000 C 
ATOM      2  C   UNL     1       4.143   4.866  17.845  0.00  0.00    +0.000 A 
ATOM      3  C   UNL     1       3.631   4.334  19.020  0.00  0.00    +0.000 A 
ATOM      4  C   UNL     1       2.805   5.108  19.856  0.00  0.00    +0.000 A 
ATOM      5  C   UNL     1       2.259   4.477  21.104  0.00  0.00    +0.000 C 
ATOM      6  C   UNL     1       2.545   6.450  19.448  0.00  0.00    +0.000 A 
ATOM      7  C   UNL     1       3.103   6.847  18.240  0.00  0.00    +0.000 A 
ATOM      8  N   UNL     1       3.895   6.114  17.431  0.00  0.00    +0.000 NA
ATOM      9  S   UNL     1       2.674   8.413  17.787  0.00  0.00    +0.000 S 
ATOM     10  C   UNL     1       1.785   8.710  19.242  0.00  0.00    +0.000 A 
ATOM     11  C   UNL     1       1.082   9.900  19.610  0.00  0.00    +0.000 A 
ATOM     12  N   UNL     1       0.949  11.032  18.813  0.00  0.00    +0.000 N 
ATOM     13  C   UNL     1      -0.159  11.933  19.104  0.00  0.00    +0.000 C 
ATOM     14  C   UNL     1       2.093  11.642  18.152  0.00  0.00    +0.000 C 
ATOM     15  N   UNL     1       0.394   9.859  20.785  0.00  0.00    +0.000 NA
ATOM     16  C   UNL     1       0.379   8.758  21.552  0.00  0.00    +0.000 A 
ATOM     17  C   UNL     1       1.035   7.591  21.236  0.00  0.00    +0.000 A 
ATOM     18  C   UNL     1       1.775   7.547  20.035  0.00  0.00    +0.000 A 
ENDROOT
TORSDOF 0
ENDMDL
MODEL 4
REMARK VINA RESULT:      -6.2      2.974      4.829
REMARK  Name = 
REMARK  4 active torsions:
REMARK  status: ('A' for Active; 'I' for Inactive)
REMARK    1  A    between atoms: C_1  and  C_2
REMARK    2  A    between atoms: C_4  and  C_5
REMARK    3  A    between atoms: N_12  and  C_13
REMARK    4  A    between atoms: N_12  and  C_14
REMARK                            x       y       z     vdW  Elec       q    Type
REMARK                         _______ _______ _______ _____ _____    ______ ____
ROOT
ATOM      1  C   UNL     1       6.552   3.999  13.753  0.00  0.00    +0.000 C 
ATOM      2  C   UNL     1       5.786   4.481  14.949  0.00  0.00    +0.000 A 
ATOM      3  C   UNL     1       5.776   5.828  15.287  0.00  0.00    +0.000 A 
ATOM      4  C   UNL     1       5.051   6.279  16.405  0.00  0.00    +0.000 A 
ATOM      5  C   UNL     1       5.093   7.742  16.741  0.00  0.00    +0.000 C 
ATOM      6  C   UNL     1       4.323   5.300  17.145  0.00  0.00    +0.000 A 
ATOM      7  C   UNL     1       4.438   3.987  16.709  0.00  0.00    +0.000 A 
ATOM      8  N   UNL     1       5.130   3.542  15.640  0.00  0.00    +0.000 NA
ATOM      9  S   UNL     1       3.623   2.883  17.689  0.00  0.00    +0.000 S 
ATOM     10  C   UNL     1       2.969   4.110  18.719  0.00  0.00    +0.000 A 
ATOM     11  C   UNL     1       2.119   3.936  19.857  0.00  0.00    +0.000 A 
ATOM     12  N   UNL     1       1.709   2.712  20.372  0.00  0.00    +0.000 N 
ATOM     13  C   UNL     1       1.272   2.679  21.762  0.00  0.00    +0.000 C 
ATOM     14  C   UNL     1       1.159   1.669  19.518  0.00  0.00    +0.000 C 
ATOM     15  N   UNL     1       1.796   5.064  20.550  0.00  0.00    +0.000 NA
ATOM     16  C   UNL     1       2.253   6.270  20.182  0.00  0.00    +0.000 A 
ATOM     17  C   UNL     1       3.075   6.485  19.099  0.00  0.00    +0.000 A 
ATOM     18  C   UNL     1       3.458   5.370  18.323  0.00  0.00    +0.000 A 
ENDROOT
TORSDOF 0
ENDMDL
MODEL 5
REMARK VINA RESULT:      -6.1      2.158      3.664
REMARK  Name = 
REMARK  4 active torsions:
REMARK  status: ('A' for Active; 'I' for Inactive)
REMARK    1  A    between atoms: C_1  and  C_2
REMARK    2  A    between atoms: C_4  and  C_5
REMARK    3  A    between atoms: N_12  and  C_13
REMARK    4  A    between atoms: N_12  and  C_14
REMARK                            x       y       z     vdW  Elec       q    Type
REMARK                         _______ _______ _______ _____ _____    ______ ____
ROOT
ATOM      1  C   UNL     1       4.772   6.114  16.594  0.00  0.00    +0.000 C 
ATOM      2  C   UNL     1       3.812   6.628  17.626  0.00  0.00    +0.000 A 
ATOM      3  C   UNL     1       3.465   5.848  18.720  0.00  0.00    +0.000 A 
ATOM      4  C   UNL     1       2.570   6.335  19.690  0.00  0.00    +0.000 A 
ATOM      5  C   UNL     1       2.209   5.441  20.842  0.00  0.00    +0.000 C 
ATOM      6  C   UNL     1       2.066   7.657  19.503  0.00  0.00    +0.000 A 
ATOM      7  C   UNL     1       2.480   8.317  18.355  0.00  0.00    +0.000 A 
ATOM      8  N   UNL     1       3.337   7.861  17.417  0.00  0.00    +0.000 NA
ATOM      9  S   UNL     1       1.770   9.835  18.163  0.00  0.00    +0.000 S 
ATOM     10  C   UNL     1       0.928   9.755  19.672  0.00  0.00    +0.000 A 
ATOM     11  C   UNL     1       0.058  10.738  20.242  0.00  0.00    +0.000 A 
ATOM     12  N   UNL     1      -0.308  11.934  19.635  0.00  0.00    +0.000 N 
ATOM     13  C   UNL     1      -1.532  12.575  20.096  0.00  0.00    +0.000 C 
ATOM     14  C   UNL     1       0.679  12.823  19.041  0.00  0.00    +0.000 C 
ATOM     15  N   UNL     1      -0.546  10.405  21.417  0.00  0.00    +0.000 NA
ATOM     16  C   UNL     1      -0.333   9.217  22.005  0.00  0.00    +0.000 A 
ATOM     17  C   UNL     1       0.491   8.242  21.492  0.00  0.00    +0.000 A 
ATOM     18  C   UNL     1       1.158   8.504  20.277  0.00  0.00    +0.000 A 
ENDROOT
TORSDOF 0
ENDMDL
MODEL 6
REMARK VINA RESULT:      -6.0      1.198      1.350
REMARK  Name = 
REMARK  4 active torsions:
REMARK  status: ('A' for Active; 'I' for Inactive)
REMARK    1  A    between atoms: C_1  and  C_2
REMARK    2  A    between atoms: C_4  and  C_5
REMARK    3  A    between atoms: N_12  and  C_13
REMARK    4  A    between atoms: N_12  and  C_14
REMARK                            x       y       z     vdW  Elec       q    Type
REMARK                         _______ _______ _______ _____ _____    ______ ____
ROOT
ATOM      1  C   UNL     1       2.563   2.602  21.252  0.00  0.00    +0.000 C 
ATOM      2  C   UNL     1       2.540   3.927  20.550  0.00  0.00    +0.000 A 
ATOM      3  C   UNL     1       3.129   4.077  19.302  0.00  0.00    +0.000 A 
ATOM      4  C   UNL     1       3.100   5.319  18.642  0.00  0.00    +0.000 A 
ATOM      5  C   UNL     1       3.773   5.434  17.305  0.00  0.00    +0.000 C 
ATOM      6  C   UNL     1       2.426   6.389  19.303  0.00  0.00    +0.000 A 
ATOM      7  C   UNL     1       1.900   6.107  20.556  0.00  0.00    +0.000 A 
ATOM      8  N   UNL     1       1.922   4.921  21.199  0.00  0.00    +0.000 NA
ATOM      9  S   UNL     1       1.201   7.445  21.306  0.00  0.00    +0.000 S 
ATOM     10  C   UNL     1       1.467   8.485  19.949  0.00  0.00    +0.000 A 
ATOM     11  C   UNL     1       1.123   9.868  19.825  0.00  0.00    +0.000 A 
ATOM     12  N   UNL     1       0.547  10.644  20.825  0.00  0.00    +0.000 N 
ATOM     13  C   UNL     1       0.702  12.089  20.728  0.00  0.00    +0.000 C 
ATOM     14  C   UNL     1      -0.615  10.188  21.573  0.00  0.00    +0.000 C 
ATOM     15  N   UNL     1       1.506  10.487  18.674  0.00  0.00    +0.000 NA
ATOM     16  C   UNL     1       2.172   9.832  17.711  0.00  0.00    +0.000 A 
ATOM     17  C   UNL     1       2.528   8.505  17.788  0.00  0.00    +0.000 A 
ATOM     18  C   UNL     1       2.168   7.785  18.947  0.00  0.00    +0.000 A 
ENDROOT
TORSDOF 0
ENDMDL
MODEL 7
REMARK VINA RESULT:      -5.9      3.025      5.529
REMARK  Name = 
REMARK  4 active torsions:
REMARK  status: ('A' for Active; 'I' for Inactive)
REMARK    1  A    between atoms: C_1  and  C_2
REMARK    2  A    between atoms: C_4  and  C_5
REMARK    3  A    between atoms: N_12  and  C_13
REMARK    4  A    between atoms: N_12  and  C_14
REMARK                            x       y       z     vdW  Elec       q    Type
REMARK                         _______ _______ _______ _____ _____    ______ ____
ROOT
ATOM      1  C   UNL     1       1.383   2.503  21.787  0.00  0.00    +0.000 C 
ATOM      2  C   UNL     1       1.941   3.500  20.815  0.00  0.00    +0.000 A 
ATOM      3  C   UNL     1       1.689   4.856  20.970  0.00  0.00    +0.000 A 
ATOM      4  C   UNL     1       2.220   5.790  20.061  0.00  0.00    +0.000 A 
ATOM      5  C   UNL     1       1.897   7.243  20.260  0.00  0.00    +0.000 C 
ATOM      6  C   UNL     1       3.034   5.279  19.006  0.00  0.00    +0.000 A 
ATOM      7  C   UNL     1       3.186   3.901  18.958  0.00  0.00    +0.000 A 
ATOM      8  N   UNL     1       2.682   2.995  19.822  0.00  0.00    +0.000 NA
ATOM      9  S   UNL     1       4.084   3.372  17.632  0.00  0.00    +0.000 S 
ATOM     10  C   UNL     1       4.421   4.977  17.080  0.00  0.00    +0.000 A 
ATOM     11  C   UNL     1       5.179   5.366  15.931  0.00  0.00    +0.000 A 
ATOM     12  N   UNL     1       5.744   4.492  15.009  0.00  0.00    +0.000 N 
ATOM     13  C   UNL     1       6.050   5.016  13.684  0.00  0.00    +0.000 C 
ATOM     14  C   UNL     1       6.541   3.348  15.428  0.00  0.00    +0.000 C 
ATOM     15  N   UNL     1       5.239   6.702  15.667  0.00  0.00    +0.000 NA
ATOM     16  C   UNL     1       4.618   7.600  16.447  0.00  0.00    +0.000 A 
ATOM     17  C   UNL     1       3.876   7.272  17.558  0.00  0.00    +0.000 A 
ATOM     18  C   UNL     1       3.762   5.909  17.904  0.00  0.00    +0.000 A 
ENDROOT
TORSDOF 0
ENDMDL
MODEL 8
REMARK VINA RESULT:      -5.8      2.362      6.137
REMARK  Name = 
REMARK  4 active torsions:
REMARK  status: ('A' for Active; 'I' for Inactive)
REMARK    1  A    between atoms: C_1  and  C_2
REMARK    2  A    between atoms: C_4  and  C_5
REMARK    3  A    between atoms: N_12  and  C_13
REMARK    4  A    between atoms: N_12  and  C_14
REMARK                            x       y       z     vdW  Elec       q    Type
REMARK                         _______ _______ _______ _____ _____    ______ ____
ROOT
ATOM      1  C   UNL     1       0.791   8.779  21.411  0.00  0.00    +0.000 C 
ATOM      2  C   UNL     1       1.400   7.599  20.714  0.00  0.00    +0.000 A 
ATOM      3  C   UNL     1       1.097   6.306  21.118  0.00  0.00    +0.000 A 
ATOM      4  C   UNL     1       1.663   5.199  20.458  0.00  0.00    +0.000 A 
ATOM      5  C   UNL     1       1.322   3.822  20.950  0.00  0.00    +0.000 C 
ATOM      6  C   UNL     1       2.531   5.474  19.359  0.00  0.00    +0.000 A 
ATOM      7  C   UNL     1       2.763   6.812  19.076  0.00  0.00    +0.000 A 
ATOM      8  N   UNL     1       2.227   7.881  19.701  0.00  0.00    +0.000 NA
ATOM      9  S   UNL     1       3.867   7.051  17.824  0.00  0.00    +0.000 S 
ATOM     10  C   UNL     1       4.037   5.358  17.503  0.00  0.00    +0.000 A 
ATOM     11  C   UNL     1       4.860   4.734  16.513  0.00  0.00    +0.000 A 
ATOM     12  N   UNL     1       5.728   5.400  15.654  0.00  0.00    +0.000 N 
ATOM     13  C   UNL     1       6.817   4.630  15.068  0.00  0.00    +0.000 C 
ATOM     14  C   UNL     1       5.304   6.566  14.893  0.00  0.00    +0.000 C 
ATOM     15  N   UNL     1       4.874   3.372  16.508  0.00  0.00    +0.000 NA
ATOM     16  C   UNL     1       4.153   2.658  17.386  0.00  0.00    +0.000 A 
ATOM     17  C   UNL     1       3.352   3.215  18.356  0.00  0.00    +0.000 A 
ATOM     18  C   UNL     1       3.278   4.622  18.432  0.00  0.00    +0.000 A 
ENDROOT
TORSDOF 0
ENDMDL
MODEL 9
REMARK VINA RESULT:      -5.7      1.630      6.303
REMARK  Name = 
REMARK  4 active torsions:
REMARK  status: ('A' for Active; 'I' for Inactive)
REMARK    1  A    between atoms: C_1  and  C_2
REMARK    2  A    between atoms: C_4  and  C_5
REMARK    3  A    between atoms: N_12  and  C_13
REMARK    4  A    between atoms: N_12  and  C_14
REMARK                            x       y       z     vdW  Elec       q    Type
REMARK                         _______ _______ _______ _____ _____    ______ ____
ROOT
ATOM      1  C   UNL     1       0.267  12.256  18.573  0.00  0.00    +0.000 C 
ATOM      2  C   UNL     1       0.626  10.884  19.060  0.00  0.00    +0.000 A 
ATOM      3  C   UNL     1       0.022  10.354  20.192  0.00  0.00    +0.000 A 
ATOM      4  C   UNL     1       0.354   9.064  20.643  0.00  0.00    +0.000 A 
ATOM      5  C   UNL     1      -0.310   8.547  21.886  0.00  0.00    +0.000 C 
ATOM      6  C   UNL     1       1.311   8.334  19.874  0.00  0.00    +0.000 A 
ATOM      7  C   UNL     1       1.851   8.992  18.778  0.00  0.00    +0.000 A 
ATOM      8  N   UNL     1       1.541  10.228  18.336  0.00  0.00    +0.000 NA
ATOM      9  S   UNL     1       3.037   8.098  17.979  0.00  0.00    +0.000 S 
ATOM     10  C   UNL     1       2.837   6.713  18.996  0.00  0.00    +0.000 A 
ATOM     11  C   UNL     1       3.543   5.471  18.932  0.00  0.00    +0.000 A 
ATOM     12  N   UNL     1       4.576   5.180  18.048  0.00  0.00    +0.000 N 
ATOM     13  C   UNL     1       5.490   4.105  18.412  0.00  0.00    +0.000 C 
ATOM     14  C   UNL     1       4.461   5.448  16.622  0.00  0.00    +0.000 C 
ATOM     15  N   UNL     1       3.250   4.556  19.899  0.00  0.00    +0.000 NA
ATOM     16  C   UNL     1       2.348   4.812  20.858  0.00  0.00    +0.000 A 
ATOM     17  C   UNL     1       1.648   5.993  20.962  0.00  0.00    +0.000 A 
ATOM     18  C   UNL     1       1.889   6.996  19.999  0.00  0.00    +0.000 A 
ENDROOT
TORSDOF 0
ENDMDL
