MODEL 1
REMARK VINA RESULT:      -8.3      0.000      0.000
REMARK  Name = 
REMARK  6 active torsions:
REMARK  status: ('A' for Active; 'I' for Inactive)
REMARK    1  A    between atoms: C_7  and  O_8
REMARK    2  A    between atoms: O_8  and  C_9
REMARK    3  A    between atoms: C_9  and  C_10
REMARK    4  A    between atoms: C_13  and  S_14
REMARK    5  A    between atoms: S_14  and  C_15
REMARK    6  A    between atoms: C_15  and  C_16
REMARK                            x       y       z     vdW  Elec       q    Type
REMARK                         _______ _______ _______ _____ _____    ______ ____
ROOT
ATOM      1  C   UNL     1       1.460   7.367  20.958  0.00  0.00    +0.000 C 
ENDROOT
BRANCH   1   2
ATOM      2  C   UNL     1       1.145   8.818  21.059  0.00  0.00    +0.000 A 
ATOM      3  N   UNL     1       1.378   9.632  22.066  0.00  0.00    +0.000 NA
ATOM      4  N   UNL     1       0.883  10.855  21.683  0.00  0.00    +0.000 NA
ATOM      5  C   UNL     1       0.346  10.725  20.489  0.00  0.00    +0.000 A 
ATOM      6  O   UNL     1       0.474   9.432  20.014  0.00  0.00    +0.000 OA
BRANCH   5   7
ATOM      7  S   UNL     1      -0.345  12.104  19.669  0.00  0.00    +0.000 S 
BRANCH   7   8
ATOM      8  C   UNL     1      -2.141  11.885  19.668  0.00  0.00    +0.000 C 
BRANCH   8   9
ATOM      9  C   UNL     1      -2.661  11.379  18.319  0.00  0.00    +0.000 A 
ATOM     10  C   UNL     1      -1.858  10.539  17.528  0.00  0.00    +0.000 A 
ATOM     11  C   UNL     1      -2.314  10.057  16.289  0.00  0.00    +0.000 A 
ATOM     12  C   UNL     1      -3.573  10.415  15.831  0.00  0.00    +0.000 A 
ATOM     13  F   UNL     1      -4.005   9.953  14.645  0.00  0.00    +0.000 F 
ATOM     14  C   UNL     1      -4.390  11.240  16.581  0.00  0.00    +0.000 A 
ATOM     15  C   UNL     1      -3.937  11.725  17.823  0.00  0.00    +0.000 A 
ENDBRANCH   8   9
ENDBRANCH   7   8
ENDBRANCH   5   7
ENDBRANCH   1   2
BRANCH   1  16
ATOM     16  O   UNL     1       1.714   7.081  19.576  0.00  0.00    +0.000 OA
BRANCH  16  23
ATOM     17  O   UNL     1       8.243   4.081  17.039  0.00  0.00    +0.000 OA
ATOM     18  C   UNL     1       7.270   4.761  17.370  0.00  0.00    +0.000 C 
ATOM     19  C   UNL     1       7.167   6.236  17.064  0.00  0.00    +0.000 C 
ATOM     20  C   UNL     1       5.724   6.651  16.812  0.00  0.00    +0.000 C 
ATOM     21  C   UNL     1       4.832   6.159  17.921  0.00  0.00    +0.000 A 
ATOM     22  C   UNL     1       3.661   6.841  18.297  0.00  0.00    +0.000 A 
ATOM     23  C   UNL     1       2.820   6.321  19.288  0.00  0.00    +0.000 A 
ATOM     24  C   UNL     1       3.140   5.102  19.890  0.00  0.00    +0.000 A 
ATOM     25  C   UNL     1       4.288   4.403  19.500  0.00  0.00    +0.000 A 
ATOM     26  C   UNL     1       5.130   4.937  18.530  0.00  0.00    +0.000 A 
ATOM     27  N   UNL     1       6.277   4.234  18.151  0.00  0.00    +0.000 N 
ATOM     28  H   UNL     1       6.422   3.284  18.469  0.00  0.00    +0.000 HD
ENDBRANCH  16  23
ENDBRANCH   1  16
TORSDOF 6
ENDMDL
MODEL 2
REMARK VINA RESULT:      -8.2      3.951      9.525
REMARK  Name = 
REMARK  6 active torsions:
REMARK  status: ('A' for Active; 'I' for Inactive)
REMARK    1  A    between atoms: C_7  and  O_8
REMARK    2  A    between atoms: O_8  and  C_9
REMARK    3  A    between atoms: C_9  and  C_10
REMARK    4  A    between atoms: C_13  and  S_14
REMARK    5  A    between atoms: S_14  and  C_15
REMARK    6  A    between atoms: C_15  and  C_16
REMARK                            x       y       z     vdW  Elec       q    Type
REMARK                         _______ _______ _______ _____ _____    ______ ____
ROOT
ATOM      1  C   UNL     1       1.921   9.008  18.227  0.00  0.00    +0.000 C 
ENDROOT
BRANCH   1   2
ATOM      2  C   UNL     1       2.353   7.624  18.564  0.00  0.00    +0.000 A 
ATOM      3  N   UNL     1       2.645   7.129  19.747  0.00  0.00    +0.000 NA
ATOM      4  N   UNL     1       3.010   5.822  19.528  0.00  0.00    +0.000 NA
ATOM      5  C   UNL     1       2.959   5.594  18.234  0.00  0.00    +0.000 A 
ATOM      6  O   UNL     1       2.542   6.713  17.537  0.00  0.00    +0.000 OA
BRANCH   5   7
ATOM      7  S   UNL     1       3.320   4.008  17.596  0.00  0.00    +0.000 S 
BRANCH   7   8
ATOM      8  C   UNL     1       4.786   4.170  16.548  0.00  0.00    +0.000 C 
BRANCH   8   9
ATOM      9  C   UNL     1       5.834   5.104  17.159  0.00  0.00    +0.000 A 
ATOM     10  C   UNL     1       6.617   4.667  18.242  0.00  0.00    +0.000 A 
ATOM     11  C   UNL     1       7.589   5.503  18.818  0.00  0.00    +0.000 A 
ATOM     12  C   UNL     1       7.781   6.781  18.318  0.00  0.00    +0.000 A 
ATOM     13  F   UNL     1       8.711   7.579  18.873  0.00  0.00    +0.000 F 
ATOM     14  C   UNL     1       7.031   7.246  17.255  0.00  0.00    +0.000 A 
ATOM     15  C   UNL     1       6.055   6.412  16.676  0.00  0.00    +0.000 A 
ENDBRANCH   8   9
ENDBRANCH   7   8
ENDBRANCH   5   7
ENDBRANCH   1   2
BRANCH   1  16
ATOM     16  O   UNL     1       1.256   9.540  19.381  0.00  0.00    +0.000 OA
BRANCH  16  23
ATOM     17  O   UNL     1      -5.410  12.258  16.884  0.00  0.00    +0.000 OA
ATOM     18  C   UNL     1      -4.364  11.655  17.134  0.00  0.00    +0.000 C 
ATOM     19  C   UNL     1      -3.934  10.423  16.375  0.00  0.00    +0.000 C 
ATOM     20  C   UNL     1      -2.419  10.344  16.258  0.00  0.00    +0.000 C 
ATOM     21  C   UNL     1      -1.774  10.528  17.606  0.00  0.00    +0.000 A 
ATOM     22  C   UNL     1      -0.541   9.936  17.934  0.00  0.00    +0.000 A 
ATOM     23  C   UNL     1       0.061  10.181  19.173  0.00  0.00    +0.000 A 
ATOM     24  C   UNL     1      -0.563  11.038  20.082  0.00  0.00    +0.000 A 
ATOM     25  C   UNL     1      -1.775  11.654  19.752  0.00  0.00    +0.000 A 
ATOM     26  C   UNL     1      -2.378  11.390  18.527  0.00  0.00    +0.000 A 
ATOM     27  N   UNL     1      -3.592  12.005  18.209  0.00  0.00    +0.000 N 
ATOM     28  H   UNL     1      -3.959  12.743  18.795  0.00  0.00    +0.000 HD
ENDBRANCH  16  23
ENDBRANCH   1  16
TORSDOF 6
ENDMDL
MODEL 3
REMARK VINA RESULT:      -8.1      7.109      9.889
REMARK  Name = 
REMARK  6 active torsions:
REMARK  status: ('A' for Active; 'I' for Inactive)
REMARK    1  A    between atoms: C_7  and  O_8
REMARK    2  A    between atoms: O_8  and  C_9
REMARK    3  A    between atoms: C_9  and  C_10
REMARK    4  A    between atoms: C_13  and  S_14
REMARK    5  A    between atoms: S_14  and  C_15
REMARK    6  A    between atoms: C_15  and  C_16
REMARK                            x       y       z     vdW  Elec       q    Type
REMARK                         _______ _______ _______ _____ _____    ______ ____
ROOT
ATOM      1  C   UNL     1       8.927   9.527  18.895  0.00  0.00    +0.000 C 
ENDROOT
BRANCH   1   2
ATOM      2  C   UNL     1       8.214   8.441  18.170  0.00  0.00    +0.000 A 
ATOM      3  N   UNL     1       7.474   8.536  17.086  0.00  0.00    +0.000 NA
ATOM      4  N   UNL     1       7.021   7.264  16.828  0.00  0.00    +0.000 NA
ATOM      5  C   UNL     1       7.470   6.469  17.774  0.00  0.00    +0.000 A 
ATOM      6  O   UNL     1       8.252   7.155  18.686  0.00  0.00    +0.000 OA
BRANCH   5   7
ATOM      7  S   UNL     1       7.120   4.758  17.737  0.00  0.00    +0.000 S 
BRANCH   7   8
ATOM      8  C   UNL     1       5.800   4.504  16.526  0.00  0.00    +0.000 C 
BRANCH   8   9
ATOM      9  C   UNL     1       4.434   4.316  17.190  0.00  0.00    +0.000 A 
ATOM     10  C   UNL     1       3.917   3.022  17.377  0.00  0.00    +0.000 A 
ATOM     11  C   UNL     1       2.667   2.823  17.989  0.00  0.00    +0.000 A 
ATOM     12  C   UNL     1       1.925   3.914  18.413  0.00  0.00    +0.000 A 
ATOM     13  F   UNL     1       0.730   3.719  18.997  0.00  0.00    +0.000 F 
ATOM     14  C   UNL     1       2.400   5.201  18.246  0.00  0.00    +0.000 A 
ATOM     15  C   UNL     1       3.652   5.405  17.633  0.00  0.00    +0.000 A 
ENDBRANCH   8   9
ENDBRANCH   7   8
ENDBRANCH   5   7
ENDBRANCH   1   2
BRANCH   1  16
ATOM     16  O   UNL     1       9.460  10.420  17.908  0.00  0.00    +0.000 OA
BRANCH  16  23
ATOM     17  O   UNL     1      12.028  17.354  19.748  0.00  0.00    +0.000 OA
ATOM     18  C   UNL     1      11.417  16.338  19.410  0.00  0.00    +0.000 C 
ATOM     19  C   UNL     1       9.982  16.371  18.943  0.00  0.00    +0.000 C 
ATOM     20  C   UNL     1       9.716  15.302  17.892  0.00  0.00    +0.000 C 
ATOM     21  C   UNL     1      10.209  13.961  18.365  0.00  0.00    +0.000 A 
ATOM     22  C   UNL     1       9.611  12.756  17.956  0.00  0.00    +0.000 A 
ATOM     23  C   UNL     1      10.136  11.524  18.363  0.00  0.00    +0.000 A 
ATOM     24  C   UNL     1      11.277  11.497  19.168  0.00  0.00    +0.000 A 
ATOM     25  C   UNL     1      11.895  12.691  19.555  0.00  0.00    +0.000 A 
ATOM     26  C   UNL     1      11.356  13.911  19.164  0.00  0.00    +0.000 A 
ATOM     27  N   UNL     1      11.977  15.098  19.561  0.00  0.00    +0.000 N 
ATOM     28  H   UNL     1      12.886  15.075  20.005  0.00  0.00    +0.000 HD
ENDBRANCH  16  23
ENDBRANCH   1  16
TORSDOF 6
ENDMDL
MODEL 4
REMARK VINA RESULT:      -8.1      6.651      9.554
REMARK  Name = 
REMARK  6 active torsions:
REMARK  status: ('A' for Active; 'I' for Inactive)
REMARK    1  A    between atoms: C_7  and  O_8
REMARK    2  A    between atoms: O_8  and  C_9
REMARK    3  A    between atoms: C_9  and  C_10
REMARK    4  A    between atoms: C_13  and  S_14
REMARK    5  A    between atoms: S_14  and  C_15
REMARK    6  A    between atoms: C_15  and  C_16
REMARK                            x       y       z     vdW  Elec       q    Type
REMARK                         _______ _______ _______ _____ _____    ______ ____
ROOT
ATOM      1  C   UNL     1       8.586   8.475  18.609  0.00  0.00    +0.000 C 
ENDROOT
BRANCH   1   2
ATOM      2  C   UNL     1       7.681   7.599  17.817  0.00  0.00    +0.000 A 
ATOM      3  N   UNL     1       6.798   7.952  16.909  0.00  0.00    +0.000 NA
ATOM      4  N   UNL     1       6.202   6.786  16.490  0.00  0.00    +0.000 NA
ATOM      5  C   UNL     1       6.718   5.792  17.179  0.00  0.00    +0.000 A 
ATOM      6  O   UNL     1       7.684   6.235  18.064  0.00  0.00    +0.000 OA
BRANCH   5   7
ATOM      7  S   UNL     1       6.220   4.146  16.873  0.00  0.00    +0.000 S 
BRANCH   7   8
ATOM      8  C   UNL     1       4.461   4.185  16.452  0.00  0.00    +0.000 C 
BRANCH   8   9
ATOM      9  C   UNL     1       3.576   3.733  17.617  0.00  0.00    +0.000 A 
ATOM     10  C   UNL     1       2.182   3.897  17.545  0.00  0.00    +0.000 A 
ATOM     11  C   UNL     1       1.348   3.486  18.599  0.00  0.00    +0.000 A 
ATOM     12  C   UNL     1       1.902   2.913  19.733  0.00  0.00    +0.000 A 
ATOM     13  F   UNL     1       1.101   2.522  20.740  0.00  0.00    +0.000 F 
ATOM     14  C   UNL     1       3.269   2.736  19.840  0.00  0.00    +0.000 A 
ATOM     15  C   UNL     1       4.108   3.146  18.786  0.00  0.00    +0.000 A 
ENDBRANCH   8   9
ENDBRANCH   7   8
ENDBRANCH   5   7
ENDBRANCH   1   2
BRANCH   1  16
ATOM     16  O   UNL     1       8.637   9.745  17.947  0.00  0.00    +0.000 OA
BRANCH  16  23
ATOM     17  O   UNL     1      12.308  16.079  20.062  0.00  0.00    +0.000 OA
ATOM     18  C   UNL     1      11.643  15.179  19.545  0.00  0.00    +0.000 C 
ATOM     19  C   UNL     1      10.910  15.358  18.238  0.00  0.00    +0.000 C 
ATOM     20  C   UNL     1      10.874  14.063  17.439  0.00  0.00    +0.000 C 
ATOM     21  C   UNL     1      10.390  12.926  18.298  0.00  0.00    +0.000 A 
ATOM     22  C   UNL     1       9.696  11.826  17.763  0.00  0.00    +0.000 A 
ATOM     23  C   UNL     1       9.318  10.754  18.581  0.00  0.00    +0.000 A 
ATOM     24  C   UNL     1       9.654  10.774  19.936  0.00  0.00    +0.000 A 
ATOM     25  C   UNL     1      10.369  11.851  20.470  0.00  0.00    +0.000 A 
ATOM     26  C   UNL     1      10.723  12.921  19.656  0.00  0.00    +0.000 A 
ATOM     27  N   UNL     1      11.433  13.995  20.200  0.00  0.00    +0.000 N 
ATOM     28  H   UNL     1      11.812  13.935  21.136  0.00  0.00    +0.000 HD
ENDBRANCH  16  23
ENDBRANCH   1  16
TORSDOF 6
ENDMDL
MODEL 5
REMARK VINA RESULT:      -8.1      2.359      3.099
REMARK  Name = 
REMARK  6 active torsions:
REMARK  status: ('A' for Active; 'I' for Inactive)
REMARK    1  A    between atoms: C_7  and  O_8
REMARK    2  A    between atoms: O_8  and  C_9
REMARK    3  A    between atoms: C_9  and  C_10
REMARK    4  A    between atoms: C_13  and  S_14
REMARK    5  A    between atoms: S_14  and  C_15
REMARK    6  A    between atoms: C_15  and  C_16
REMARK                            x       y       z     vdW  Elec       q    Type
REMARK                         _______ _______ _______ _____ _____    ______ ____
ROOT
ATOM      1  C   UNL     1       1.224   8.491  21.909  0.00  0.00    +0.000 C 
ENDROOT
BRANCH   1   2
ATOM      2  C   UNL     1       0.474   9.725  22.267  0.00  0.00    +0.000 A 
ATOM      3  N   UNL     1      -0.085  10.031  23.417  0.00  0.00    +0.000 NA
ATOM      4  N   UNL     1      -0.672  11.260  23.235  0.00  0.00    +0.000 NA
ATOM      5  C   UNL     1      -0.476  11.627  21.988  0.00  0.00    +0.000 A 
ATOM      6  O   UNL     1       0.259  10.685  21.291  0.00  0.00    +0.000 OA
BRANCH   5   7
ATOM      7  S   UNL     1      -1.053  13.173  21.414  0.00  0.00    +0.000 S 
BRANCH   7   8
ATOM      8  C   UNL     1      -0.756  13.231  19.631  0.00  0.00    +0.000 C 
BRANCH   8   9
ATOM      9  C   UNL     1      -1.520  12.135  18.881  0.00  0.00    +0.000 A 
ATOM     10  C   UNL     1      -0.814  11.131  18.196  0.00  0.00    +0.000 A 
ATOM     11  C   UNL     1      -1.491  10.112  17.505  0.00  0.00    +0.000 A 
ATOM     12  C   UNL     1      -2.877  10.092  17.491  0.00  0.00    +0.000 A 
ATOM     13  F   UNL     1      -3.522   9.116  16.828  0.00  0.00    +0.000 F 
ATOM     14  C   UNL     1      -3.605  11.063  18.152  0.00  0.00    +0.000 A 
ATOM     15  C   UNL     1      -2.930  12.086  18.846  0.00  0.00    +0.000 A 
ENDBRANCH   8   9
ENDBRANCH   7   8
ENDBRANCH   5   7
ENDBRANCH   1   2
BRANCH   1  16
ATOM     16  O   UNL     1       1.500   8.551  20.503  0.00  0.00    +0.000 OA
BRANCH  16  23
ATOM     17  O   UNL     1       3.251   1.436  18.414  0.00  0.00    +0.000 OA
ATOM     18  C   UNL     1       2.821   2.488  18.893  0.00  0.00    +0.000 C 
ATOM     19  C   UNL     1       1.790   2.517  19.995  0.00  0.00    +0.000 C 
ATOM     20  C   UNL     1       2.002   3.706  20.921  0.00  0.00    +0.000 C 
ATOM     21  C   UNL     1       2.132   4.979  20.127  0.00  0.00    +0.000 A 
ATOM     22  C   UNL     1       1.738   6.226  20.641  0.00  0.00    +0.000 A 
ATOM     23  C   UNL     1       1.934   7.398  19.901  0.00  0.00    +0.000 A 
ATOM     24  C   UNL     1       2.547   7.323  18.648  0.00  0.00    +0.000 A 
ATOM     25  C   UNL     1       2.969   6.089  18.142  0.00  0.00    +0.000 A 
ATOM     26  C   UNL     1       2.751   4.927  18.875  0.00  0.00    +0.000 A 
ATOM     27  N   UNL     1       3.171   3.698  18.358  0.00  0.00    +0.000 N 
ATOM     28  H   UNL     1       3.753   3.664  17.531  0.00  0.00    +0.000 HD
ENDBRANCH  16  23
ENDBRANCH   1  16
TORSDOF 6
ENDMDL
MODEL 6
REMARK VINA RESULT:      -7.9      6.275      9.328
REMARK  Name = 
REMARK  6 active torsions:
REMARK  status: ('A' for Active; 'I' for Inactive)
REMARK    1  A    between atoms: C_7  and  O_8
REMARK    2  A    between atoms: O_8  and  C_9
REMARK    3  A    between atoms: C_9  and  C_10
REMARK    4  A    between atoms: C_13  and  S_14
REMARK    5  A    between atoms: S_14  and  C_15
REMARK    6  A    between atoms: C_15  and  C_16
REMARK                            x       y       z     vdW  Elec       q    Type
REMARK                         _______ _______ _______ _____ _____    ______ ____
ROOT
ATOM      1  C   UNL     1       8.184   8.481  17.651  0.00  0.00    +0.000 C 
ENDROOT
BRANCH   1   2
ATOM      2  C   UNL     1       7.675   7.136  18.033  0.00  0.00    +0.000 A 
ATOM      3  N   UNL     1       8.112   6.342  18.987  0.00  0.00    +0.000 NA
ATOM      4  N   UNL     1       7.333   5.212  18.922  0.00  0.00    +0.000 NA
ATOM      5  C   UNL     1       6.492   5.351  17.921  0.00  0.00    +0.000 A 
ATOM      6  O   UNL     1       6.649   6.572  17.291  0.00  0.00    +0.000 OA
BRANCH   5   7
ATOM      7  S   UNL     1       5.311   4.111  17.573  0.00  0.00    +0.000 S 
BRANCH   7   8
ATOM      8  C   UNL     1       3.675   4.833  17.845  0.00  0.00    +0.000 C 
BRANCH   8   9
ATOM      9  C   UNL     1       2.950   4.194  19.033  0.00  0.00    +0.000 A 
ATOM     10  C   UNL     1       1.614   4.534  19.304  0.00  0.00    +0.000 A 
ATOM     11  C   UNL     1       0.924   3.958  20.385  0.00  0.00    +0.000 A 
ATOM     12  C   UNL     1       1.567   3.043  21.203  0.00  0.00    +0.000 A 
ATOM     13  F   UNL     1       0.905   2.495  22.237  0.00  0.00    +0.000 F 
ATOM     14  C   UNL     1       2.881   2.684  20.968  0.00  0.00    +0.000 A 
ATOM     15  C   UNL     1       3.575   3.260  19.886  0.00  0.00    +0.000 A 
ENDBRANCH   8   9
ENDBRANCH   7   8
ENDBRANCH   5   7
ENDBRANCH   1   2
BRANCH   1  16
ATOM     16  O   UNL     1       8.816   9.043  18.808  0.00  0.00    +0.000 OA
BRANCH  16  23
ATOM     17  O   UNL     1       9.767  16.378  20.642  0.00  0.00    +0.000 OA
ATOM     18  C   UNL     1       9.732  15.150  20.534  0.00  0.00    +0.000 C 
ATOM     19  C   UNL     1      10.336  14.225  21.563  0.00  0.00    +0.000 C 
ATOM     20  C   UNL     1       9.542  12.932  21.681  0.00  0.00    +0.000 C 
ATOM     21  C   UNL     1       9.317  12.324  20.322  0.00  0.00    +0.000 A 
ATOM     22  C   UNL     1       9.185  10.937  20.135  0.00  0.00    +0.000 A 
ATOM     23  C   UNL     1       8.911  10.411  18.867  0.00  0.00    +0.000 A 
ATOM     24  C   UNL     1       8.748  11.278  17.785  0.00  0.00    +0.000 A 
ATOM     25  C   UNL     1       8.848  12.661  17.969  0.00  0.00    +0.000 A 
ATOM     26  C   UNL     1       9.141  13.175  19.227  0.00  0.00    +0.000 A 
ATOM     27  N   UNL     1       9.246  14.558  19.399  0.00  0.00    +0.000 N 
ATOM     28  H   UNL     1       8.971  15.187  18.656  0.00  0.00    +0.000 HD
ENDBRANCH  16  23
ENDBRANCH   1  16
TORSDOF 6
ENDMDL
MODEL 7
REMARK VINA RESULT:      -7.8      6.555      9.172
REMARK  Name = 
REMARK  6 active torsions:
REMARK  status: ('A' for Active; 'I' for Inactive)
REMARK    1  A    between atoms: C_7  and  O_8
REMARK    2  A    between atoms: O_8  and  C_9
REMARK    3  A    between atoms: C_9  and  C_10
REMARK    4  A    between atoms: C_13  and  S_14
REMARK    5  A    between atoms: S_14  and  C_15
REMARK    6  A    between atoms: C_15  and  C_16
REMARK                            x       y       z     vdW  Elec       q    Type
REMARK                         _______ _______ _______ _____ _____    ______ ____
ROOT
ATOM      1  C   UNL     1       8.373   8.789  17.499  0.00  0.00    +0.000 C 
ENDROOT
BRANCH   1   2
ATOM      2  C   UNL     1       7.425   7.644  17.452  0.00  0.00    +0.000 A 
ATOM      3  N   UNL     1       7.702   6.366  17.310  0.00  0.00    +0.000 NA
ATOM      4  N   UNL     1       6.490   5.717  17.304  0.00  0.00    +0.000 NA
ATOM      5  C   UNL     1       5.541   6.622  17.405  0.00  0.00    +0.000 A 
ATOM      6  O   UNL     1       6.064   7.898  17.505  0.00  0.00    +0.000 OA
BRANCH   5   7
ATOM      7  S   UNL     1       3.861   6.145  17.474  0.00  0.00    +0.000 S 
BRANCH   7   8
ATOM      8  C   UNL     1       3.819   4.339  17.584  0.00  0.00    +0.000 C 
BRANCH   8   9
ATOM      9  C   UNL     1       3.016   3.852  18.793  0.00  0.00    +0.000 A 
ATOM     10  C   UNL     1       2.063   2.830  18.637  0.00  0.00    +0.000 A 
ATOM     11  C   UNL     1       1.316   2.362  19.733  0.00  0.00    +0.000 A 
ATOM     12  C   UNL     1       1.514   2.915  20.988  0.00  0.00    +0.000 A 
ATOM     13  F   UNL     1       0.797   2.466  22.033  0.00  0.00    +0.000 F 
ATOM     14  C   UNL     1       2.441   3.921  21.180  0.00  0.00    +0.000 A 
ATOM     15  C   UNL     1       3.191   4.393  20.085  0.00  0.00    +0.000 A 
ENDBRANCH   8   9
ENDBRANCH   7   8
ENDBRANCH   5   7
ENDBRANCH   1   2
BRANCH   1  16
ATOM     16  O   UNL     1       8.610   9.091  18.881  0.00  0.00    +0.000 OA
BRANCH  16  23
ATOM     17  O   UNL     1      12.258  15.781  18.870  0.00  0.00    +0.000 OA
ATOM     18  C   UNL     1      11.630  14.742  18.653  0.00  0.00    +0.000 C 
ATOM     19  C   UNL     1      11.109  14.378  17.283  0.00  0.00    +0.000 C 
ATOM     20  C   UNL     1      11.124  12.872  17.067  0.00  0.00    +0.000 C 
ATOM     21  C   UNL     1      10.458  12.166  18.218  0.00  0.00    +0.000 A 
ATOM     22  C   UNL     1       9.794  10.937  18.059  0.00  0.00    +0.000 A 
ATOM     23  C   UNL     1       9.242  10.276  19.163  0.00  0.00    +0.000 A 
ATOM     24  C   UNL     1       9.373  10.838  20.434  0.00  0.00    +0.000 A 
ATOM     25  C   UNL     1      10.058  12.046  20.605  0.00  0.00    +0.000 A 
ATOM     26  C   UNL     1      10.585  12.707  19.500  0.00  0.00    +0.000 A 
ATOM     27  N   UNL     1      11.262  13.916  19.680  0.00  0.00    +0.000 N 
ATOM     28  H   UNL     1      11.494  14.238  20.611  0.00  0.00    +0.000 HD
ENDBRANCH  16  23
ENDBRANCH   1  16
TORSDOF 6
ENDMDL
MODEL 8
REMARK VINA RESULT:      -7.8      6.206      8.773
REMARK  Name = 
REMARK  6 active torsions:
REMARK  status: ('A' for Active; 'I' for Inactive)
REMARK    1  A    between atoms: C_7  and  O_8
REMARK    2  A    between atoms: O_8  and  C_9
REMARK    3  A    between atoms: C_9  and  C_10
REMARK    4  A    between atoms: C_13  and  S_14
REMARK    5  A    between atoms: S_14  and  C_15
REMARK    6  A    between atoms: C_15  and  C_16
REMARK                            x       y       z     vdW  Elec       q    Type
REMARK                         _______ _______ _______ _____ _____    ______ ____
ROOT
ATOM      1  C   UNL     1       8.538   8.080  18.698  0.00  0.00    +0.000 C 
ENDROOT
BRANCH   1   2
ATOM      2  C   UNL     1       7.620   7.184  17.945  0.00  0.00    +0.000 A 
ATOM      3  N   UNL     1       7.201   7.306  16.704  0.00  0.00    +0.000 NA
ATOM      4  N   UNL     1       6.354   6.246  16.487  0.00  0.00    +0.000 NA
ATOM      5  C   UNL     1       6.269   5.555  17.602  0.00  0.00    +0.000 A 
ATOM      6  O   UNL     1       7.059   6.098  18.599  0.00  0.00    +0.000 OA
BRANCH   5   7
ATOM      7  S   UNL     1       5.304   4.100  17.675  0.00  0.00    +0.000 S 
BRANCH   7   8
ATOM      8  C   UNL     1       3.602   4.562  17.272  0.00  0.00    +0.000 C 
BRANCH   8   9
ATOM      9  C   UNL     1       2.965   5.431  18.360  0.00  0.00    +0.000 A 
ATOM     10  C   UNL     1       2.490   4.838  19.542  0.00  0.00    +0.000 A 
ATOM     11  C   UNL     1       1.906   5.614  20.559  0.00  0.00    +0.000 A 
ATOM     12  C   UNL     1       1.789   6.985  20.397  0.00  0.00    +0.000 A 
ATOM     13  F   UNL     1       1.229   7.724  21.371  0.00  0.00    +0.000 F 
ATOM     14  C   UNL     1       2.244   7.604  19.248  0.00  0.00    +0.000 A 
ATOM     15  C   UNL     1       2.830   6.830  18.227  0.00  0.00    +0.000 A 
ENDBRANCH   8   9
ENDBRANCH   7   8
ENDBRANCH   5   7
ENDBRANCH   1   2
BRANCH   1  16
ATOM     16  O   UNL     1       8.515   9.359  18.050  0.00  0.00    +0.000 OA
BRANCH  16  23
ATOM     17  O   UNL     1      12.333  15.655  20.010  0.00  0.00    +0.000 OA
ATOM     18  C   UNL     1      11.674  14.746  19.499  0.00  0.00    +0.000 C 
ATOM     19  C   UNL     1      11.114  14.835  18.100  0.00  0.00    +0.000 C 
ATOM     20  C   UNL     1      11.085  13.471  17.427  0.00  0.00    +0.000 C 
ATOM     21  C   UNL     1      10.426  12.454  18.320  0.00  0.00    +0.000 A 
ATOM     22  C   UNL     1       9.727  11.347  17.808  0.00  0.00    +0.000 A 
ATOM     23  C   UNL     1       9.183  10.386  18.667  0.00  0.00    +0.000 A 
ATOM     24  C   UNL     1       9.356  10.522  20.046  0.00  0.00    +0.000 A 
ATOM     25  C   UNL     1      10.076  11.605  20.563  0.00  0.00    +0.000 A 
ATOM     26  C   UNL     1      10.596  12.567  19.703  0.00  0.00    +0.000 A 
ATOM     27  N   UNL     1      11.307  13.648  20.230  0.00  0.00    +0.000 N 
ATOM     28  H   UNL     1      11.568  13.661  21.207  0.00  0.00    +0.000 HD
ENDBRANCH  16  23
ENDBRANCH   1  16
TORSDOF 6
ENDMDL
MODEL 9
REMARK VINA RESULT:      -7.8      3.622      4.737
REMARK  Name = 
REMARK  6 active torsions:
REMARK  status: ('A' for Active; 'I' for Inactive)
REMARK    1  A    between atoms: C_7  and  O_8
REMARK    2  A    between atoms: O_8  and  C_9
REMARK    3  A    between atoms: C_9  and  C_10
REMARK    4  A    between atoms: C_13  and  S_14
REMARK    5  A    between atoms: S_14  and  C_15
REMARK    6  A    between atoms: C_15  and  C_16
REMARK                            x       y       z     vdW  Elec       q    Type
REMARK                         _______ _______ _______ _____ _____    ______ ____
ROOT
ATOM      1  C   UNL     1       1.274   8.536  21.863  0.00  0.00    +0.000 C 
ENDROOT
BRANCH   1   2
ATOM      2  C   UNL     1       0.482   9.742  22.224  0.00  0.00    +0.000 A 
ATOM      3  N   UNL     1       0.004  10.078  23.403  0.00  0.00    +0.000 NA
ATOM      4  N   UNL     1      -0.672  11.260  23.212  0.00  0.00    +0.000 NA
ATOM      5  C   UNL     1      -0.605  11.568  21.936  0.00  0.00    +0.000 A 
ATOM      6  O   UNL     1       0.126  10.634  21.225  0.00  0.00    +0.000 OA
BRANCH   5   7
ATOM      7  S   UNL     1      -1.323  13.045  21.339  0.00  0.00    +0.000 S 
BRANCH   7   8
ATOM      8  C   UNL     1      -2.932  12.614  20.633  0.00  0.00    +0.000 C 
BRANCH   8   9
ATOM      9  C   UNL     1      -4.064  12.732  21.658  0.00  0.00    +0.000 A 
ATOM     10  C   UNL     1      -3.763  12.939  23.015  0.00  0.00    +0.000 A 
ATOM     11  C   UNL     1      -4.784  13.055  23.975  0.00  0.00    +0.000 A 
ATOM     12  C   UNL     1      -6.110  12.960  23.584  0.00  0.00    +0.000 A 
ATOM     13  F   UNL     1      -7.084  13.071  24.505  0.00  0.00    +0.000 F 
ATOM     14  C   UNL     1      -6.445  12.757  22.259  0.00  0.00    +0.000 A 
ATOM     15  C   UNL     1      -5.425  12.639  21.295  0.00  0.00    +0.000 A 
ENDBRANCH   8   9
ENDBRANCH   7   8
ENDBRANCH   5   7
ENDBRANCH   1   2
BRANCH   1  16
ATOM     16  O   UNL     1       1.426   8.536  20.438  0.00  0.00    +0.000 OA
BRANCH  16  23
ATOM     17  O   UNL     1       3.349   1.434  18.453  0.00  0.00    +0.000 OA
ATOM     18  C   UNL     1       2.886   2.483  18.909  0.00  0.00    +0.000 C 
ATOM     19  C   UNL     1       1.806   2.504  19.963  0.00  0.00    +0.000 C 
ATOM     20  C   UNL     1       1.962   3.698  20.894  0.00  0.00    +0.000 C 
ATOM     21  C   UNL     1       2.115   4.969  20.102  0.00  0.00    +0.000 A 
ATOM     22  C   UNL     1       1.684   6.214  20.594  0.00  0.00    +0.000 A 
ATOM     23  C   UNL     1       1.901   7.385  19.859  0.00  0.00    +0.000 A 
ATOM     24  C   UNL     1       2.570   7.314  18.636  0.00  0.00    +0.000 A 
ATOM     25  C   UNL     1       3.028   6.083  18.153  0.00  0.00    +0.000 A 
ATOM     26  C   UNL     1       2.790   4.921  18.879  0.00  0.00    +0.000 A 
ATOM     27  N   UNL     1       3.246   3.695  18.386  0.00  0.00    +0.000 N 
ATOM     28  H   UNL     1       3.866   3.665  17.586  0.00  0.00    +0.000 HD
ENDBRANCH  16  23
ENDBRANCH   1  16
TORSDOF 6
ENDMDL
