MODEL 1
REMARK VINA RESULT:      -5.3      0.000      0.000
REMARK  Name = 
REMARK  2 active torsions:
REMARK  status: ('A' for Active; 'I' for Inactive)
REMARK    1  A    between atoms: C_1  and  C_2
REMARK    2  A    between atoms: C_2  and  C_3
REMARK                            x       y       z     vdW  Elec       q    Type
REMARK                         _______ _______ _______ _____ _____    ______ ____
ROOT
ATOM      1  C   UNL     1       1.930   4.376  19.229  0.00  0.00    +0.000 A 
ATOM      2  C   UNL     1       2.603   3.793  18.172  0.00  0.00    +0.000 A 
ATOM      3 CL   UNL     1       2.390   2.139  17.736  0.00  0.00    +0.000 Cl
ATOM      4  N   UNL     1       3.487   4.412  17.376  0.00  0.00    +0.000 NA
ATOM      5  C   UNL     1       3.710   5.689  17.674  0.00  0.00    +0.000 A 
ATOM      6 CL   UNL     1       4.796   6.529  16.665  0.00  0.00    +0.000 Cl
ATOM      7  N   UNL     1       3.166   6.380  18.671  0.00  0.00    +0.000 NA
ATOM      8  C   UNL     1       2.293   5.695  19.425  0.00  0.00    +0.000 A 
ATOM      9 CL   UNL     1       1.655   6.653  20.706  0.00  0.00    +0.000 Cl
ENDROOT
BRANCH   1  11
ATOM     10  C   UNL     1       1.567   2.992  21.298  0.00  0.00    +0.000 C 
ATOM     11  C   UNL     1       0.932   3.650  20.082  0.00  0.00    +0.000 C 
ENDBRANCH   1  11
TORSDOF 1
ENDMDL
MODEL 2
REMARK VINA RESULT:      -5.2      0.104      2.721
REMARK  Name = 
REMARK  2 active torsions:
REMARK  status: ('A' for Active; 'I' for Inactive)
REMARK    1  A    between atoms: C_1  and  C_2
REMARK    2  A    between atoms: C_2  and  C_3
REMARK                            x       y       z     vdW  Elec       q    Type
REMARK                         _______ _______ _______ _____ _____    ______ ____
ROOT
ATOM      1  C   UNL     1       1.973   4.357  19.317  0.00  0.00    +0.000 A 
ATOM      2  C   UNL     1       2.291   5.693  19.465  0.00  0.00    +0.000 A 
ATOM      3 CL   UNL     1       1.615   6.675  20.710  0.00  0.00    +0.000 Cl
ATOM      4  N   UNL     1       3.134   6.384  18.683  0.00  0.00    +0.000 NA
ATOM      5  C   UNL     1       3.675   5.685  17.690  0.00  0.00    +0.000 A 
ATOM      6 CL   UNL     1       4.784   6.510  16.693  0.00  0.00    +0.000 Cl
ATOM      7  N   UNL     1       3.448   4.407  17.399  0.00  0.00    +0.000 NA
ATOM      8  C   UNL     1       2.594   3.782  18.224  0.00  0.00    +0.000 A 
ATOM      9 CL   UNL     1       2.336   2.143  17.764  0.00  0.00    +0.000 Cl
ENDROOT
BRANCH   1  11
ATOM     10  C   UNL     1       1.739   3.059  21.459  0.00  0.00    +0.000 C 
ATOM     11  C   UNL     1       1.039   3.617  20.229  0.00  0.00    +0.000 C 
ENDBRANCH   1  11
TORSDOF 1
ENDMDL
MODEL 3
REMARK VINA RESULT:      -5.1      2.074      3.168
REMARK  Name = 
REMARK  2 active torsions:
REMARK  status: ('A' for Active; 'I' for Inactive)
REMARK    1  A    between atoms: C_1  and  C_2
REMARK    2  A    between atoms: C_2  and  C_3
REMARK                            x       y       z     vdW  Elec       q    Type
REMARK                         _______ _______ _______ _____ _____    ______ ____
ROOT
ATOM      1  C   UNL     1       3.089   4.349  18.803  0.00  0.00    +0.000 A 
ATOM      2  C   UNL     1       3.511   5.649  18.603  0.00  0.00    +0.000 A 
ATOM      3 CL   UNL     1       2.429   6.918  18.168  0.00  0.00    +0.000 Cl
ATOM      4  N   UNL     1       4.776   6.082  18.709  0.00  0.00    +0.000 NA
ATOM      5  C   UNL     1       5.664   5.143  19.025  0.00  0.00    +0.000 A 
ATOM      6 CL   UNL     1       7.279   5.653  19.209  0.00  0.00    +0.000 Cl
ATOM      7  N   UNL     1       5.420   3.850  19.219  0.00  0.00    +0.000 NA
ATOM      8  C   UNL     1       4.133   3.492  19.095  0.00  0.00    +0.000 A 
ATOM      9 CL   UNL     1       3.908   1.801  19.337  0.00  0.00    +0.000 Cl
ENDROOT
BRANCH   1  11
ATOM     10  C   UNL     1       0.959   3.846  20.045  0.00  0.00    +0.000 C 
ATOM     11  C   UNL     1       1.658   3.911  18.695  0.00  0.00    +0.000 C 
ENDBRANCH   1  11
TORSDOF 1
ENDMDL
MODEL 4
REMARK VINA RESULT:      -5.1      1.359      1.359
REMARK  Name = 
REMARK  2 active torsions:
REMARK  status: ('A' for Active; 'I' for Inactive)
REMARK    1  A    between atoms: C_1  and  C_2
REMARK    2  A    between atoms: C_2  and  C_3
REMARK                            x       y       z     vdW  Elec       q    Type
REMARK                         _______ _______ _______ _____ _____    ______ ____
ROOT
ATOM      1  C   UNL     1       2.572   3.764  19.597  0.00  0.00    +0.000 A 
ATOM      2  C   UNL     1       3.606   3.129  18.938  0.00  0.00    +0.000 A 
ATOM      3 CL   UNL     1       3.576   1.446  18.567  0.00  0.00    +0.000 Cl
ATOM      4  N   UNL     1       4.738   3.715  18.520  0.00  0.00    +0.000 NA
ATOM      5  C   UNL     1       4.831   5.013  18.794  0.00  0.00    +0.000 A 
ATOM      6 CL   UNL     1       6.234   5.809  18.247  0.00  0.00    +0.000 Cl
ATOM      7  N   UNL     1       3.938   5.755  19.443  0.00  0.00    +0.000 NA
ATOM      8  C   UNL     1       2.833   5.100  19.831  0.00  0.00    +0.000 A 
ATOM      9 CL   UNL     1       1.743   6.125  20.684  0.00  0.00    +0.000 Cl
ENDROOT
BRANCH   1  11
ATOM     10  C   UNL     1       1.348   2.643  21.488  0.00  0.00    +0.000 C 
ATOM     11  C   UNL     1       1.312   3.073  20.029  0.00  0.00    +0.000 C 
ENDBRANCH   1  11
TORSDOF 1
ENDMDL
MODEL 5
REMARK VINA RESULT:      -5.1      3.465      4.896
REMARK  Name = 
REMARK  2 active torsions:
REMARK  status: ('A' for Active; 'I' for Inactive)
REMARK    1  A    between atoms: C_1  and  C_2
REMARK    2  A    between atoms: C_2  and  C_3
REMARK                            x       y       z     vdW  Elec       q    Type
REMARK                         _______ _______ _______ _____ _____    ______ ____
ROOT
ATOM      1  C   UNL     1       6.004   4.988  17.780  0.00  0.00    +0.000 A 
ATOM      2  C   UNL     1       6.990   5.805  17.261  0.00  0.00    +0.000 A 
ATOM      3 CL   UNL     1       7.841   6.957  18.220  0.00  0.00    +0.000 Cl
ATOM      4  N   UNL     1       7.399   5.816  15.983  0.00  0.00    +0.000 NA
ATOM      5  C   UNL     1       6.766   4.960  15.186  0.00  0.00    +0.000 A 
ATOM      6 CL   UNL     1       7.279   4.910  13.562  0.00  0.00    +0.000 Cl
ATOM      7  N   UNL     1       5.782   4.134  15.527  0.00  0.00    +0.000 NA
ATOM      8  C   UNL     1       5.427   4.179  16.820  0.00  0.00    +0.000 A 
ATOM      9 CL   UNL     1       4.131   3.100  17.171  0.00  0.00    +0.000 Cl
ENDROOT
BRANCH   1  11
ATOM     10  C   UNL     1       4.223   5.622  19.440  0.00  0.00    +0.000 C 
ATOM     11  C   UNL     1       5.592   4.994  19.222  0.00  0.00    +0.000 C 
ENDBRANCH   1  11
TORSDOF 1
ENDMDL
MODEL 6
REMARK VINA RESULT:      -5.1      3.424      4.375
REMARK  Name = 
REMARK  2 active torsions:
REMARK  status: ('A' for Active; 'I' for Inactive)
REMARK    1  A    between atoms: C_1  and  C_2
REMARK    2  A    between atoms: C_2  and  C_3
REMARK                            x       y       z     vdW  Elec       q    Type
REMARK                         _______ _______ _______ _____ _____    ______ ____
ROOT
ATOM      1  C   UNL     1       5.907   5.051  17.796  0.00  0.00    +0.000 A 
ATOM      2  C   UNL     1       5.383   4.189  16.853  0.00  0.00    +0.000 A 
ATOM      3 CL   UNL     1       4.124   3.070  17.218  0.00  0.00    +0.000 Cl
ATOM      4  N   UNL     1       5.774   4.104  15.572  0.00  0.00    +0.000 NA
ATOM      5  C   UNL     1       6.758   4.932  15.232  0.00  0.00    +0.000 A 
ATOM      6 CL   UNL     1       7.262   4.888  13.605  0.00  0.00    +0.000 Cl
ATOM      7  N   UNL     1       7.383   5.795  16.028  0.00  0.00    +0.000 NA
ATOM      8  C   UNL     1       6.938   5.822  17.294  0.00  0.00    +0.000 A 
ATOM      9 CL   UNL     1       7.815   6.945  18.261  0.00  0.00    +0.000 Cl
ENDROOT
BRANCH   1  11
ATOM     10  C   UNL     1       4.040   5.747  19.332  0.00  0.00    +0.000 C 
ATOM     11  C   UNL     1       5.425   5.128  19.214  0.00  0.00    +0.000 C 
ENDBRANCH   1  11
TORSDOF 1
ENDMDL
MODEL 7
REMARK VINA RESULT:      -5.0      2.181      2.338
REMARK  Name = 
REMARK  2 active torsions:
REMARK  status: ('A' for Active; 'I' for Inactive)
REMARK    1  A    between atoms: C_1  and  C_2
REMARK    2  A    between atoms: C_2  and  C_3
REMARK                            x       y       z     vdW  Elec       q    Type
REMARK                         _______ _______ _______ _____ _____    ______ ____
ROOT
ATOM      1  C   UNL     1       3.343   4.477  18.942  0.00  0.00    +0.000 A 
ATOM      2  C   UNL     1       4.432   3.704  19.294  0.00  0.00    +0.000 A 
ATOM      3 CL   UNL     1       4.270   2.122  19.959  0.00  0.00    +0.000 Cl
ATOM      4  N   UNL     1       5.717   4.070  19.178  0.00  0.00    +0.000 NA
ATOM      5  C   UNL     1       5.908   5.292  18.687  0.00  0.00    +0.000 A 
ATOM      6 CL   UNL     1       7.526   5.787  18.483  0.00  0.00    +0.000 Cl
ATOM      7  N   UNL     1       4.968   6.163  18.331  0.00  0.00    +0.000 NA
ATOM      8  C   UNL     1       3.708   5.726  18.476  0.00  0.00    +0.000 A 
ATOM      9 CL   UNL     1       2.555   6.920  18.018  0.00  0.00    +0.000 Cl
ENDROOT
BRANCH   1  11
ATOM     10  C   UNL     1       1.310   4.365  20.420  0.00  0.00    +0.000 C 
ATOM     11  C   UNL     1       1.920   4.019  19.069  0.00  0.00    +0.000 C 
ENDBRANCH   1  11
TORSDOF 1
ENDMDL
MODEL 8
REMARK VINA RESULT:      -5.0      2.103      2.679
REMARK  Name = 
REMARK  2 active torsions:
REMARK  status: ('A' for Active; 'I' for Inactive)
REMARK    1  A    between atoms: C_1  and  C_2
REMARK    2  A    between atoms: C_2  and  C_3
REMARK                            x       y       z     vdW  Elec       q    Type
REMARK                         _______ _______ _______ _____ _____    ______ ____
ROOT
ATOM      1  C   UNL     1       3.049   3.185  19.201  0.00  0.00    +0.000 A 
ATOM      2  C   UNL     1       2.896   4.216  18.295  0.00  0.00    +0.000 A 
ATOM      3 CL   UNL     1       1.378   4.602  17.577  0.00  0.00    +0.000 Cl
ATOM      4  N   UNL     1       3.876   5.022  17.860  0.00  0.00    +0.000 NA
ATOM      5  C   UNL     1       5.079   4.762  18.364  0.00  0.00    +0.000 A 
ATOM      6 CL   UNL     1       6.349   5.785  17.871  0.00  0.00    +0.000 Cl
ATOM      7  N   UNL     1       5.391   3.792  19.218  0.00  0.00    +0.000 NA
ATOM      8  C   UNL     1       4.360   3.026  19.607  0.00  0.00    +0.000 A 
ATOM      9 CL   UNL     1       4.853   1.781  20.690  0.00  0.00    +0.000 Cl
ENDROOT
BRANCH   1  11
ATOM     10  C   UNL     1       1.249   2.864  20.929  0.00  0.00    +0.000 C 
ATOM     11  C   UNL     1       1.919   2.319  19.676  0.00  0.00    +0.000 C 
ENDBRANCH   1  11
TORSDOF 1
ENDMDL
MODEL 9
REMARK VINA RESULT:      -5.0      2.687      3.847
REMARK  Name = 
REMARK  2 active torsions:
REMARK  status: ('A' for Active; 'I' for Inactive)
REMARK    1  A    between atoms: C_1  and  C_2
REMARK    2  A    between atoms: C_2  and  C_3
REMARK                            x       y       z     vdW  Elec       q    Type
REMARK                         _______ _______ _______ _____ _____    ______ ____
ROOT
ATOM      1  C   UNL     1       4.038   4.356  17.833  0.00  0.00    +0.000 A 
ATOM      2  C   UNL     1       4.237   4.803  19.125  0.00  0.00    +0.000 A 
ATOM      3 CL   UNL     1       2.978   4.833  20.301  0.00  0.00    +0.000 Cl
ATOM      4  N   UNL     1       5.396   5.265  19.619  0.00  0.00    +0.000 NA
ATOM      5  C   UNL     1       6.405   5.286  18.752  0.00  0.00    +0.000 A 
ATOM      6 CL   UNL     1       7.907   5.828  19.344  0.00  0.00    +0.000 Cl
ATOM      7  N   UNL     1       6.364   4.919  17.474  0.00  0.00    +0.000 NA
ATOM      8  C   UNL     1       5.172   4.469  17.052  0.00  0.00    +0.000 A 
ATOM      9 CL   UNL     1       5.199   4.039  15.384  0.00  0.00    +0.000 Cl
ENDROOT
BRANCH   1  11
ATOM     10  C   UNL     1       2.518   2.358  17.667  0.00  0.00    +0.000 C 
ATOM     11  C   UNL     1       2.728   3.827  17.328  0.00  0.00    +0.000 C 
ENDBRANCH   1  11
TORSDOF 1
ENDMDL
