MODEL 1
REMARK VINA RESULT:      -7.5      0.000      0.000
REMARK  Name = 
REMARK  7 active torsions:
REMARK  status: ('A' for Active; 'I' for Inactive)
REMARK    1  A    between atoms: C_1  and  C_2
REMARK    2  A    between atoms: C_2  and  C_3
REMARK    3  A    between atoms: C_3  and  C_5
REMARK    4  A    between atoms: C_8  and  O_9
REMARK    5  A    between atoms: O_9  and  C_10
REMARK    6  A    between atoms: N_14  and  C_15
REMARK    7  A    between atoms: N_18  and  C_19
REMARK                            x       y       z     vdW  Elec       q    Type
REMARK                         _______ _______ _______ _____ _____    ______ ____
ROOT
ATOM      1  O   UNL     1       5.505   5.673  17.893  0.00  0.00    +0.000 OA
ENDROOT
BRANCH   1   2
ATOM      2  C   UNL     1       4.751   4.895  18.763  0.00  0.00    +0.000 A 
ATOM      3  C   UNL     1       5.131   3.685  19.184  0.00  0.00    +0.000 A 
ATOM      4  C   UNL     1       4.309   2.949  20.147  0.00  0.00    +0.000 A 
ATOM      5  O   UNL     1       4.707   1.856  20.537  0.00  0.00    +0.000 OA
ATOM      6  N   UNL     1       3.148   3.563  20.553  0.00  0.00    +0.000 N 
ATOM      7  C   UNL     1       2.317   2.895  21.535  0.00  0.00    +0.000 C 
ATOM      8  C   UNL     1       2.688   4.777  20.052  0.00  0.00    +0.000 A 
ATOM      9  O   UNL     1       1.605   5.250  20.402  0.00  0.00    +0.000 OA
ATOM     10  N   UNL     1       3.523   5.414  19.136  0.00  0.00    +0.000 N 
ATOM     11  C   UNL     1       3.062   6.660  18.532  0.00  0.00    +0.000 C 
ENDBRANCH   1   2
BRANCH   1  15
ATOM     12  C   UNL     1       6.198   4.258  14.015  0.00  0.00    +0.000 A 
ATOM     13  C   UNL     1       5.007   3.987  14.699  0.00  0.00    +0.000 A 
ATOM     14  C   UNL     1       4.811   4.469  15.996  0.00  0.00    +0.000 A 
ATOM     15  C   UNL     1       5.804   5.219  16.627  0.00  0.00    +0.000 A 
ATOM     16  C   UNL     1       6.987   5.512  15.943  0.00  0.00    +0.000 A 
ATOM     17  C   UNL     1       7.192   5.014  14.651  0.00  0.00    +0.000 A 
BRANCH  12  18
ATOM     18  C   UNL     1       6.435   3.791  12.614  0.00  0.00    +0.000 C 
ATOM     19  O   UNL     1       7.356   4.280  11.963  0.00  0.00    +0.000 OA
BRANCH  18  21
ATOM     20  C   UNL     1       4.304   3.316  11.329  0.00  0.00    +0.000 C 
ATOM     21  C   UNL     1       5.508   2.730  12.044  0.00  0.00    +0.000 C 
ENDBRANCH  18  21
ENDBRANCH  12  18
ENDBRANCH   1  15
TORSDOF 4
ENDMDL
MODEL 2
REMARK VINA RESULT:      -7.3      0.203      1.067
REMARK  Name = 
REMARK  7 active torsions:
REMARK  status: ('A' for Active; 'I' for Inactive)
REMARK    1  A    between atoms: C_1  and  C_2
REMARK    2  A    between atoms: C_2  and  C_3
REMARK    3  A    between atoms: C_3  and  C_5
REMARK    4  A    between atoms: C_8  and  O_9
REMARK    5  A    between atoms: O_9  and  C_10
REMARK    6  A    between atoms: N_14  and  C_15
REMARK    7  A    between atoms: N_18  and  C_19
REMARK                            x       y       z     vdW  Elec       q    Type
REMARK                         _______ _______ _______ _____ _____    ______ ____
ROOT
ATOM      1  O   UNL     1       5.398   5.601  17.988  0.00  0.00    +0.000 OA
ENDROOT
BRANCH   1   2
ATOM      2  C   UNL     1       4.623   4.838  18.854  0.00  0.00    +0.000 A 
ATOM      3  C   UNL     1       4.941   3.594  19.221  0.00  0.00    +0.000 A 
ATOM      4  C   UNL     1       4.105   2.873  20.183  0.00  0.00    +0.000 A 
ATOM      5  O   UNL     1       4.447   1.745  20.523  0.00  0.00    +0.000 OA
ATOM      6  N   UNL     1       2.995   3.541  20.645  0.00  0.00    +0.000 N 
ATOM      7  C   UNL     1       2.153   2.888  21.629  0.00  0.00    +0.000 C 
ATOM      8  C   UNL     1       2.595   4.797  20.200  0.00  0.00    +0.000 A 
ATOM      9  O   UNL     1       1.553   5.320  20.599  0.00  0.00    +0.000 OA
ATOM     10  N   UNL     1       3.440   5.415  19.281  0.00  0.00    +0.000 N 
ATOM     11  C   UNL     1       3.038   6.708  18.734  0.00  0.00    +0.000 C 
ENDBRANCH   1   2
BRANCH   1  15
ATOM     12  C   UNL     1       6.231   4.376  14.073  0.00  0.00    +0.000 A 
ATOM     13  C   UNL     1       7.197   4.997  14.874  0.00  0.00    +0.000 A 
ATOM     14  C   UNL     1       6.883   5.400  16.175  0.00  0.00    +0.000 A 
ATOM     15  C   UNL     1       5.601   5.195  16.687  0.00  0.00    +0.000 A 
ATOM     16  C   UNL     1       4.638   4.557  15.901  0.00  0.00    +0.000 A 
ATOM     17  C   UNL     1       4.945   4.170  14.591  0.00  0.00    +0.000 A 
BRANCH  12  18
ATOM     18  C   UNL     1       6.534   3.898  12.688  0.00  0.00    +0.000 C 
ATOM     19  O   UNL     1       7.441   4.430  12.051  0.00  0.00    +0.000 OA
BRANCH  18  21
ATOM     20  C   UNL     1       4.460   3.266  11.378  0.00  0.00    +0.000 C 
ATOM     21  C   UNL     1       5.690   2.770  12.117  0.00  0.00    +0.000 C 
ENDBRANCH  18  21
ENDBRANCH  12  18
ENDBRANCH   1  15
TORSDOF 4
ENDMDL
MODEL 3
REMARK VINA RESULT:      -7.2      4.062      7.653
REMARK  Name = 
REMARK  7 active torsions:
REMARK  status: ('A' for Active; 'I' for Inactive)
REMARK    1  A    between atoms: C_1  and  C_2
REMARK    2  A    between atoms: C_2  and  C_3
REMARK    3  A    between atoms: C_3  and  C_5
REMARK    4  A    between atoms: C_8  and  O_9
REMARK    5  A    between atoms: O_9  and  C_10
REMARK    6  A    between atoms: N_14  and  C_15
REMARK    7  A    between atoms: N_18  and  C_19
REMARK                            x       y       z     vdW  Elec       q    Type
REMARK                         _______ _______ _______ _____ _____    ______ ____
ROOT
ATOM      1  O   UNL     1       3.055   6.979  17.920  0.00  0.00    +0.000 OA
ENDROOT
BRANCH   1   2
ATOM      2  C   UNL     1       3.033   5.607  18.144  0.00  0.00    +0.000 A 
ATOM      3  C   UNL     1       1.946   4.852  17.965  0.00  0.00    +0.000 A 
ATOM      4  C   UNL     1       2.015   3.403  18.166  0.00  0.00    +0.000 A 
ATOM      5  O   UNL     1       1.006   2.737  17.958  0.00  0.00    +0.000 OA
ATOM      6  N   UNL     1       3.233   2.900  18.561  0.00  0.00    +0.000 N 
ATOM      7  C   UNL     1       3.367   1.467  18.736  0.00  0.00    +0.000 C 
ATOM      8  C   UNL     1       4.347   3.682  18.847  0.00  0.00    +0.000 A 
ATOM      9  O   UNL     1       5.395   3.183  19.263  0.00  0.00    +0.000 OA
ATOM     10  N   UNL     1       4.201   5.052  18.636  0.00  0.00    +0.000 N 
ATOM     11  C   UNL     1       5.319   5.926  18.978  0.00  0.00    +0.000 C 
ENDBRANCH   1   2
BRANCH   1  15
ATOM     12  C   UNL     1       0.620   9.631  20.057  0.00  0.00    +0.000 A 
ATOM     13  C   UNL     1       0.876   9.800  18.691  0.00  0.00    +0.000 A 
ATOM     14  C   UNL     1       1.700   8.899  18.009  0.00  0.00    +0.000 A 
ATOM     15  C   UNL     1       2.283   7.827  18.685  0.00  0.00    +0.000 A 
ATOM     16  C   UNL     1       2.015   7.638  20.044  0.00  0.00    +0.000 A 
ATOM     17  C   UNL     1       1.206   8.550  20.732  0.00  0.00    +0.000 A 
BRANCH  12  18
ATOM     18  C   UNL     1      -0.282  10.550  20.817  0.00  0.00    +0.000 C 
ATOM     19  O   UNL     1      -0.983  11.351  20.203  0.00  0.00    +0.000 OA
BRANCH  18  21
ATOM     20  C   UNL     1      -1.395  11.276  22.974  0.00  0.00    +0.000 C 
ATOM     21  C   UNL     1      -0.285  10.460  22.334  0.00  0.00    +0.000 C 
ENDBRANCH  18  21
ENDBRANCH  12  18
ENDBRANCH   1  15
TORSDOF 4
ENDMDL
MODEL 4
REMARK VINA RESULT:      -7.1      5.083      7.013
REMARK  Name = 
REMARK  7 active torsions:
REMARK  status: ('A' for Active; 'I' for Inactive)
REMARK    1  A    between atoms: C_1  and  C_2
REMARK    2  A    between atoms: C_2  and  C_3
REMARK    3  A    between atoms: C_3  and  C_5
REMARK    4  A    between atoms: C_8  and  O_9
REMARK    5  A    between atoms: O_9  and  C_10
REMARK    6  A    between atoms: N_14  and  C_15
REMARK    7  A    between atoms: N_18  and  C_19
REMARK                            x       y       z     vdW  Elec       q    Type
REMARK                         _______ _______ _______ _____ _____    ______ ____
ROOT
ATOM      1  O   UNL     1       2.277   8.115  19.838  0.00  0.00    +0.000 OA
ENDROOT
BRANCH   1   2
ATOM      2  C   UNL     1       1.382   8.880  20.578  0.00  0.00    +0.000 A 
ATOM      3  C   UNL     1       1.256   8.783  21.904  0.00  0.00    +0.000 A 
ATOM      4  C   UNL     1       0.332   9.663  22.622  0.00  0.00    +0.000 A 
ATOM      5  O   UNL     1       0.268   9.570  23.844  0.00  0.00    +0.000 OA
ATOM      6  N   UNL     1      -0.387  10.549  21.854  0.00  0.00    +0.000 N 
ATOM      7  C   UNL     1      -1.288  11.469  22.518  0.00  0.00    +0.000 C 
ATOM      8  C   UNL     1      -0.342  10.596  20.465  0.00  0.00    +0.000 A 
ATOM      9  O   UNL     1      -1.059  11.365  19.822  0.00  0.00    +0.000 OA
ATOM     10  N   UNL     1       0.558   9.724  19.854  0.00  0.00    +0.000 N 
ATOM     11  C   UNL     1       0.604   9.688  18.396  0.00  0.00    +0.000 C 
ENDBRANCH   1   2
BRANCH   1  15
ATOM     12  C   UNL     1       1.660   4.069  18.964  0.00  0.00    +0.000 A 
ATOM     13  C   UNL     1       2.054   4.985  17.981  0.00  0.00    +0.000 A 
ATOM     14  C   UNL     1       2.244   6.331  18.306  0.00  0.00    +0.000 A 
ATOM     15  C   UNL     1       2.036   6.778  19.612  0.00  0.00    +0.000 A 
ATOM     16  C   UNL     1       1.664   5.865  20.603  0.00  0.00    +0.000 A 
ATOM     17  C   UNL     1       1.454   4.521  20.275  0.00  0.00    +0.000 A 
BRANCH  12  18
ATOM     18  C   UNL     1       1.479   2.614  18.668  0.00  0.00    +0.000 C 
ATOM     19  O   UNL     1       0.355   2.120  18.736  0.00  0.00    +0.000 OA
BRANCH  18  21
ATOM     20  C   UNL     1       3.904   2.099  19.187  0.00  0.00    +0.000 C 
ATOM     21  C   UNL     1       2.707   1.797  18.303  0.00  0.00    +0.000 C 
ENDBRANCH  18  21
ENDBRANCH  12  18
ENDBRANCH   1  15
TORSDOF 4
ENDMDL
MODEL 5
REMARK VINA RESULT:      -7.1      3.606      7.874
REMARK  Name = 
REMARK  7 active torsions:
REMARK  status: ('A' for Active; 'I' for Inactive)
REMARK    1  A    between atoms: C_1  and  C_2
REMARK    2  A    between atoms: C_2  and  C_3
REMARK    3  A    between atoms: C_3  and  C_5
REMARK    4  A    between atoms: C_8  and  O_9
REMARK    5  A    between atoms: O_9  and  C_10
REMARK    6  A    between atoms: N_14  and  C_15
REMARK    7  A    between atoms: N_18  and  C_19
REMARK                            x       y       z     vdW  Elec       q    Type
REMARK                         _______ _______ _______ _____ _____    ______ ____
ROOT
ATOM      1  O   UNL     1       2.374   6.625  17.888  0.00  0.00    +0.000 OA
ENDROOT
BRANCH   1   2
ATOM      2  C   UNL     1       3.722   6.286  17.908  0.00  0.00    +0.000 A 
ATOM      3  C   UNL     1       4.665   6.988  17.275  0.00  0.00    +0.000 A 
ATOM      4  C   UNL     1       6.073   6.601  17.389  0.00  0.00    +0.000 A 
ATOM      5  O   UNL     1       6.915   7.290  16.821  0.00  0.00    +0.000 OA
ATOM      6  N   UNL     1       6.339   5.487  18.151  0.00  0.00    +0.000 N 
ATOM      7  C   UNL     1       7.719   5.083  18.329  0.00  0.00    +0.000 C 
ATOM      8  C   UNL     1       5.362   4.688  18.736  0.00  0.00    +0.000 A 
ATOM      9  O   UNL     1       5.653   3.661  19.352  0.00  0.00    +0.000 OA
ATOM     10  N   UNL     1       4.046   5.119  18.578  0.00  0.00    +0.000 N 
ATOM     11  C   UNL     1       2.976   4.286  19.119  0.00  0.00    +0.000 C 
ENDBRANCH   1   2
BRANCH   1  15
ATOM     12  C   UNL     1       1.065   9.854  20.208  0.00  0.00    +0.000 A 
ATOM     13  C   UNL     1       1.409   8.624  20.781  0.00  0.00    +0.000 A 
ATOM     14  C   UNL     1       1.836   7.564  19.976  0.00  0.00    +0.000 A 
ATOM     15  C   UNL     1       1.916   7.718  18.591  0.00  0.00    +0.000 A 
ATOM     16  C   UNL     1       1.595   8.949  18.014  0.00  0.00    +0.000 A 
ATOM     17  C   UNL     1       1.149  10.005  18.817  0.00  0.00    +0.000 A 
BRANCH  12  18
ATOM     18  C   UNL     1       0.637  11.025  21.035  0.00  0.00    +0.000 C 
ATOM     19  O   UNL     1       1.423  11.952  21.219  0.00  0.00    +0.000 OA
BRANCH  18  21
ATOM     20  C   UNL     1      -0.804  10.436  23.033  0.00  0.00    +0.000 C 
ATOM     21  C   UNL     1      -0.762  11.012  21.628  0.00  0.00    +0.000 C 
ENDBRANCH  18  21
ENDBRANCH  12  18
ENDBRANCH   1  15
TORSDOF 4
ENDMDL
MODEL 6
REMARK VINA RESULT:      -7.0      3.687      7.960
REMARK  Name = 
REMARK  7 active torsions:
REMARK  status: ('A' for Active; 'I' for Inactive)
REMARK    1  A    between atoms: C_1  and  C_2
REMARK    2  A    between atoms: C_2  and  C_3
REMARK    3  A    between atoms: C_3  and  C_5
REMARK    4  A    between atoms: C_8  and  O_9
REMARK    5  A    between atoms: O_9  and  C_10
REMARK    6  A    between atoms: N_14  and  C_15
REMARK    7  A    between atoms: N_18  and  C_19
REMARK                            x       y       z     vdW  Elec       q    Type
REMARK                         _______ _______ _______ _____ _____    ______ ____
ROOT
ATOM      1  O   UNL     1       2.377   6.759  17.947  0.00  0.00    +0.000 OA
ENDROOT
BRANCH   1   2
ATOM      2  C   UNL     1       3.710   6.365  17.923  0.00  0.00    +0.000 A 
ATOM      3  C   UNL     1       4.658   7.021  17.247  0.00  0.00    +0.000 A 
ATOM      4  C   UNL     1       6.052   6.578  17.316  0.00  0.00    +0.000 A 
ATOM      5  O   UNL     1       6.899   7.227  16.710  0.00  0.00    +0.000 OA
ATOM      6  N   UNL     1       6.300   5.463  18.081  0.00  0.00    +0.000 N 
ATOM      7  C   UNL     1       7.669   5.005  18.214  0.00  0.00    +0.000 C 
ATOM      8  C   UNL     1       5.314   4.711  18.711  0.00  0.00    +0.000 A 
ATOM      9  O   UNL     1       5.586   3.680  19.329  0.00  0.00    +0.000 OA
ATOM     10  N   UNL     1       4.012   5.193  18.595  0.00  0.00    +0.000 N 
ATOM     11  C   UNL     1       2.930   4.410  19.184  0.00  0.00    +0.000 C 
ENDBRANCH   1   2
BRANCH   1  15
ATOM     12  C   UNL     1       1.051  10.023  20.207  0.00  0.00    +0.000 A 
ATOM     13  C   UNL     1       1.179  10.091  18.814  0.00  0.00    +0.000 A 
ATOM     14  C   UNL     1       1.631   8.984  18.091  0.00  0.00    +0.000 A 
ATOM     15  C   UNL     1       1.969   7.801  18.750  0.00  0.00    +0.000 A 
ATOM     16  C   UNL     1       1.824   7.718  20.137  0.00  0.00    +0.000 A 
ATOM     17  C   UNL     1       1.389   8.832  20.865  0.00  0.00    +0.000 A 
BRANCH  12  18
ATOM     18  C   UNL     1       0.538  11.171  21.017  0.00  0.00    +0.000 C 
ATOM     19  O   UNL     1       1.292  12.104  21.286  0.00  0.00    +0.000 OA
BRANCH  18  21
ATOM     20  C   UNL     1      -1.037  10.835  22.971  0.00  0.00    +0.000 C 
ATOM     21  C   UNL     1      -0.906  11.129  21.487  0.00  0.00    +0.000 C 
ENDBRANCH  18  21
ENDBRANCH  12  18
ENDBRANCH   1  15
TORSDOF 4
ENDMDL
MODEL 7
REMARK VINA RESULT:      -7.0      5.601      8.601
REMARK  Name = 
REMARK  7 active torsions:
REMARK  status: ('A' for Active; 'I' for Inactive)
REMARK    1  A    between atoms: C_1  and  C_2
REMARK    2  A    between atoms: C_2  and  C_3
REMARK    3  A    between atoms: C_3  and  C_5
REMARK    4  A    between atoms: C_8  and  O_9
REMARK    5  A    between atoms: O_9  and  C_10
REMARK    6  A    between atoms: N_14  and  C_15
REMARK    7  A    between atoms: N_18  and  C_19
REMARK                            x       y       z     vdW  Elec       q    Type
REMARK                         _______ _______ _______ _____ _____    ______ ____
ROOT
ATOM      1  O   UNL     1       0.795  10.638  18.609  0.00  0.00    +0.000 OA
ENDROOT
BRANCH   1   2
ATOM      2  C   UNL     1      -0.576  10.771  18.416  0.00  0.00    +0.000 A 
ATOM      3  C   UNL     1      -1.253  10.099  17.482  0.00  0.00    +0.000 A 
ATOM      4  C   UNL     1      -2.706  10.248  17.376  0.00  0.00    +0.000 A 
ATOM      5  O   UNL     1      -3.300   9.588  16.528  0.00  0.00    +0.000 OA
ATOM      6  N   UNL     1      -3.296  11.117  18.264  0.00  0.00    +0.000 N 
ATOM      7  C   UNL     1      -4.737  11.272  18.228  0.00  0.00    +0.000 C 
ATOM      8  C   UNL     1      -2.595  11.898  19.177  0.00  0.00    +0.000 A 
ATOM      9  O   UNL     1      -3.169  12.712  19.903  0.00  0.00    +0.000 OA
ATOM     10  N   UNL     1      -1.216  11.703  19.213  0.00  0.00    +0.000 N 
ATOM     11  C   UNL     1      -0.424  12.540  20.110  0.00  0.00    +0.000 C 
ENDBRANCH   1   2
BRANCH   1  15
ATOM     12  C   UNL     1       2.354   6.876  19.576  0.00  0.00    +0.000 A 
ATOM     13  C   UNL     1       1.676   7.660  20.518  0.00  0.00    +0.000 A 
ATOM     14  C   UNL     1       1.174   8.915  20.163  0.00  0.00    +0.000 A 
ATOM     15  C   UNL     1       1.350   9.405  18.869  0.00  0.00    +0.000 A 
ATOM     16  C   UNL     1       2.007   8.620  17.917  0.00  0.00    +0.000 A 
ATOM     17  C   UNL     1       2.527   7.371  18.276  0.00  0.00    +0.000 A 
BRANCH  12  18
ATOM     18  C   UNL     1       2.877   5.513  19.904  0.00  0.00    +0.000 C 
ATOM     19  O   UNL     1       3.896   5.109  19.348  0.00  0.00    +0.000 OA
BRANCH  18  21
ATOM     20  C   UNL     1       0.975   3.884  20.283  0.00  0.00    +0.000 C 
ATOM     21  C   UNL     1       2.110   4.673  20.911  0.00  0.00    +0.000 C 
ENDBRANCH  18  21
ENDBRANCH  12  18
ENDBRANCH   1  15
TORSDOF 4
ENDMDL
MODEL 8
REMARK VINA RESULT:      -7.0      3.924      7.405
REMARK  Name = 
REMARK  7 active torsions:
REMARK  status: ('A' for Active; 'I' for Inactive)
REMARK    1  A    between atoms: C_1  and  C_2
REMARK    2  A    between atoms: C_2  and  C_3
REMARK    3  A    between atoms: C_3  and  C_5
REMARK    4  A    between atoms: C_8  and  O_9
REMARK    5  A    between atoms: O_9  and  C_10
REMARK    6  A    between atoms: N_14  and  C_15
REMARK    7  A    between atoms: N_18  and  C_19
REMARK                            x       y       z     vdW  Elec       q    Type
REMARK                         _______ _______ _______ _____ _____    ______ ____
ROOT
ATOM      1  O   UNL     1       2.843   7.369  19.636  0.00  0.00    +0.000 OA
ENDROOT
BRANCH   1   2
ATOM      2  C   UNL     1       2.576   6.014  19.482  0.00  0.00    +0.000 A 
ATOM      3  C   UNL     1       1.874   5.299  20.365  0.00  0.00    +0.000 A 
ATOM      4  C   UNL     1       1.584   3.887  20.107  0.00  0.00    +0.000 A 
ATOM      5  O   UNL     1       0.907   3.272  20.924  0.00  0.00    +0.000 OA
ATOM      6  N   UNL     1       2.091   3.365  18.940  0.00  0.00    +0.000 N 
ATOM      7  C   UNL     1       1.801   1.982  18.616  0.00  0.00    +0.000 C 
ATOM      8  C   UNL     1       2.906   4.067  18.057  0.00  0.00    +0.000 A 
ATOM      9  O   UNL     1       3.389   3.529  17.059  0.00  0.00    +0.000 OA
ATOM     10  N   UNL     1       3.140   5.403  18.375  0.00  0.00    +0.000 N 
ATOM     11  C   UNL     1       4.038   6.171  17.517  0.00  0.00    +0.000 C 
ENDBRANCH   1   2
BRANCH   1  15
ATOM     12  C   UNL     1      -0.231  10.154  19.077  0.00  0.00    +0.000 A 
ATOM     13  C   UNL     1       0.549   9.691  18.010  0.00  0.00    +0.000 A 
ATOM     14  C   UNL     1       1.573   8.766  18.234  0.00  0.00    +0.000 A 
ATOM     15  C   UNL     1       1.834   8.300  19.523  0.00  0.00    +0.000 A 
ATOM     16  C   UNL     1       1.045   8.741  20.589  0.00  0.00    +0.000 A 
ATOM     17  C   UNL     1       0.032   9.681  20.370  0.00  0.00    +0.000 A 
BRANCH  12  18
ATOM     18  C   UNL     1      -1.359  11.117  18.878  0.00  0.00    +0.000 C 
ATOM     19  O   UNL     1      -1.617  11.934  19.760  0.00  0.00    +0.000 OA
BRANCH  18  21
ATOM     20  C   UNL     1      -3.115   9.860  17.555  0.00  0.00    +0.000 C 
ATOM     21  C   UNL     1      -2.154  11.034  17.585  0.00  0.00    +0.000 C 
ENDBRANCH  18  21
ENDBRANCH  12  18
ENDBRANCH   1  15
TORSDOF 4
ENDMDL
MODEL 9
REMARK VINA RESULT:      -7.0      4.082      7.349
REMARK  Name = 
REMARK  7 active torsions:
REMARK  status: ('A' for Active; 'I' for Inactive)
REMARK    1  A    between atoms: C_1  and  C_2
REMARK    2  A    between atoms: C_2  and  C_3
REMARK    3  A    between atoms: C_3  and  C_5
REMARK    4  A    between atoms: C_8  and  O_9
REMARK    5  A    between atoms: O_9  and  C_10
REMARK    6  A    between atoms: N_14  and  C_15
REMARK    7  A    between atoms: N_18  and  C_19
REMARK                            x       y       z     vdW  Elec       q    Type
REMARK                         _______ _______ _______ _____ _____    ______ ____
ROOT
ATOM      1  O   UNL     1       3.194   6.945  17.888  0.00  0.00    +0.000 OA
ENDROOT
BRANCH   1   2
ATOM      2  C   UNL     1       3.111   5.582  18.146  0.00  0.00    +0.000 A 
ATOM      3  C   UNL     1       2.004   4.862  17.939  0.00  0.00    +0.000 A 
ATOM      4  C   UNL     1       2.010   3.417  18.180  0.00  0.00    +0.000 A 
ATOM      5  O   UNL     1       0.985   2.784  17.945  0.00  0.00    +0.000 OA
ATOM      6  N   UNL     1       3.189   2.881  18.639  0.00  0.00    +0.000 N 
ATOM      7  C   UNL     1       3.261   1.450  18.857  0.00  0.00    +0.000 C 
ATOM      8  C   UNL     1       4.320   3.628  18.953  0.00  0.00    +0.000 A 
ATOM      9  O   UNL     1       5.329   3.103  19.427  0.00  0.00    +0.000 OA
ATOM     10  N   UNL     1       4.235   4.996  18.702  0.00  0.00    +0.000 N 
ATOM     11  C   UNL     1       5.369   5.838  19.069  0.00  0.00    +0.000 C 
ENDBRANCH   1   2
BRANCH   1  15
ATOM     12  C   UNL     1       0.645   9.716  19.718  0.00  0.00    +0.000 A 
ATOM     13  C   UNL     1       0.985   9.807  18.362  0.00  0.00    +0.000 A 
ATOM     14  C   UNL     1       1.845   8.869  17.785  0.00  0.00    +0.000 A 
ATOM     15  C   UNL     1       2.380   7.835  18.555  0.00  0.00    +0.000 A 
ATOM     16  C   UNL     1       2.029   7.725  19.903  0.00  0.00    +0.000 A 
ATOM     17  C   UNL     1       1.183   8.675  20.487  0.00  0.00    +0.000 A 
BRANCH  12  18
ATOM     18  C   UNL     1      -0.298  10.678  20.368  0.00  0.00    +0.000 C 
ATOM     19  O   UNL     1      -0.646  10.489  21.532  0.00  0.00    +0.000 OA
BRANCH  18  21
ATOM     20  C   UNL     1      -2.171  11.609  18.938  0.00  0.00    +0.000 C 
ATOM     21  C   UNL     1      -0.802  11.854  19.548  0.00  0.00    +0.000 C 
ENDBRANCH  18  21
ENDBRANCH  12  18
ENDBRANCH   1  15
TORSDOF 4
ENDMDL
