MODEL 1
REMARK VINA RESULT:      -6.4      0.000      0.000
REMARK  Name = 
REMARK  1 active torsions:
REMARK  status: ('A' for Active; 'I' for Inactive)
REMARK    1  A    between atoms: C_5  and  C_7
REMARK                            x       y       z     vdW  Elec       q    Type
REMARK                         _______ _______ _______ _____ _____    ______ ____
ROOT
ATOM      1  N   UNL     1       8.257   4.109  17.625  0.00  0.00    +0.000 NA
ATOM      2  C   UNL     1       7.228   4.741  17.194  0.00  0.00    +0.000 C 
ATOM      3  N   UNL     1       7.303   5.862  16.448  0.00  0.00    +0.000 N 
ATOM      4  N   UNL     1       6.025   4.205  17.538  0.00  0.00    +0.000 N 
ATOM      5  C   UNL     1       4.783   4.646  17.115  0.00  0.00    +0.000 C 
ATOM      6  O   UNL     1       4.628   5.552  16.296  0.00  0.00    +0.000 OA
ATOM      7  H   UNL     1       9.094   4.620  17.329  0.00  0.00    +0.000 HD
ATOM      8  H   UNL     1       8.110   5.975  15.849  0.00  0.00    +0.000 HD
ATOM      9  H   UNL     1       6.425   6.111  15.987  0.00  0.00    +0.000 HD
ATOM     10  H   UNL     1       6.118   3.376  18.106  0.00  0.00    +0.000 HD
ENDROOT
BRANCH   5  11
ATOM     11  C   UNL     1       3.592   3.943  17.646  0.00  0.00    +0.000 A 
ATOM     12  C   UNL     1       2.313   4.500  17.727  0.00  0.00    +0.000 A 
ATOM     13  C   UNL     1       1.261   3.723  18.214  0.00  0.00    +0.000 A 
ATOM     14  C   UNL     1       1.523   2.418  18.604  0.00  0.00    +0.000 A 
ATOM     15  N   UNL     1       2.744   1.852  18.541  0.00  0.00    +0.000 NA
ATOM     16  C   UNL     1       3.748   2.623  18.055  0.00  0.00    +0.000 A 
ENDBRANCH   5  11
TORSDOF 1
ENDMDL
MODEL 2
REMARK VINA RESULT:      -6.2      1.482      1.690
REMARK  Name = 
REMARK  1 active torsions:
REMARK  status: ('A' for Active; 'I' for Inactive)
REMARK    1  A    between atoms: C_5  and  C_7
REMARK                            x       y       z     vdW  Elec       q    Type
REMARK                         _______ _______ _______ _____ _____    ______ ____
ROOT
ATOM      1  N   UNL     1       7.236   4.688  15.505  0.00  0.00    +0.000 NA
ATOM      2  C   UNL     1       7.028   4.406  16.738  0.00  0.00    +0.000 C 
ATOM      3  N   UNL     1       8.012   4.299  17.653  0.00  0.00    +0.000 N 
ATOM      4  N   UNL     1       5.724   4.218  17.083  0.00  0.00    +0.000 N 
ATOM      5  C   UNL     1       5.240   4.002  18.361  0.00  0.00    +0.000 C 
ATOM      6  O   UNL     1       5.948   4.034  19.368  0.00  0.00    +0.000 OA
ATOM      7  H   UNL     1       8.247   4.777  15.363  0.00  0.00    +0.000 HD
ATOM      8  H   UNL     1       8.844   4.856  17.515  0.00  0.00    +0.000 HD
ATOM      9  H   UNL     1       7.680   4.308  18.620  0.00  0.00    +0.000 HD
ATOM     10  H   UNL     1       5.097   4.317  16.298  0.00  0.00    +0.000 HD
ENDROOT
BRANCH   5  11
ATOM     11  C   UNL     1       3.783   3.778  18.511  0.00  0.00    +0.000 A 
ATOM     12  C   UNL     1       2.812   4.257  17.629  0.00  0.00    +0.000 A 
ATOM     13  C   UNL     1       1.470   3.948  17.860  0.00  0.00    +0.000 A 
ATOM     14  C   UNL     1       1.146   3.172  18.963  0.00  0.00    +0.000 A 
ATOM     15  N   UNL     1       2.058   2.697  19.835  0.00  0.00    +0.000 NA
ATOM     16  C   UNL     1       3.355   3.002  19.584  0.00  0.00    +0.000 A 
ENDBRANCH   5  11
TORSDOF 1
ENDMDL
MODEL 3
REMARK VINA RESULT:      -6.2      1.424      1.515
REMARK  Name = 
REMARK  1 active torsions:
REMARK  status: ('A' for Active; 'I' for Inactive)
REMARK    1  A    between atoms: C_5  and  C_7
REMARK                            x       y       z     vdW  Elec       q    Type
REMARK                         _______ _______ _______ _____ _____    ______ ____
ROOT
ATOM      1  N   UNL     1       8.085   4.166  17.115  0.00  0.00    +0.000 NA
ATOM      2  C   UNL     1       7.349   4.593  18.074  0.00  0.00    +0.000 C 
ATOM      3  N   UNL     1       7.795   5.418  19.043  0.00  0.00    +0.000 N 
ATOM      4  N   UNL     1       6.059   4.159  18.059  0.00  0.00    +0.000 N 
ATOM      5  C   UNL     1       5.054   4.554  18.924  0.00  0.00    +0.000 C 
ATOM      6  O   UNL     1       5.201   5.426  19.780  0.00  0.00    +0.000 OA
ATOM      7  H   UNL     1       9.032   4.534  17.249  0.00  0.00    +0.000 HD
ATOM      8  H   UNL     1       8.540   6.059  18.808  0.00  0.00    +0.000 HD
ATOM      9  H   UNL     1       7.049   5.855  19.590  0.00  0.00    +0.000 HD
ATOM     10  H   UNL     1       5.867   3.539  17.286  0.00  0.00    +0.000 HD
ENDROOT
BRANCH   5  11
ATOM     11  C   UNL     1       3.723   3.923  18.761  0.00  0.00    +0.000 A 
ATOM     12  C   UNL     1       2.601   4.565  18.233  0.00  0.00    +0.000 A 
ATOM     13  C   UNL     1       1.409   3.850  18.096  0.00  0.00    +0.000 A 
ATOM     14  C   UNL     1       1.381   2.521  18.491  0.00  0.00    +0.000 A 
ATOM     15  N   UNL     1       2.445   1.873  19.006  0.00  0.00    +0.000 NA
ATOM     16  C   UNL     1       3.594   2.585  19.120  0.00  0.00    +0.000 A 
ENDBRANCH   5  11
TORSDOF 1
ENDMDL
MODEL 4
REMARK VINA RESULT:      -6.1      1.671      1.671
REMARK  Name = 
REMARK  1 active torsions:
REMARK  status: ('A' for Active; 'I' for Inactive)
REMARK    1  A    between atoms: C_5  and  C_7
REMARK                            x       y       z     vdW  Elec       q    Type
REMARK                         _______ _______ _______ _____ _____    ______ ____
ROOT
ATOM      1  N   UNL     1       8.167   5.374  20.505  0.00  0.00    +0.000 NA
ATOM      2  C   UNL     1       7.481   5.677  19.466  0.00  0.00    +0.000 C 
ATOM      3  N   UNL     1       7.875   6.589  18.555  0.00  0.00    +0.000 N 
ATOM      4  N   UNL     1       6.302   5.010  19.328  0.00  0.00    +0.000 N 
ATOM      5  C   UNL     1       5.438   5.092  18.250  0.00  0.00    +0.000 C 
ATOM      6  O   UNL     1       5.685   5.737  17.231  0.00  0.00    +0.000 OA
ATOM      7  H   UNL     1       9.010   5.956  20.514  0.00  0.00    +0.000 HD
ATOM      8  H   UNL     1       8.869   6.717  18.417  0.00  0.00    +0.000 HD
ATOM      9  H   UNL     1       7.352   6.550  17.677  0.00  0.00    +0.000 HD
ATOM     10  H   UNL     1       6.128   4.368  20.087  0.00  0.00    +0.000 HD
ENDROOT
BRANCH   5  11
ATOM     11  C   UNL     1       4.181   4.312  18.321  0.00  0.00    +0.000 A 
ATOM     12  C   UNL     1       2.983   4.680  17.703  0.00  0.00    +0.000 A 
ATOM     13  C   UNL     1       1.873   3.840  17.815  0.00  0.00    +0.000 A 
ATOM     14  C   UNL     1       1.998   2.664  18.538  0.00  0.00    +0.000 A 
ATOM     15  N   UNL     1       3.138   2.281  19.147  0.00  0.00    +0.000 NA
ATOM     16  C   UNL     1       4.205   3.107  19.017  0.00  0.00    +0.000 A 
ENDBRANCH   5  11
TORSDOF 1
ENDMDL
MODEL 5
REMARK VINA RESULT:      -6.1      3.186      4.282
REMARK  Name = 
REMARK  1 active torsions:
REMARK  status: ('A' for Active; 'I' for Inactive)
REMARK    1  A    between atoms: C_5  and  C_7
REMARK                            x       y       z     vdW  Elec       q    Type
REMARK                         _______ _______ _______ _____ _____    ______ ____
ROOT
ATOM      1  N   UNL     1       5.797   2.544  11.917  0.00  0.00    +0.000 NA
ATOM      2  C   UNL     1       6.470   3.451  12.524  0.00  0.00    +0.000 C 
ATOM      3  N   UNL     1       7.404   4.212  11.921  0.00  0.00    +0.000 N 
ATOM      4  N   UNL     1       6.181   3.607  13.846  0.00  0.00    +0.000 N 
ATOM      5  C   UNL     1       6.700   4.577  14.686  0.00  0.00    +0.000 C 
ATOM      6  O   UNL     1       7.443   5.480  14.301  0.00  0.00    +0.000 OA
ATOM      7  H   UNL     1       6.120   2.502  10.946  0.00  0.00    +0.000 HD
ATOM      8  H   UNL     1       7.287   4.408  10.936  0.00  0.00    +0.000 HD
ATOM      9  H   UNL     1       7.679   5.036  12.462  0.00  0.00    +0.000 HD
ATOM     10  H   UNL     1       5.473   2.964  14.167  0.00  0.00    +0.000 HD
ENDROOT
BRANCH   5  11
ATOM     11  C   UNL     1       6.284   4.543  16.107  0.00  0.00    +0.000 A 
ATOM     12  C   UNL     1       4.964   4.409  16.544  0.00  0.00    +0.000 A 
ATOM     13  C   UNL     1       4.702   4.354  17.915  0.00  0.00    +0.000 A 
ATOM     14  C   UNL     1       5.767   4.435  18.799  0.00  0.00    +0.000 A 
ATOM     15  N   UNL     1       7.051   4.567  18.411  0.00  0.00    +0.000 NA
ATOM     16  C   UNL     1       7.281   4.608  17.075  0.00  0.00    +0.000 A 
ENDBRANCH   5  11
TORSDOF 1
ENDMDL
MODEL 6
REMARK VINA RESULT:      -6.1      1.258      1.475
REMARK  Name = 
REMARK  1 active torsions:
REMARK  status: ('A' for Active; 'I' for Inactive)
REMARK    1  A    between atoms: C_5  and  C_7
REMARK                            x       y       z     vdW  Elec       q    Type
REMARK                         _______ _______ _______ _____ _____    ______ ____
ROOT
ATOM      1  N   UNL     1       8.240   4.183  17.795  0.00  0.00    +0.000 NA
ATOM      2  C   UNL     1       7.264   4.410  16.996  0.00  0.00    +0.000 C 
ATOM      3  N   UNL     1       7.424   4.818  15.722  0.00  0.00    +0.000 N 
ATOM      4  N   UNL     1       6.022   4.209  17.519  0.00  0.00    +0.000 N 
ATOM      5  C   UNL     1       4.823   4.292  16.832  0.00  0.00    +0.000 C 
ATOM      6  O   UNL     1       4.750   4.488  15.619  0.00  0.00    +0.000 OA
ATOM      7  H   UNL     1       9.113   4.395  17.302  0.00  0.00    +0.000 HD
ATOM      8  H   UNL     1       8.264   4.531  15.239  0.00  0.00    +0.000 HD
ATOM      9  H   UNL     1       6.582   4.727  15.149  0.00  0.00    +0.000 HD
ATOM     10  H   UNL     1       6.050   3.916  18.484  0.00  0.00    +0.000 HD
ENDROOT
BRANCH   5  11
ATOM     11  C   UNL     1       3.577   4.078  17.604  0.00  0.00    +0.000 A 
ATOM     12  C   UNL     1       2.715   2.992  17.432  0.00  0.00    +0.000 A 
ATOM     13  C   UNL     1       1.587   2.883  18.248  0.00  0.00    +0.000 A 
ATOM     14  C   UNL     1       1.360   3.861  19.204  0.00  0.00    +0.000 A 
ATOM     15  N   UNL     1       2.171   4.921  19.394  0.00  0.00    +0.000 NA
ATOM     16  C   UNL     1       3.265   5.001  18.598  0.00  0.00    +0.000 A 
ENDBRANCH   5  11
TORSDOF 1
ENDMDL
MODEL 7
REMARK VINA RESULT:      -6.1      1.087      1.168
REMARK  Name = 
REMARK  1 active torsions:
REMARK  status: ('A' for Active; 'I' for Inactive)
REMARK    1  A    between atoms: C_5  and  C_7
REMARK                            x       y       z     vdW  Elec       q    Type
REMARK                         _______ _______ _______ _____ _____    ______ ____
ROOT
ATOM      1  N   UNL     1       8.301   4.126  17.816  0.00  0.00    +0.000 NA
ATOM      2  C   UNL     1       7.315   4.434  17.057  0.00  0.00    +0.000 C 
ATOM      3  N   UNL     1       7.460   4.899  15.801  0.00  0.00    +0.000 N 
ATOM      4  N   UNL     1       6.079   4.260  17.603  0.00  0.00    +0.000 N 
ATOM      5  C   UNL     1       4.868   4.428  16.956  0.00  0.00    +0.000 C 
ATOM      6  O   UNL     1       4.772   4.688  15.756  0.00  0.00    +0.000 OA
ATOM      7  H   UNL     1       9.169   4.325  17.310  0.00  0.00    +0.000 HD
ATOM      8  H   UNL     1       8.274   4.601  15.281  0.00  0.00    +0.000 HD
ATOM      9  H   UNL     1       6.600   4.873  15.247  0.00  0.00    +0.000 HD
ATOM     10  H   UNL     1       6.119   3.918  18.552  0.00  0.00    +0.000 HD
ENDROOT
BRANCH   5  11
ATOM     11  C   UNL     1       3.634   4.229  17.750  0.00  0.00    +0.000 A 
ATOM     12  C   UNL     1       3.326   4.921  18.924  0.00  0.00    +0.000 A 
ATOM     13  C   UNL     1       2.112   4.668  19.565  0.00  0.00    +0.000 A 
ATOM     14  C   UNL     1       1.249   3.733  19.012  0.00  0.00    +0.000 A 
ATOM     15  N   UNL     1       1.518   3.047  17.884  0.00  0.00    +0.000 NA
ATOM     16  C   UNL     1       2.698   3.317  17.273  0.00  0.00    +0.000 A 
ENDBRANCH   5  11
TORSDOF 1
ENDMDL
MODEL 8
REMARK VINA RESULT:      -6.0      2.000      4.883
REMARK  Name = 
REMARK  1 active torsions:
REMARK  status: ('A' for Active; 'I' for Inactive)
REMARK    1  A    between atoms: C_5  and  C_7
REMARK                            x       y       z     vdW  Elec       q    Type
REMARK                         _______ _______ _______ _____ _____    ______ ____
ROOT
ATOM      1  N   UNL     1       4.058   0.713  18.499  0.00  0.00    +0.000 NA
ATOM      2  C   UNL     1       3.597   1.838  18.094  0.00  0.00    +0.000 C 
ATOM      3  N   UNL     1       2.318   2.024  17.713  0.00  0.00    +0.000 N 
ATOM      4  N   UNL     1       4.494   2.863  18.069  0.00  0.00    +0.000 N 
ATOM      5  C   UNL     1       4.216   4.184  17.765  0.00  0.00    +0.000 C 
ATOM      6  O   UNL     1       3.080   4.606  17.551  0.00  0.00    +0.000 OA
ATOM      7  H   UNL     1       3.305   0.020  18.446  0.00  0.00    +0.000 HD
ATOM      8  H   UNL     1       1.610   1.446  18.145  0.00  0.00    +0.000 HD
ATOM      9  H   UNL     1       2.045   3.007  17.646  0.00  0.00    +0.000 HD
ATOM     10  H   UNL     1       5.415   2.580  18.368  0.00  0.00    +0.000 HD
ENDROOT
BRANCH   5  11
ATOM     11  C   UNL     1       5.351   5.136  17.755  0.00  0.00    +0.000 A 
ATOM     12  C   UNL     1       6.400   5.130  18.678  0.00  0.00    +0.000 A 
ATOM     13  C   UNL     1       7.433   6.059  18.541  0.00  0.00    +0.000 A 
ATOM     14  C   UNL     1       7.382   6.961  17.489  0.00  0.00    +0.000 A 
ATOM     15  N   UNL     1       6.384   6.995  16.583  0.00  0.00    +0.000 NA
ATOM     16  C   UNL     1       5.398   6.077  16.730  0.00  0.00    +0.000 A 
ENDBRANCH   5  11
TORSDOF 1
ENDMDL
MODEL 9
REMARK VINA RESULT:      -6.0      1.656      1.936
REMARK  Name = 
REMARK  1 active torsions:
REMARK  status: ('A' for Active; 'I' for Inactive)
REMARK    1  A    between atoms: C_5  and  C_7
REMARK                            x       y       z     vdW  Elec       q    Type
REMARK                         _______ _______ _______ _____ _____    ______ ____
ROOT
ATOM      1  N   UNL     1       7.987   4.201  16.939  0.00  0.00    +0.000 NA
ATOM      2  C   UNL     1       7.278   4.591  17.933  0.00  0.00    +0.000 C 
ATOM      3  N   UNL     1       7.740   5.410  18.899  0.00  0.00    +0.000 N 
ATOM      4  N   UNL     1       6.000   4.122  17.961  0.00  0.00    +0.000 N 
ATOM      5  C   UNL     1       5.020   4.474  18.872  0.00  0.00    +0.000 C 
ATOM      6  O   UNL     1       5.177   5.335  19.738  0.00  0.00    +0.000 OA
ATOM      7  H   UNL     1       8.928   4.593  17.043  0.00  0.00    +0.000 HD
ATOM      8  H   UNL     1       8.458   6.075  18.648  0.00  0.00    +0.000 HD
ATOM      9  H   UNL     1       7.005   5.817  19.483  0.00  0.00    +0.000 HD
ATOM     10  H   UNL     1       5.795   3.511  17.185  0.00  0.00    +0.000 HD
ENDROOT
BRANCH   5  11
ATOM     11  C   UNL     1       3.702   3.809  18.748  0.00  0.00    +0.000 A 
ATOM     12  C   UNL     1       3.439   2.717  17.918  0.00  0.00    +0.000 A 
ATOM     13  C   UNL     1       2.161   2.155  17.916  0.00  0.00    +0.000 A 
ATOM     14  C   UNL     1       1.191   2.704  18.742  0.00  0.00    +0.000 A 
ATOM     15  N   UNL     1       1.411   3.758  19.552  0.00  0.00    +0.000 NA
ATOM     16  C   UNL     1       2.662   4.281  19.545  0.00  0.00    +0.000 A 
ENDBRANCH   5  11
TORSDOF 1
ENDMDL
