MODEL 1
REMARK VINA RESULT:      -8.1      0.000      0.000
REMARK  Name = 
REMARK  4 active torsions:
REMARK  status: ('A' for Active; 'I' for Inactive)
REMARK    1  A    between atoms: C_4  and  C_5
REMARK    2  A    between atoms: N_13  and  C_14
REMARK    3  A    between atoms: C_14  and  C_15
REMARK    4  A    between atoms: C_20  and  N_21
REMARK                            x       y       z     vdW  Elec       q    Type
REMARK                         _______ _______ _______ _____ _____    ______ ____
ROOT
ATOM      1  N   UNL     1       7.013   4.918  14.088  0.00  0.00    +0.000 N 
ATOM      2  C   UNL     1       6.747   5.170  15.419  0.00  0.00    +0.000 A 
ATOM      3  N   UNL     1       7.373   6.233  15.951  0.00  0.00    +0.000 NA
ATOM      4  C   UNL     1       7.146   6.535  17.258  0.00  0.00    +0.000 A 
ATOM      5  C   UNL     1       6.293   5.737  18.009  0.00  0.00    +0.000 A 
ATOM      6  N   UNL     1       5.837   5.765  19.299  0.00  0.00    +0.000 NA
ATOM      7  N   UNL     1       4.980   4.766  19.455  0.00  0.00    +0.000 NA
ATOM      8  N   UNL     1       4.928   4.082  18.287  0.00  0.00    +0.000 N 
ATOM      9  C   UNL     1       5.724   4.666  17.338  0.00  0.00    +0.000 A 
ATOM     10  N   UNL     1       5.914   4.325  16.050  0.00  0.00    +0.000 NA
ATOM     11  H   UNL     1       7.894   5.339  13.825  0.00  0.00    +0.000 HD
ATOM     12  H   UNL     1       6.883   3.941  13.872  0.00  0.00    +0.000 HD
ENDROOT
BRANCH   4  13
ATOM     13  C   UNL     1       7.773   7.724  17.795  0.00  0.00    +0.000 A 
ATOM     14  C   UNL     1       8.651   7.956  18.838  0.00  0.00    +0.000 A 
ATOM     15  C   UNL     1       8.932   9.346  18.835  0.00  0.00    +0.000 A 
ATOM     16  C   UNL     1       8.203   9.880  17.799  0.00  0.00    +0.000 A 
ATOM     17  O   UNL     1       7.497   8.909  17.170  0.00  0.00    +0.000 OA
ENDBRANCH   4  13
BRANCH   8  18
ATOM     18  C   UNL     1       4.010   2.966  18.151  0.00  0.00    +0.000 C 
BRANCH  18  19
ATOM     19  C   UNL     1       3.037   2.862  19.304  0.00  0.00    +0.000 A 
ATOM     20  C   UNL     1       1.743   3.394  19.127  0.00  0.00    +0.000 A 
ATOM     21  C   UNL     1       0.805   3.369  20.158  0.00  0.00    +0.000 A 
ATOM     22  C   UNL     1       1.147   2.824  21.388  0.00  0.00    +0.000 A 
ATOM     23  C   UNL     1       2.431   2.320  21.588  0.00  0.00    +0.000 A 
ATOM     24  C   UNL     1       3.381   2.302  20.553  0.00  0.00    +0.000 A 
BRANCH  24  25
ATOM     25  N   UNL     1       4.699   1.957  20.884  0.00  0.00    +0.000 N 
ATOM     26  H   UNL     1       4.909   2.038  21.873  0.00  0.00    +0.000 HD
ATOM     27  H   UNL     1       5.017   1.050  20.534  0.00  0.00    +0.000 HD
ENDBRANCH  24  25
ENDBRANCH  18  19
ENDBRANCH   8  18
TORSDOF 4
ENDMDL
MODEL 2
REMARK VINA RESULT:      -8.0      2.047      3.768
REMARK  Name = 
REMARK  4 active torsions:
REMARK  status: ('A' for Active; 'I' for Inactive)
REMARK    1  A    between atoms: C_4  and  C_5
REMARK    2  A    between atoms: N_13  and  C_14
REMARK    3  A    between atoms: C_14  and  C_15
REMARK    4  A    between atoms: C_20  and  N_21
REMARK                            x       y       z     vdW  Elec       q    Type
REMARK                         _______ _______ _______ _____ _____    ______ ____
ROOT
ATOM      1  N   UNL     1       8.007   7.366  18.157  0.00  0.00    +0.000 N 
ATOM      2  C   UNL     1       7.307   6.326  17.580  0.00  0.00    +0.000 A 
ATOM      3  N   UNL     1       7.479   6.165  16.257  0.00  0.00    +0.000 NA
ATOM      4  C   UNL     1       6.819   5.152  15.633  0.00  0.00    +0.000 A 
ATOM      5  C   UNL     1       5.978   4.326  16.367  0.00  0.00    +0.000 A 
ATOM      6  N   UNL     1       5.205   3.236  16.073  0.00  0.00    +0.000 NA
ATOM      7  N   UNL     1       4.650   2.809  17.198  0.00  0.00    +0.000 NA
ATOM      8  N   UNL     1       5.030   3.650  18.190  0.00  0.00    +0.000 N 
ATOM      9  C   UNL     1       5.882   4.613  17.720  0.00  0.00    +0.000 A 
ATOM     10  N   UNL     1       6.513   5.598  18.384  0.00  0.00    +0.000 NA
ATOM     11  H   UNL     1       8.247   8.053  17.455  0.00  0.00    +0.000 HD
ATOM     12  H   UNL     1       7.543   7.697  18.990  0.00  0.00    +0.000 HD
ENDROOT
BRANCH   4  13
ATOM     13  C   UNL     1       7.072   4.950  14.222  0.00  0.00    +0.000 A 
ATOM     14  C   UNL     1       6.504   4.144  13.253  0.00  0.00    +0.000 A 
ATOM     15  C   UNL     1       7.173   4.432  12.037  0.00  0.00    +0.000 A 
ATOM     16  C   UNL     1       8.114   5.387  12.337  0.00  0.00    +0.000 A 
ATOM     17  O   UNL     1       8.064   5.701  13.655  0.00  0.00    +0.000 OA
ENDBRANCH   4  13
BRANCH   8  18
ATOM     18  C   UNL     1       4.617   3.380  19.555  0.00  0.00    +0.000 C 
BRANCH  18  19
ATOM     19  C   UNL     1       3.154   3.681  19.797  0.00  0.00    +0.000 A 
ATOM     20  C   UNL     1       2.827   4.885  20.453  0.00  0.00    +0.000 A 
ATOM     21  C   UNL     1       1.504   5.212  20.744  0.00  0.00    +0.000 A 
ATOM     22  C   UNL     1       0.485   4.335  20.397  0.00  0.00    +0.000 A 
ATOM     23  C   UNL     1       0.795   3.127  19.773  0.00  0.00    +0.000 A 
ATOM     24  C   UNL     1       2.117   2.794  19.438  0.00  0.00    +0.000 A 
BRANCH  24  25
ATOM     25  N   UNL     1       2.367   1.489  18.989  0.00  0.00    +0.000 N 
ATOM     26  H   UNL     1       2.818   0.896  19.678  0.00  0.00    +0.000 HD
ATOM     27  H   UNL     1       1.564   1.002  18.585  0.00  0.00    +0.000 HD
ENDBRANCH  24  25
ENDBRANCH  18  19
ENDBRANCH   8  18
TORSDOF 4
ENDMDL
MODEL 3
REMARK VINA RESULT:      -7.9      0.761      1.451
REMARK  Name = 
REMARK  4 active torsions:
REMARK  status: ('A' for Active; 'I' for Inactive)
REMARK    1  A    between atoms: C_4  and  C_5
REMARK    2  A    between atoms: N_13  and  C_14
REMARK    3  A    between atoms: C_14  and  C_15
REMARK    4  A    between atoms: C_20  and  N_21
REMARK                            x       y       z     vdW  Elec       q    Type
REMARK                         _______ _______ _______ _____ _____    ______ ____
ROOT
ATOM      1  N   UNL     1       6.651   4.959  14.282  0.00  0.00    +0.000 N 
ATOM      2  C   UNL     1       6.596   5.173  15.644  0.00  0.00    +0.000 A 
ATOM      3  N   UNL     1       7.221   6.276  16.090  0.00  0.00    +0.000 NA
ATOM      4  C   UNL     1       7.197   6.543  17.424  0.00  0.00    +0.000 A 
ATOM      5  C   UNL     1       6.547   5.670  18.287  0.00  0.00    +0.000 A 
ATOM      6  N   UNL     1       6.317   5.645  19.636  0.00  0.00    +0.000 NA
ATOM      7  N   UNL     1       5.578   4.580  19.909  0.00  0.00    +0.000 NA
ATOM      8  N   UNL     1       5.380   3.908  18.749  0.00  0.00    +0.000 N 
ATOM      9  C   UNL     1       5.957   4.565  17.695  0.00  0.00    +0.000 A 
ATOM     10  N   UNL     1       5.950   4.256  16.385  0.00  0.00    +0.000 NA
ATOM     11  H   UNL     1       7.439   5.452  13.885  0.00  0.00    +0.000 HD
ATOM     12  H   UNL     1       6.561   3.978  14.065  0.00  0.00    +0.000 HD
ENDROOT
BRANCH   4  13
ATOM     13  C   UNL     1       7.814   7.771  17.877  0.00  0.00    +0.000 A 
ATOM     14  C   UNL     1       8.721   8.076  18.875  0.00  0.00    +0.000 A 
ATOM     15  C   UNL     1       8.968   9.469  18.793  0.00  0.00    +0.000 A 
ATOM     16  C   UNL     1       8.190   9.933  17.759  0.00  0.00    +0.000 A 
ATOM     17  O   UNL     1       7.487   8.916  17.205  0.00  0.00    +0.000 OA
ENDBRANCH   4  13
BRANCH   8  18
ATOM     18  C   UNL     1       4.541   2.724  18.741  0.00  0.00    +0.000 C 
BRANCH  18  19
ATOM     19  C   UNL     1       3.238   2.924  19.482  0.00  0.00    +0.000 A 
ATOM     20  C   UNL     1       3.151   2.446  20.806  0.00  0.00    +0.000 A 
ATOM     21  C   UNL     1       1.970   2.559  21.538  0.00  0.00    +0.000 A 
ATOM     22  C   UNL     1       0.851   3.141  20.956  0.00  0.00    +0.000 A 
ATOM     23  C   UNL     1       0.913   3.593  19.639  0.00  0.00    +0.000 A 
ATOM     24  C   UNL     1       2.102   3.521  18.896  0.00  0.00    +0.000 A 
BRANCH  24  25
ATOM     25  N   UNL     1       2.034   3.819  17.526  0.00  0.00    +0.000 N 
ATOM     26  H   UNL     1       2.663   3.267  16.954  0.00  0.00    +0.000 HD
ATOM     27  H   UNL     1       1.095   3.808  17.121  0.00  0.00    +0.000 HD
ENDBRANCH  24  25
ENDBRANCH  18  19
ENDBRANCH   8  18
TORSDOF 4
ENDMDL
MODEL 4
REMARK VINA RESULT:      -7.9      1.996      3.904
REMARK  Name = 
REMARK  4 active torsions:
REMARK  status: ('A' for Active; 'I' for Inactive)
REMARK    1  A    between atoms: C_4  and  C_5
REMARK    2  A    between atoms: N_13  and  C_14
REMARK    3  A    between atoms: C_14  and  C_15
REMARK    4  A    between atoms: C_20  and  N_21
REMARK                            x       y       z     vdW  Elec       q    Type
REMARK                         _______ _______ _______ _____ _____    ______ ____
ROOT
ATOM      1  N   UNL     1       7.956   7.761  17.718  0.00  0.00    +0.000 N 
ATOM      2  C   UNL     1       7.248   6.643  17.328  0.00  0.00    +0.000 A 
ATOM      3  N   UNL     1       7.347   6.310  16.030  0.00  0.00    +0.000 NA
ATOM      4  C   UNL     1       6.674   5.213  15.587  0.00  0.00    +0.000 A 
ATOM      5  C   UNL     1       5.896   4.480  16.473  0.00  0.00    +0.000 A 
ATOM      6  N   UNL     1       5.133   3.348  16.373  0.00  0.00    +0.000 NA
ATOM      7  N   UNL     1       4.654   3.067  17.576  0.00  0.00    +0.000 NA
ATOM      8  N   UNL     1       5.072   4.039  18.424  0.00  0.00    +0.000 N 
ATOM      9  C   UNL     1       5.873   4.943  17.779  0.00  0.00    +0.000 A 
ATOM     10  N   UNL     1       6.519   6.017  18.268  0.00  0.00    +0.000 NA
ATOM     11  H   UNL     1       8.139   8.352  16.919  0.00  0.00    +0.000 HD
ATOM     12  H   UNL     1       7.534   8.193  18.527  0.00  0.00    +0.000 HD
ENDROOT
BRANCH   4  13
ATOM     13  C   UNL     1       6.850   4.828  14.202  0.00  0.00    +0.000 A 
ATOM     14  C   UNL     1       6.285   3.853  13.400  0.00  0.00    +0.000 A 
ATOM     15  C   UNL     1       6.847   4.010  12.108  0.00  0.00    +0.000 A 
ATOM     16  C   UNL     1       7.727   5.062  12.201  0.00  0.00    +0.000 A 
ATOM     17  O   UNL     1       7.738   5.558  13.462  0.00  0.00    +0.000 OA
ENDBRANCH   4  13
BRANCH   8  18
ATOM     18  C   UNL     1       4.745   3.947  19.835  0.00  0.00    +0.000 C 
BRANCH  18  19
ATOM     19  C   UNL     1       3.258   3.837  20.088  0.00  0.00    +0.000 A 
ATOM     20  C   UNL     1       2.687   2.548  20.116  0.00  0.00    +0.000 A 
ATOM     21  C   UNL     1       1.317   2.370  20.306  0.00  0.00    +0.000 A 
ATOM     22  C   UNL     1       0.493   3.477  20.459  0.00  0.00    +0.000 A 
ATOM     23  C   UNL     1       1.039   4.758  20.405  0.00  0.00    +0.000 A 
ATOM     24  C   UNL     1       2.420   4.960  20.250  0.00  0.00    +0.000 A 
BRANCH  24  25
ATOM     25  N   UNL     1       2.866   6.270  20.016  0.00  0.00    +0.000 N 
ATOM     26  H   UNL     1       3.652   6.546  20.594  0.00  0.00    +0.000 HD
ATOM     27  H   UNL     1       3.055   6.501  19.038  0.00  0.00    +0.000 HD
ENDBRANCH  24  25
ENDBRANCH  18  19
ENDBRANCH   8  18
TORSDOF 4
ENDMDL
MODEL 5
REMARK VINA RESULT:      -7.8      3.336      6.527
REMARK  Name = 
REMARK  4 active torsions:
REMARK  status: ('A' for Active; 'I' for Inactive)
REMARK    1  A    between atoms: C_4  and  C_5
REMARK    2  A    between atoms: N_13  and  C_14
REMARK    3  A    between atoms: C_14  and  C_15
REMARK    4  A    between atoms: C_20  and  N_21
REMARK                            x       y       z     vdW  Elec       q    Type
REMARK                         _______ _______ _______ _____ _____    ______ ____
ROOT
ATOM      1  N   UNL     1       2.719   2.445  17.895  0.00  0.00    +0.000 N 
ATOM      2  C   UNL     1       3.314   3.676  17.710  0.00  0.00    +0.000 A 
ATOM      3  N   UNL     1       2.669   4.726  18.247  0.00  0.00    +0.000 NA
ATOM      4  C   UNL     1       3.210   5.966  18.102  0.00  0.00    +0.000 A 
ATOM      5  C   UNL     1       4.396   6.119  17.395  0.00  0.00    +0.000 A 
ATOM      6  N   UNL     1       5.201   7.183  17.087  0.00  0.00    +0.000 NA
ATOM      7  N   UNL     1       6.253   6.724  16.426  0.00  0.00    +0.000 NA
ATOM      8  N   UNL     1       6.094   5.387  16.273  0.00  0.00    +0.000 N 
ATOM      9  C   UNL     1       4.947   4.955  16.883  0.00  0.00    +0.000 A 
ATOM     10  N   UNL     1       4.454   3.708  16.999  0.00  0.00    +0.000 NA
ATOM     11  H   UNL     1       1.733   2.561  18.083  0.00  0.00    +0.000 HD
ATOM     12  H   UNL     1       2.979   1.804  17.161  0.00  0.00    +0.000 HD
ENDROOT
BRANCH   4  13
ATOM     13  C   UNL     1       2.539   7.074  18.748  0.00  0.00    +0.000 A 
ATOM     14  C   UNL     1       2.130   8.325  18.323  0.00  0.00    +0.000 A 
ATOM     15  C   UNL     1       1.486   8.941  19.425  0.00  0.00    +0.000 A 
ATOM     16  C   UNL     1       1.550   8.036  20.458  0.00  0.00    +0.000 A 
ATOM     17  O   UNL     1       2.188   6.909  20.059  0.00  0.00    +0.000 OA
ENDBRANCH   4  13
BRANCH   8  18
ATOM     18  C   UNL     1       7.140   4.609  15.635  0.00  0.00    +0.000 C 
BRANCH  18  19
ATOM     19  C   UNL     1       6.905   4.412  14.154  0.00  0.00    +0.000 A 
ATOM     20  C   UNL     1       5.942   3.461  13.758  0.00  0.00    +0.000 A 
ATOM     21  C   UNL     1       5.700   3.198  12.411  0.00  0.00    +0.000 A 
ATOM     22  C   UNL     1       6.423   3.872  11.435  0.00  0.00    +0.000 A 
ATOM     23  C   UNL     1       7.397   4.795  11.811  0.00  0.00    +0.000 A 
ATOM     24  C   UNL     1       7.634   5.101  13.161  0.00  0.00    +0.000 A 
BRANCH  24  25
ATOM     25  N   UNL     1       8.752   5.892  13.463  0.00  0.00    +0.000 N 
ATOM     26  H   UNL     1       9.631   5.384  13.447  0.00  0.00    +0.000 HD
ATOM     27  H   UNL     1       8.839   6.755  12.922  0.00  0.00    +0.000 HD
ENDBRANCH  24  25
ENDBRANCH  18  19
ENDBRANCH   8  18
TORSDOF 4
ENDMDL
MODEL 6
REMARK VINA RESULT:      -7.7      2.925      6.459
REMARK  Name = 
REMARK  4 active torsions:
REMARK  status: ('A' for Active; 'I' for Inactive)
REMARK    1  A    between atoms: C_4  and  C_5
REMARK    2  A    between atoms: N_13  and  C_14
REMARK    3  A    between atoms: C_14  and  C_15
REMARK    4  A    between atoms: C_20  and  N_21
REMARK                            x       y       z     vdW  Elec       q    Type
REMARK                         _______ _______ _______ _____ _____    ______ ____
ROOT
ATOM      1  N   UNL     1       4.901   2.430  19.838  0.00  0.00    +0.000 N 
ATOM      2  C   UNL     1       4.786   3.638  19.182  0.00  0.00    +0.000 A 
ATOM      3  N   UNL     1       3.822   4.460  19.631  0.00  0.00    +0.000 NA
ATOM      4  C   UNL     1       3.664   5.668  19.026  0.00  0.00    +0.000 A 
ATOM      5  C   UNL     1       4.483   6.015  17.959  0.00  0.00    +0.000 A 
ATOM      6  N   UNL     1       4.607   7.121  17.162  0.00  0.00    +0.000 NA
ATOM      7  N   UNL     1       5.614   6.914  16.326  0.00  0.00    +0.000 NA
ATOM      8  N   UNL     1       6.094   5.668  16.558  0.00  0.00    +0.000 N 
ATOM      9  C   UNL     1       5.425   5.068  17.590  0.00  0.00    +0.000 A 
ATOM     10  N   UNL     1       5.624   3.862  18.155  0.00  0.00    +0.000 NA
ATOM     11  H   UNL     1       4.032   2.203  20.301  0.00  0.00    +0.000 HD
ATOM     12  H   UNL     1       5.303   1.727  19.235  0.00  0.00    +0.000 HD
ENDROOT
BRANCH   4  13
ATOM     13  C   UNL     1       2.669   6.569  19.569  0.00  0.00    +0.000 A 
ATOM     14  C   UNL     1       1.806   6.505  20.647  0.00  0.00    +0.000 A 
ATOM     15  C   UNL     1       1.101   7.734  20.680  0.00  0.00    +0.000 A 
ATOM     16  C   UNL     1       1.567   8.470  19.617  0.00  0.00    +0.000 A 
ATOM     17  O   UNL     1       2.510   7.772  18.938  0.00  0.00    +0.000 OA
ENDBRANCH   4  13
BRANCH   8  18
ATOM     18  C   UNL     1       7.253   5.199  15.822  0.00  0.00    +0.000 C 
BRANCH  18  19
ATOM     19  C   UNL     1       6.915   4.751  14.417  0.00  0.00    +0.000 A 
ATOM     20  C   UNL     1       5.848   3.844  14.252  0.00  0.00    +0.000 A 
ATOM     21  C   UNL     1       5.503   3.357  12.992  0.00  0.00    +0.000 A 
ATOM     22  C   UNL     1       6.227   3.757  11.877  0.00  0.00    +0.000 A 
ATOM     23  C   UNL     1       7.302   4.631  12.027  0.00  0.00    +0.000 A 
ATOM     24  C   UNL     1       7.644   5.162  13.282  0.00  0.00    +0.000 A 
BRANCH  24  25
ATOM     25  N   UNL     1       8.846   5.878  13.380  0.00  0.00    +0.000 N 
ATOM     26  H   UNL     1       9.450   5.566  14.134  0.00  0.00    +0.000 HD
ATOM     27  H   UNL     1       9.384   5.957  12.514  0.00  0.00    +0.000 HD
ENDBRANCH  24  25
ENDBRANCH  18  19
ENDBRANCH   8  18
TORSDOF 4
ENDMDL
MODEL 7
REMARK VINA RESULT:      -7.6      2.961      6.922
REMARK  Name = 
REMARK  4 active torsions:
REMARK  status: ('A' for Active; 'I' for Inactive)
REMARK    1  A    between atoms: C_4  and  C_5
REMARK    2  A    between atoms: N_13  and  C_14
REMARK    3  A    between atoms: C_14  and  C_15
REMARK    4  A    between atoms: C_20  and  N_21
REMARK                            x       y       z     vdW  Elec       q    Type
REMARK                         _______ _______ _______ _____ _____    ______ ____
ROOT
ATOM      1  N   UNL     1       2.609   8.617  17.766  0.00  0.00    +0.000 N 
ATOM      2  C   UNL     1       3.183   7.368  17.882  0.00  0.00    +0.000 A 
ATOM      3  N   UNL     1       2.578   6.521  18.732  0.00  0.00    +0.000 NA
ATOM      4  C   UNL     1       3.096   5.272  18.885  0.00  0.00    +0.000 A 
ATOM      5  C   UNL     1       4.235   4.910  18.178  0.00  0.00    +0.000 A 
ATOM      6  N   UNL     1       4.982   3.767  18.079  0.00  0.00    +0.000 NA
ATOM      7  N   UNL     1       5.944   3.980  17.193  0.00  0.00    +0.000 NA
ATOM      8  N   UNL     1       5.837   5.262  16.769  0.00  0.00    +0.000 N 
ATOM      9  C   UNL     1       4.764   5.884  17.347  0.00  0.00    +0.000 A 
ATOM     10  N   UNL     1       4.291   7.131  17.159  0.00  0.00    +0.000 NA
ATOM     11  H   UNL     1       2.056   8.822  18.587  0.00  0.00    +0.000 HD
ATOM     12  H   UNL     1       3.292   9.304  17.484  0.00  0.00    +0.000 HD
ENDROOT
BRANCH   4  13
ATOM     13  C   UNL     1       2.390   4.350  19.750  0.00  0.00    +0.000 A 
ATOM     14  C   UNL     1       2.191   4.281  21.117  0.00  0.00    +0.000 A 
ATOM     15  C   UNL     1       1.367   3.152  21.353  0.00  0.00    +0.000 A 
ATOM     16  C   UNL     1       1.122   2.594  20.122  0.00  0.00    +0.000 A 
ATOM     17  O   UNL     1       1.740   3.308  19.149  0.00  0.00    +0.000 OA
ENDBRANCH   4  13
BRANCH   8  18
ATOM     18  C   UNL     1       6.732   5.752  15.737  0.00  0.00    +0.000 C 
BRANCH  18  19
ATOM     19  C   UNL     1       6.570   5.020  14.423  0.00  0.00    +0.000 A 
ATOM     20  C   UNL     1       5.473   4.145  14.285  0.00  0.00    +0.000 A 
ATOM     21  C   UNL     1       5.281   3.407  13.118  0.00  0.00    +0.000 A 
ATOM     22  C   UNL     1       6.187   3.523  12.072  0.00  0.00    +0.000 A 
ATOM     23  C   UNL     1       7.291   4.363  12.204  0.00  0.00    +0.000 A 
ATOM     24  C   UNL     1       7.485   5.142  13.356  0.00  0.00    +0.000 A 
BRANCH  24  25
ATOM     25  N   UNL     1       8.711   5.812  13.491  0.00  0.00    +0.000 N 
ATOM     26  H   UNL     1       8.782   6.372  14.334  0.00  0.00    +0.000 HD
ATOM     27  H   UNL     1       9.544   5.228  13.389  0.00  0.00    +0.000 HD
ENDBRANCH  24  25
ENDBRANCH  18  19
ENDBRANCH   8  18
TORSDOF 4
ENDMDL
MODEL 8
REMARK VINA RESULT:      -7.6      1.945      3.751
REMARK  Name = 
REMARK  4 active torsions:
REMARK  status: ('A' for Active; 'I' for Inactive)
REMARK    1  A    between atoms: C_4  and  C_5
REMARK    2  A    between atoms: N_13  and  C_14
REMARK    3  A    between atoms: C_14  and  C_15
REMARK    4  A    between atoms: C_20  and  N_21
REMARK                            x       y       z     vdW  Elec       q    Type
REMARK                         _______ _______ _______ _____ _____    ______ ____
ROOT
ATOM      1  N   UNL     1       8.069   7.965  17.277  0.00  0.00    +0.000 N 
ATOM      2  C   UNL     1       7.293   6.854  17.015  0.00  0.00    +0.000 A 
ATOM      3  N   UNL     1       7.355   6.378  15.760  0.00  0.00    +0.000 NA
ATOM      4  C   UNL     1       6.616   5.281  15.443  0.00  0.00    +0.000 A 
ATOM      5  C   UNL     1       5.810   4.694  16.410  0.00  0.00    +0.000 A 
ATOM      6  N   UNL     1       4.982   3.604  16.438  0.00  0.00    +0.000 NA
ATOM      7  N   UNL     1       4.505   3.482  17.669  0.00  0.00    +0.000 NA
ATOM      8  N   UNL     1       4.988   4.513  18.403  0.00  0.00    +0.000 N 
ATOM      9  C   UNL     1       5.830   5.295  17.658  0.00  0.00    +0.000 A 
ATOM     10  N   UNL     1       6.543   6.376  18.023  0.00  0.00    +0.000 NA
ATOM     11  H   UNL     1       8.275   8.455  16.417  0.00  0.00    +0.000 HD
ATOM     12  H   UNL     1       7.683   8.505  18.037  0.00  0.00    +0.000 HD
ENDROOT
BRANCH   4  13
ATOM     13  C   UNL     1       6.750   4.740  14.107  0.00  0.00    +0.000 A 
ATOM     14  C   UNL     1       6.166   3.678  13.441  0.00  0.00    +0.000 A 
ATOM     15  C   UNL     1       6.687   3.687  12.122  0.00  0.00    +0.000 A 
ATOM     16  C   UNL     1       7.563   4.744  12.065  0.00  0.00    +0.000 A 
ATOM     17  O   UNL     1       7.611   5.382  13.260  0.00  0.00    +0.000 OA
ENDBRANCH   4  13
BRANCH   8  18
ATOM     18  C   UNL     1       4.677   4.593  19.818  0.00  0.00    +0.000 C 
BRANCH  18  19
ATOM     19  C   UNL     1       3.322   4.010  20.155  0.00  0.00    +0.000 A 
ATOM     20  C   UNL     1       2.189   4.830  19.982  0.00  0.00    +0.000 A 
ATOM     21  C   UNL     1       0.912   4.374  20.309  0.00  0.00    +0.000 A 
ATOM     22  C   UNL     1       0.747   3.096  20.825  0.00  0.00    +0.000 A 
ATOM     23  C   UNL     1       1.862   2.284  21.027  0.00  0.00    +0.000 A 
ATOM     24  C   UNL     1       3.152   2.708  20.673  0.00  0.00    +0.000 A 
BRANCH  24  25
ATOM     25  N   UNL     1       4.235   1.915  21.081  0.00  0.00    +0.000 N 
ATOM     26  H   UNL     1       4.982   2.437  21.528  0.00  0.00    +0.000 HD
ATOM     27  H   UNL     1       3.993   1.100  21.649  0.00  0.00    +0.000 HD
ENDBRANCH  24  25
ENDBRANCH  18  19
ENDBRANCH   8  18
TORSDOF 4
ENDMDL
MODEL 9
REMARK VINA RESULT:      -7.6      2.454      3.708
REMARK  Name = 
REMARK  4 active torsions:
REMARK  status: ('A' for Active; 'I' for Inactive)
REMARK    1  A    between atoms: C_4  and  C_5
REMARK    2  A    between atoms: N_13  and  C_14
REMARK    3  A    between atoms: C_14  and  C_15
REMARK    4  A    between atoms: C_20  and  N_21
REMARK                            x       y       z     vdW  Elec       q    Type
REMARK                         _______ _______ _______ _____ _____    ______ ____
ROOT
ATOM      1  N   UNL     1       8.988   4.218  18.705  0.00  0.00    +0.000 N 
ATOM      2  C   UNL     1       7.860   4.574  17.995  0.00  0.00    +0.000 A 
ATOM      3  N   UNL     1       7.965   4.513  16.657  0.00  0.00    +0.000 NA
ATOM      4  C   UNL     1       6.883   4.847  15.903  0.00  0.00    +0.000 A 
ATOM      5  C   UNL     1       5.711   5.254  16.526  0.00  0.00    +0.000 A 
ATOM      6  N   UNL     1       4.468   5.626  16.089  0.00  0.00    +0.000 NA
ATOM      7  N   UNL     1       3.711   5.861  17.151  0.00  0.00    +0.000 NA
ATOM      8  N   UNL     1       4.481   5.685  18.253  0.00  0.00    +0.000 N 
ATOM      9  C   UNL     1       5.745   5.284  17.911  0.00  0.00    +0.000 A 
ATOM     10  N   UNL     1       6.785   4.963  18.702  0.00  0.00    +0.000 NA
ATOM     11  H   UNL     1       9.809   4.317  18.123  0.00  0.00    +0.000 HD
ATOM     12  H   UNL     1       9.003   4.667  19.609  0.00  0.00    +0.000 HD
ENDROOT
BRANCH   4  13
ATOM     13  C   UNL     1       6.993   4.707  14.466  0.00  0.00    +0.000 A 
ATOM     14  C   UNL     1       6.368   3.902  13.532  0.00  0.00    +0.000 A 
ATOM     15  C   UNL     1       6.884   4.269  12.264  0.00  0.00    +0.000 A 
ATOM     16  C   UNL     1       7.799   5.267  12.499  0.00  0.00    +0.000 A 
ATOM     17  O   UNL     1       7.874   5.534  13.826  0.00  0.00    +0.000 OA
ENDBRANCH   4  13
BRANCH   8  18
ATOM     18  C   UNL     1       3.885   5.813  19.570  0.00  0.00    +0.000 C 
BRANCH  18  19
ATOM     19  C   UNL     1       2.962   4.664  19.912  0.00  0.00    +0.000 A 
ATOM     20  C   UNL     1       1.610   4.961  20.180  0.00  0.00    +0.000 A 
ATOM     21  C   UNL     1       0.710   3.959  20.540  0.00  0.00    +0.000 A 
ATOM     22  C   UNL     1       1.147   2.646  20.650  0.00  0.00    +0.000 A 
ATOM     23  C   UNL     1       2.487   2.342  20.415  0.00  0.00    +0.000 A 
ATOM     24  C   UNL     1       3.404   3.329  20.017  0.00  0.00    +0.000 A 
BRANCH  24  25
ATOM     25  N   UNL     1       4.763   2.982  19.986  0.00  0.00    +0.000 N 
ATOM     26  H   UNL     1       4.942   2.058  19.605  0.00  0.00    +0.000 HD
ATOM     27  H   UNL     1       5.381   3.666  19.545  0.00  0.00    +0.000 HD
ENDBRANCH  24  25
ENDBRANCH  18  19
ENDBRANCH   8  18
TORSDOF 4
ENDMDL
