MODEL 1
REMARK VINA RESULT:      -6.7      0.000      0.000
REMARK  Name = 
REMARK  8 active torsions:
REMARK  status: ('A' for Active; 'I' for Inactive)
REMARK    1  A    between atoms: C_1  and  C_2
REMARK    2  A    between atoms: C_2  and  C_3
REMARK    3  A    between atoms: C_5  and  C_6
REMARK    4  A    between atoms: C_6  and  N_7
REMARK    5  A    between atoms: N_7  and  C_8
REMARK    6  A    between atoms: C_8  and  C_9
REMARK    7  A    between atoms: C_9  and  N_10
REMARK    8  A    between atoms: C_12  and  C_13
REMARK                            x       y       z     vdW  Elec       q    Type
REMARK                         _______ _______ _______ _____ _____    ______ ____
ROOT
ATOM      1  N   UNL     1       6.569   4.282  18.616  0.00  0.00    +0.000 NA
ATOM      2  H   UNL     1       6.954   3.936  19.499  0.00  0.00    +0.000 HD
ENDROOT
BRANCH   1   3
ATOM      3  C   UNL     1       7.709   4.542  17.716  0.00  0.00    +0.000 C 
BRANCH   3   6
ATOM      4  C   UNL     1       6.227   4.271  14.527  0.00  0.00    +0.000 A 
ATOM      5  N   UNL     1       6.402   3.750  15.721  0.00  0.00    +0.000 NA
ATOM      6  C   UNL     1       7.225   4.679  16.311  0.00  0.00    +0.000 A 
ATOM      7  N   UNL     1       7.567   5.713  15.530  0.00  0.00    +0.000 NA
ATOM      8  O   UNL     1       6.894   5.445  14.337  0.00  0.00    +0.000 OA
BRANCH   4  10
ATOM      9  C   UNL     1       6.279   3.399  12.218  0.00  0.00    +0.000 C 
ATOM     10  C   UNL     1       5.405   3.782  13.400  0.00  0.00    +0.000 C 
ENDBRANCH   4  10
ENDBRANCH   3   6
ENDBRANCH   1   3
BRANCH   1  11
ATOM     11  C   UNL     1       5.786   5.500  18.866  0.00  0.00    +0.000 C 
BRANCH  11  12
ATOM     12  C   UNL     1       4.316   5.370  18.458  0.00  0.00    +0.000 C 
BRANCH  12  13
ATOM     13  N   UNL     1       3.659   4.284  19.155  0.00  0.00    +0.000 N 
ATOM     14  C   UNL     1       2.804   4.391  20.211  0.00  0.00    +0.000 A 
ATOM     15  C   UNL     1       2.474   3.102  20.573  0.00  0.00    +0.000 A 
ATOM     16  C   UNL     1       1.582   2.659  21.664  0.00  0.00    +0.000 C 
ATOM     17  C   UNL     1       3.196   2.294  19.664  0.00  0.00    +0.000 A 
ATOM     18  N   UNL     1       3.909   3.012  18.794  0.00  0.00    +0.000 NA
ENDBRANCH  12  13
ENDBRANCH  11  12
ENDBRANCH   1  11
TORSDOF 6
ENDMDL
MODEL 2
REMARK VINA RESULT:      -6.5      2.039      6.667
REMARK  Name = 
REMARK  8 active torsions:
REMARK  status: ('A' for Active; 'I' for Inactive)
REMARK    1  A    between atoms: C_1  and  C_2
REMARK    2  A    between atoms: C_2  and  C_3
REMARK    3  A    between atoms: C_5  and  C_6
REMARK    4  A    between atoms: C_6  and  N_7
REMARK    5  A    between atoms: N_7  and  C_8
REMARK    6  A    between atoms: C_8  and  C_9
REMARK    7  A    between atoms: C_9  and  N_10
REMARK    8  A    between atoms: C_12  and  C_13
REMARK                            x       y       z     vdW  Elec       q    Type
REMARK                         _______ _______ _______ _____ _____    ______ ____
ROOT
ATOM      1  N   UNL     1       6.884   4.132  18.223  0.00  0.00    +0.000 NA
ATOM      2  H   UNL     1       6.438   3.227  18.055  0.00  0.00    +0.000 HD
ENDROOT
BRANCH   1   3
ATOM      3  C   UNL     1       5.815   5.086  18.577  0.00  0.00    +0.000 C 
BRANCH   3   6
ATOM      4  C   UNL     1       2.901   4.021  20.254  0.00  0.00    +0.000 A 
ATOM      5  N   UNL     1       3.558   5.003  19.678  0.00  0.00    +0.000 NA
ATOM      6  C   UNL     1       4.721   4.375  19.301  0.00  0.00    +0.000 A 
ATOM      7  N   UNL     1       4.803   3.080  19.639  0.00  0.00    +0.000 NA
ATOM      8  O   UNL     1       3.584   2.840  20.271  0.00  0.00    +0.000 OA
BRANCH   4  10
ATOM      9  C   UNL     1       1.268   2.700  21.551  0.00  0.00    +0.000 C 
ATOM     10  C   UNL     1       1.549   4.017  20.849  0.00  0.00    +0.000 C 
ENDBRANCH   4  10
ENDBRANCH   3   6
ENDBRANCH   1   3
BRANCH   1  11
ATOM     11  C   UNL     1       7.608   4.553  17.015  0.00  0.00    +0.000 C 
BRANCH  11  12
ATOM     12  C   UNL     1       6.778   5.452  16.094  0.00  0.00    +0.000 C 
BRANCH  12  13
ATOM     13  N   UNL     1       6.769   4.963  14.731  0.00  0.00    +0.000 N 
ATOM     14  C   UNL     1       5.948   4.006  14.213  0.00  0.00    +0.000 A 
ATOM     15  C   UNL     1       6.336   3.833  12.901  0.00  0.00    +0.000 A 
ATOM     16  C   UNL     1       5.774   2.909  11.896  0.00  0.00    +0.000 C 
ATOM     17  C   UNL     1       7.409   4.741  12.738  0.00  0.00    +0.000 A 
ATOM     18  N   UNL     1       7.666   5.437  13.847  0.00  0.00    +0.000 NA
ENDBRANCH  12  13
ENDBRANCH  11  12
ENDBRANCH   1  11
TORSDOF 6
ENDMDL
MODEL 3
REMARK VINA RESULT:      -6.3      1.854      6.421
REMARK  Name = 
REMARK  8 active torsions:
REMARK  status: ('A' for Active; 'I' for Inactive)
REMARK    1  A    between atoms: C_1  and  C_2
REMARK    2  A    between atoms: C_2  and  C_3
REMARK    3  A    between atoms: C_5  and  C_6
REMARK    4  A    between atoms: C_6  and  N_7
REMARK    5  A    between atoms: N_7  and  C_8
REMARK    6  A    between atoms: C_8  and  C_9
REMARK    7  A    between atoms: C_9  and  N_10
REMARK    8  A    between atoms: C_12  and  C_13
REMARK                            x       y       z     vdW  Elec       q    Type
REMARK                         _______ _______ _______ _____ _____    ______ ____
ROOT
ATOM      1  N   UNL     1       6.313   4.032  18.108  0.00  0.00    +0.000 NA
ATOM      2  H   UNL     1       5.571   3.661  17.508  0.00  0.00    +0.000 HD
ENDROOT
BRANCH   1   3
ATOM      3  C   UNL     1       5.698   5.051  18.980  0.00  0.00    +0.000 C 
BRANCH   3   6
ATOM      4  C   UNL     1       2.281   4.387  19.548  0.00  0.00    +0.000 A 
ATOM      5  N   UNL     1       3.523   4.266  19.962  0.00  0.00    +0.000 NA
ATOM      6  C   UNL     1       4.213   4.907  18.961  0.00  0.00    +0.000 A 
ATOM      7  N   UNL     1       3.455   5.385  17.964  0.00  0.00    +0.000 NA
ATOM      8  O   UNL     1       2.162   5.044  18.358  0.00  0.00    +0.000 OA
BRANCH   4  10
ATOM      9  C   UNL     1       1.289   2.799  21.156  0.00  0.00    +0.000 C 
ATOM     10  C   UNL     1       1.028   3.943  20.192  0.00  0.00    +0.000 C 
ENDBRANCH   4  10
ENDBRANCH   3   6
ENDBRANCH   1   3
BRANCH   1  11
ATOM     11  C   UNL     1       7.379   4.603  17.274  0.00  0.00    +0.000 C 
BRANCH  11  12
ATOM     12  C   UNL     1       6.868   5.621  16.251  0.00  0.00    +0.000 C 
BRANCH  12  13
ATOM     13  N   UNL     1       6.827   5.066  14.914  0.00  0.00    +0.000 N 
ATOM     14  C   UNL     1       5.906   4.189  14.423  0.00  0.00    +0.000 A 
ATOM     15  C   UNL     1       6.297   3.902  13.131  0.00  0.00    +0.000 A 
ATOM     16  C   UNL     1       5.647   3.001  12.159  0.00  0.00    +0.000 C 
ATOM     17  C   UNL     1       7.474   4.665  12.952  0.00  0.00    +0.000 A 
ATOM     18  N   UNL     1       7.791   5.382  14.031  0.00  0.00    +0.000 NA
ENDBRANCH  12  13
ENDBRANCH  11  12
ENDBRANCH   1  11
TORSDOF 6
ENDMDL
MODEL 4
REMARK VINA RESULT:      -6.3      1.185      1.563
REMARK  Name = 
REMARK  8 active torsions:
REMARK  status: ('A' for Active; 'I' for Inactive)
REMARK    1  A    between atoms: C_1  and  C_2
REMARK    2  A    between atoms: C_2  and  C_3
REMARK    3  A    between atoms: C_5  and  C_6
REMARK    4  A    between atoms: C_6  and  N_7
REMARK    5  A    between atoms: N_7  and  C_8
REMARK    6  A    between atoms: C_8  and  C_9
REMARK    7  A    between atoms: C_9  and  N_10
REMARK    8  A    between atoms: C_12  and  C_13
REMARK                            x       y       z     vdW  Elec       q    Type
REMARK                         _______ _______ _______ _____ _____    ______ ____
ROOT
ATOM      1  N   UNL     1       5.334   5.779  17.626  0.00  0.00    +0.000 NA
ATOM      2  H   UNL     1       5.755   6.565  17.124  0.00  0.00    +0.000 HD
ENDROOT
BRANCH   1   3
ATOM      3  C   UNL     1       6.095   4.570  17.260  0.00  0.00    +0.000 C 
BRANCH   3   6
ATOM      4  C   UNL     1       6.814   4.367  13.813  0.00  0.00    +0.000 A 
ATOM      5  N   UNL     1       6.111   3.923  14.832  0.00  0.00    +0.000 NA
ATOM      6  C   UNL     1       6.600   4.692  15.862  0.00  0.00    +0.000 A 
ATOM      7  N   UNL     1       7.568   5.554  15.517  0.00  0.00    +0.000 NA
ATOM      8  O   UNL     1       7.708   5.341  14.146  0.00  0.00    +0.000 OA
BRANCH   4  10
ATOM      9  C   UNL     1       5.579   3.048  12.131  0.00  0.00    +0.000 C 
ATOM     10  C   UNL     1       6.750   3.980  12.389  0.00  0.00    +0.000 C 
ENDBRANCH   4  10
ENDBRANCH   3   6
ENDBRANCH   1   3
BRANCH   1  11
ATOM     11  C   UNL     1       3.917   5.663  17.252  0.00  0.00    +0.000 C 
BRANCH  11  12
ATOM     12  C   UNL     1       3.334   4.272  17.517  0.00  0.00    +0.000 C 
BRANCH  12  13
ATOM     13  N   UNL     1       2.888   4.128  18.886  0.00  0.00    +0.000 N 
ATOM     14  C   UNL     1       2.393   2.999  19.469  0.00  0.00    +0.000 A 
ATOM     15  C   UNL     1       2.053   3.348  20.759  0.00  0.00    +0.000 A 
ATOM     16  C   UNL     1       1.468   2.494  21.812  0.00  0.00    +0.000 C 
ATOM     17  C   UNL     1       2.384   4.720  20.843  0.00  0.00    +0.000 A 
ATOM     18  N   UNL     1       2.903   5.193  19.708  0.00  0.00    +0.000 NA
ENDBRANCH  12  13
ENDBRANCH  11  12
ENDBRANCH   1  11
TORSDOF 6
ENDMDL
MODEL 5
REMARK VINA RESULT:      -6.3      1.102      1.232
REMARK  Name = 
REMARK  8 active torsions:
REMARK  status: ('A' for Active; 'I' for Inactive)
REMARK    1  A    between atoms: C_1  and  C_2
REMARK    2  A    between atoms: C_2  and  C_3
REMARK    3  A    between atoms: C_5  and  C_6
REMARK    4  A    between atoms: C_6  and  N_7
REMARK    5  A    between atoms: N_7  and  C_8
REMARK    6  A    between atoms: C_8  and  C_9
REMARK    7  A    between atoms: C_9  and  N_10
REMARK    8  A    between atoms: C_12  and  C_13
REMARK                            x       y       z     vdW  Elec       q    Type
REMARK                         _______ _______ _______ _____ _____    ______ ____
ROOT
ATOM      1  N   UNL     1       5.693   4.037  17.364  0.00  0.00    +0.000 NA
ATOM      2  H   UNL     1       5.738   4.068  18.386  0.00  0.00    +0.000 HD
ENDROOT
BRANCH   1   3
ATOM      3  C   UNL     1       6.937   4.643  16.855  0.00  0.00    +0.000 C 
BRANCH   3   6
ATOM      4  C   UNL     1       6.585   3.955  13.413  0.00  0.00    +0.000 A 
ATOM      5  N   UNL     1       6.340   3.591  14.652  0.00  0.00    +0.000 NA
ATOM      6  C   UNL     1       6.950   4.597  15.363  0.00  0.00    +0.000 A 
ATOM      7  N   UNL     1       7.563   5.528  14.619  0.00  0.00    +0.000 NA
ATOM      8  O   UNL     1       7.314   5.103  13.313  0.00  0.00    +0.000 OA
BRANCH   4  10
ATOM      9  C   UNL     1       4.688   3.538  11.890  0.00  0.00    +0.000 C 
ATOM     10  C   UNL     1       6.169   3.319  12.147  0.00  0.00    +0.000 C 
ENDBRANCH   4  10
ENDBRANCH   3   6
ENDBRANCH   1   3
BRANCH   1  11
ATOM     11  C   UNL     1       4.504   4.769  16.905  0.00  0.00    +0.000 C 
BRANCH  11  12
ATOM     12  C   UNL     1       3.669   5.348  18.050  0.00  0.00    +0.000 C 
BRANCH  12  13
ATOM     13  N   UNL     1       2.960   4.315  18.775  0.00  0.00    +0.000 N 
ATOM     14  C   UNL     1       2.575   4.353  20.083  0.00  0.00    +0.000 A 
ATOM     15  C   UNL     1       1.983   3.136  20.347  0.00  0.00    +0.000 A 
ATOM     16  C   UNL     1       1.400   2.660  21.617  0.00  0.00    +0.000 C 
ATOM     17  C   UNL     1       2.073   2.437  19.120  0.00  0.00    +0.000 A 
ATOM     18  N   UNL     1       2.656   3.158  18.160  0.00  0.00    +0.000 NA
ENDBRANCH  12  13
ENDBRANCH  11  12
ENDBRANCH   1  11
TORSDOF 6
ENDMDL
MODEL 6
REMARK VINA RESULT:      -6.1      1.238      1.527
REMARK  Name = 
REMARK  8 active torsions:
REMARK  status: ('A' for Active; 'I' for Inactive)
REMARK    1  A    between atoms: C_1  and  C_2
REMARK    2  A    between atoms: C_2  and  C_3
REMARK    3  A    between atoms: C_5  and  C_6
REMARK    4  A    between atoms: C_6  and  N_7
REMARK    5  A    between atoms: N_7  and  C_8
REMARK    6  A    between atoms: C_8  and  C_9
REMARK    7  A    between atoms: C_9  and  N_10
REMARK    8  A    between atoms: C_12  and  C_13
REMARK                            x       y       z     vdW  Elec       q    Type
REMARK                         _______ _______ _______ _____ _____    ______ ____
ROOT
ATOM      1  N   UNL     1       7.545   4.997  17.038  0.00  0.00    +0.000 NA
ATOM      2  H   UNL     1       8.190   5.657  17.481  0.00  0.00    +0.000 HD
ENDROOT
BRANCH   1   3
ATOM      3  C   UNL     1       6.727   5.764  16.080  0.00  0.00    +0.000 C 
BRANCH   3   6
ATOM      4  C   UNL     1       6.364   3.894  13.112  0.00  0.00    +0.000 A 
ATOM      5  N   UNL     1       5.957   4.123  14.341  0.00  0.00    +0.000 NA
ATOM      6  C   UNL     1       6.802   5.134  14.730  0.00  0.00    +0.000 A 
ATOM      7  N   UNL     1       7.704   5.506  13.810  0.00  0.00    +0.000 NA
ATOM      8  O   UNL     1       7.408   4.682  12.725  0.00  0.00    +0.000 OA
BRANCH   4  10
ATOM      9  C   UNL     1       4.466   3.362  11.626  0.00  0.00    +0.000 C 
ATOM     10  C   UNL     1       5.842   2.941  12.110  0.00  0.00    +0.000 C 
ENDBRANCH   4  10
ENDBRANCH   3   6
ENDBRANCH   1   3
BRANCH   1  11
ATOM     11  C   UNL     1       6.717   4.356  18.069  0.00  0.00    +0.000 C 
BRANCH  11  12
ATOM     12  C   UNL     1       5.566   5.240  18.558  0.00  0.00    +0.000 C 
BRANCH  12  13
ATOM     13  N   UNL     1       4.524   4.463  19.195  0.00  0.00    +0.000 N 
ATOM     14  C   UNL     1       3.310   4.917  19.618  0.00  0.00    +0.000 A 
ATOM     15  C   UNL     1       2.679   3.841  20.207  0.00  0.00    +0.000 A 
ATOM     16  C   UNL     1       1.342   3.797  20.832  0.00  0.00    +0.000 C 
ATOM     17  C   UNL     1       3.613   2.786  20.085  0.00  0.00    +0.000 A 
ATOM     18  N   UNL     1       4.731   3.160  19.460  0.00  0.00    +0.000 NA
ENDBRANCH  12  13
ENDBRANCH  11  12
ENDBRANCH   1  11
TORSDOF 6
ENDMDL
MODEL 7
REMARK VINA RESULT:      -6.1      1.270      1.579
REMARK  Name = 
REMARK  8 active torsions:
REMARK  status: ('A' for Active; 'I' for Inactive)
REMARK    1  A    between atoms: C_1  and  C_2
REMARK    2  A    between atoms: C_2  and  C_3
REMARK    3  A    between atoms: C_5  and  C_6
REMARK    4  A    between atoms: C_6  and  N_7
REMARK    5  A    between atoms: N_7  and  C_8
REMARK    6  A    between atoms: C_8  and  C_9
REMARK    7  A    between atoms: C_9  and  N_10
REMARK    8  A    between atoms: C_12  and  C_13
REMARK                            x       y       z     vdW  Elec       q    Type
REMARK                         _______ _______ _______ _____ _____    ______ ____
ROOT
ATOM      1  N   UNL     1       6.404   3.972  17.290  0.00  0.00    +0.000 NA
ATOM      2  H   UNL     1       7.064   3.736  18.036  0.00  0.00    +0.000 HD
ENDROOT
BRANCH   1   3
ATOM      3  C   UNL     1       7.002   5.074  16.513  0.00  0.00    +0.000 C 
BRANCH   3   6
ATOM      4  C   UNL     1       6.329   3.900  13.256  0.00  0.00    +0.000 A 
ATOM      5  N   UNL     1       6.057   3.838  14.540  0.00  0.00    +0.000 NA
ATOM      6  C   UNL     1       6.935   4.762  15.055  0.00  0.00    +0.000 A 
ATOM      7  N   UNL     1       7.729   5.355  14.153  0.00  0.00    +0.000 NA
ATOM      8  O   UNL     1       7.321   4.784  12.948  0.00  0.00    +0.000 OA
BRANCH   4  10
ATOM      9  C   UNL     1       6.689   2.207  11.495  0.00  0.00    +0.000 C 
ATOM     10  C   UNL     1       5.707   3.178  12.127  0.00  0.00    +0.000 C 
ENDBRANCH   4  10
ENDBRANCH   3   6
ENDBRANCH   1   3
BRANCH   1  11
ATOM     11  C   UNL     1       5.116   4.361  17.880  0.00  0.00    +0.000 C 
BRANCH  11  12
ATOM     12  C   UNL     1       4.019   3.311  17.685  0.00  0.00    +0.000 C 
BRANCH  12  13
ATOM     13  N   UNL     1       3.021   3.376  18.732  0.00  0.00    +0.000 N 
ATOM     14  C   UNL     1       3.009   2.660  19.893  0.00  0.00    +0.000 A 
ATOM     15  C   UNL     1       1.848   3.010  20.550  0.00  0.00    +0.000 A 
ATOM     16  C   UNL     1       1.351   2.518  21.851  0.00  0.00    +0.000 C 
ATOM     17  C   UNL     1       1.233   3.946  19.687  0.00  0.00    +0.000 A 
ATOM     18  N   UNL     1       1.951   4.178  18.586  0.00  0.00    +0.000 NA
ENDBRANCH  12  13
ENDBRANCH  11  12
ENDBRANCH   1  11
TORSDOF 6
ENDMDL
MODEL 8
REMARK VINA RESULT:      -6.0      1.428      1.556
REMARK  Name = 
REMARK  8 active torsions:
REMARK  status: ('A' for Active; 'I' for Inactive)
REMARK    1  A    between atoms: C_1  and  C_2
REMARK    2  A    between atoms: C_2  and  C_3
REMARK    3  A    between atoms: C_5  and  C_6
REMARK    4  A    between atoms: C_6  and  N_7
REMARK    5  A    between atoms: N_7  and  C_8
REMARK    6  A    between atoms: C_8  and  C_9
REMARK    7  A    between atoms: C_9  and  N_10
REMARK    8  A    between atoms: C_12  and  C_13
REMARK                            x       y       z     vdW  Elec       q    Type
REMARK                         _______ _______ _______ _____ _____    ______ ____
ROOT
ATOM      1  N   UNL     1       4.571   5.225  17.077  0.00  0.00    +0.000 NA
ATOM      2  H   UNL     1       4.080   4.424  17.481  0.00  0.00    +0.000 HD
ENDROOT
BRANCH   1   3
ATOM      3  C   UNL     1       6.010   4.899  17.076  0.00  0.00    +0.000 C 
BRANCH   3   6
ATOM      4  C   UNL     1       6.737   4.298  13.677  0.00  0.00    +0.000 A 
ATOM      5  N   UNL     1       6.028   3.979  14.738  0.00  0.00    +0.000 NA
ATOM      6  C   UNL     1       6.520   4.857  15.675  0.00  0.00    +0.000 A 
ATOM      7  N   UNL     1       7.495   5.666  15.238  0.00  0.00    +0.000 NA
ATOM      8  O   UNL     1       7.637   5.298  13.900  0.00  0.00    +0.000 OA
BRANCH   4  10
ATOM      9  C   UNL     1       5.287   3.215  11.998  0.00  0.00    +0.000 C 
ATOM     10  C   UNL     1       6.674   3.751  12.306  0.00  0.00    +0.000 C 
ENDBRANCH   4  10
ENDBRANCH   3   6
ENDBRANCH   1   3
BRANCH   1  11
ATOM     11  C   UNL     1       4.287   6.426  17.874  0.00  0.00    +0.000 C 
BRANCH  11  12
ATOM     12  C   UNL     1       3.575   6.122  19.195  0.00  0.00    +0.000 C 
BRANCH  12  13
ATOM     13  N   UNL     1       3.038   4.778  19.219  0.00  0.00    +0.000 N 
ATOM     14  C   UNL     1       1.778   4.397  18.861  0.00  0.00    +0.000 A 
ATOM     15  C   UNL     1       1.704   3.040  19.096  0.00  0.00    +0.000 A 
ATOM     16  C   UNL     1       0.555   2.138  18.882  0.00  0.00    +0.000 C 
ATOM     17  C   UNL     1       2.982   2.709  19.602  0.00  0.00    +0.000 A 
ATOM     18  N   UNL     1       3.798   3.763  19.667  0.00  0.00    +0.000 NA
ENDBRANCH  12  13
ENDBRANCH  11  12
ENDBRANCH   1  11
TORSDOF 6
ENDMDL
MODEL 9
REMARK VINA RESULT:      -6.0      1.583      1.834
REMARK  Name = 
REMARK  8 active torsions:
REMARK  status: ('A' for Active; 'I' for Inactive)
REMARK    1  A    between atoms: C_1  and  C_2
REMARK    2  A    between atoms: C_2  and  C_3
REMARK    3  A    between atoms: C_5  and  C_6
REMARK    4  A    between atoms: C_6  and  N_7
REMARK    5  A    between atoms: N_7  and  C_8
REMARK    6  A    between atoms: C_8  and  C_9
REMARK    7  A    between atoms: C_9  and  N_10
REMARK    8  A    between atoms: C_12  and  C_13
REMARK                            x       y       z     vdW  Elec       q    Type
REMARK                         _______ _______ _______ _____ _____    ______ ____
ROOT
ATOM      1  N   UNL     1       4.523   6.009  17.899  0.00  0.00    +0.000 NA
ATOM      2  H   UNL     1       4.170   5.211  17.363  0.00  0.00    +0.000 HD
ENDROOT
BRANCH   1   3
ATOM      3  C   UNL     1       5.312   6.841  16.971  0.00  0.00    +0.000 C 
BRANCH   3   6
ATOM      4  C   UNL     1       6.480   4.695  14.428  0.00  0.00    +0.000 A 
ATOM      5  N   UNL     1       5.460   5.310  14.985  0.00  0.00    +0.000 NA
ATOM      6  C   UNL     1       6.069   5.970  16.026  0.00  0.00    +0.000 A 
ATOM      7  N   UNL     1       7.390   5.767  16.133  0.00  0.00    +0.000 NA
ATOM      8  O   UNL     1       7.668   4.919  15.061  0.00  0.00    +0.000 OA
BRANCH   4  10
ATOM      9  C   UNL     1       5.122   3.620  12.669  0.00  0.00    +0.000 C 
ATOM     10  C   UNL     1       6.518   3.836  13.226  0.00  0.00    +0.000 C 
ENDBRANCH   4  10
ENDBRANCH   3   6
ENDBRANCH   1   3
BRANCH   1  11
ATOM     11  C   UNL     1       5.340   5.523  19.020  0.00  0.00    +0.000 C 
BRANCH  11  12
ATOM     12  C   UNL     1       5.260   4.006  19.215  0.00  0.00    +0.000 C 
BRANCH  12  13
ATOM     13  N   UNL     1       3.996   3.471  18.753  0.00  0.00    +0.000 N 
ATOM     14  C   UNL     1       2.874   3.267  19.502  0.00  0.00    +0.000 A 
ATOM     15  C   UNL     1       1.945   2.697  18.657  0.00  0.00    +0.000 A 
ATOM     16  C   UNL     1       0.565   2.274  18.969  0.00  0.00    +0.000 C 
ATOM     17  C   UNL     1       2.621   2.600  17.418  0.00  0.00    +0.000 A 
ATOM     18  N   UNL     1       3.864   3.081  17.473  0.00  0.00    +0.000 NA
ENDBRANCH  12  13
ENDBRANCH  11  12
ENDBRANCH   1  11
TORSDOF 6
ENDMDL
