MODEL 1
REMARK VINA RESULT:      -7.8      0.000      0.000
REMARK  Name = 
REMARK  8 active torsions:
REMARK  status: ('A' for Active; 'I' for Inactive)
REMARK    1  A    between atoms: C_1  and  C_2
REMARK    2  A    between atoms: C_2  and  O_3
REMARK    3  A    between atoms: O_3  and  C_4
REMARK    4  A    between atoms: C_4  and  C_6
REMARK    5  A    between atoms: C_7  and  C_8
REMARK    6  A    between atoms: C_13  and  C_14
REMARK    7  A    between atoms: C_17  and  O_18
REMARK    8  A    between atoms: C_19  and  O_20
REMARK                            x       y       z     vdW  Elec       q    Type
REMARK                         _______ _______ _______ _____ _____    ______ ____
ROOT
ATOM      1  C   UNL     1       3.146   4.234  19.243  0.00  0.00    +0.000 C 
ATOM      2  C   UNL     1       2.474   3.334  19.995  0.00  0.00    +0.000 C 
ATOM      3  C   UNL     1       0.987   3.197  20.194  0.00  0.00    +0.000 C 
ATOM      4  N   UNL     1       3.204   2.412  20.718  0.00  0.00    +0.000 N 
ATOM      5  C   UNL     1       4.547   2.227  20.650  0.00  0.00    +0.000 C 
ATOM      6  O   UNL     1       5.118   1.355  21.293  0.00  0.00    +0.000 OA
ATOM      7  N   UNL     1       5.211   3.031  19.790  0.00  0.00    +0.000 N 
ATOM      8  C   UNL     1       4.662   4.254  19.237  0.00  0.00    +0.000 C 
ATOM      9  H   UNL     1       2.723   1.751  21.322  0.00  0.00    +0.000 HD
ATOM     10  H   UNL     1       6.217   2.907  19.790  0.00  0.00    +0.000 HD
ENDROOT
BRANCH   8  11
ATOM     11  C   UNL     1       5.318   4.498  17.884  0.00  0.00    +0.000 A 
ATOM     12  C   UNL     1       4.937   3.772  16.740  0.00  0.00    +0.000 A 
ATOM     13  C   UNL     1       5.487   4.070  15.488  0.00  0.00    +0.000 A 
ATOM     14  C   UNL     1       6.417   5.097  15.380  0.00  0.00    +0.000 A 
ATOM     15  C   UNL     1       6.820   5.801  16.510  0.00  0.00    +0.000 A 
ATOM     16  C   UNL     1       6.295   5.503  17.758  0.00  0.00    +0.000 A 
BRANCH  14  17
ATOM     17  O   UNL     1       6.954   5.466  14.179  0.00  0.00    +0.000 OA
ATOM     18  H   UNL     1       6.286   5.984  13.697  0.00  0.00    +0.000 HD
ENDBRANCH  14  17
BRANCH  15  19
ATOM     19  O   UNL     1       7.718   6.822  16.397  0.00  0.00    +0.000 OA
ATOM     20  H   UNL     1       8.559   6.445  16.725  0.00  0.00    +0.000 HD
ENDBRANCH  15  19
ENDBRANCH   8  11
BRANCH   1  21
ATOM     21  C   UNL     1       2.419   5.266  18.450  0.00  0.00    +0.000 C 
ATOM     22  O   UNL     1       1.681   5.023  17.509  0.00  0.00    +0.000 OA
BRANCH  21  23
ATOM     23  O   UNL     1       2.696   6.514  18.902  0.00  0.00    +0.000 OA
BRANCH  23  25
ATOM     24  C   UNL     1       2.105   8.673  17.878  0.00  0.00    +0.000 C 
ATOM     25  C   UNL     1       3.054   7.483  17.901  0.00  0.00    +0.000 C 
ENDBRANCH  23  25
ENDBRANCH  21  23
ENDBRANCH   1  21
TORSDOF 6
ENDMDL
MODEL 2
REMARK VINA RESULT:      -7.7      2.569      4.921
REMARK  Name = 
REMARK  8 active torsions:
REMARK  status: ('A' for Active; 'I' for Inactive)
REMARK    1  A    between atoms: C_1  and  C_2
REMARK    2  A    between atoms: C_2  and  O_3
REMARK    3  A    between atoms: O_3  and  C_4
REMARK    4  A    between atoms: C_4  and  C_6
REMARK    5  A    between atoms: C_7  and  C_8
REMARK    6  A    between atoms: C_13  and  C_14
REMARK    7  A    between atoms: C_17  and  O_18
REMARK    8  A    between atoms: C_19  and  O_20
REMARK                            x       y       z     vdW  Elec       q    Type
REMARK                         _______ _______ _______ _____ _____    ______ ____
ROOT
ATOM      1  C   UNL     1       3.071   4.309  18.794  0.00  0.00    +0.000 C 
ATOM      2  C   UNL     1       3.945   3.358  18.395  0.00  0.00    +0.000 C 
ATOM      3  C   UNL     1       3.659   2.043  17.717  0.00  0.00    +0.000 C 
ATOM      4  N   UNL     1       5.288   3.558  18.644  0.00  0.00    +0.000 N 
ATOM      5  C   UNL     1       5.847   4.691  19.139  0.00  0.00    +0.000 C 
ATOM      6  O   UNL     1       7.057   4.809  19.291  0.00  0.00    +0.000 OA
ATOM      7  N   UNL     1       4.992   5.703  19.408  0.00  0.00    +0.000 N 
ATOM      8  C   UNL     1       3.557   5.538  19.537  0.00  0.00    +0.000 C 
ATOM      9  H   UNL     1       5.960   2.840  18.389  0.00  0.00    +0.000 HD
ATOM     10  H   UNL     1       5.425   6.521  19.819  0.00  0.00    +0.000 HD
ENDROOT
BRANCH   8  11
ATOM     11  C   UNL     1       2.892   6.854  19.152  0.00  0.00    +0.000 A 
ATOM     12  C   UNL     1       3.073   7.424  17.877  0.00  0.00    +0.000 A 
ATOM     13  C   UNL     1       2.386   8.585  17.509  0.00  0.00    +0.000 A 
ATOM     14  C   UNL     1       1.514   9.176  18.416  0.00  0.00    +0.000 A 
ATOM     15  C   UNL     1       1.351   8.636  19.687  0.00  0.00    +0.000 A 
ATOM     16  C   UNL     1       2.041   7.496  20.069  0.00  0.00    +0.000 A 
BRANCH  14  17
ATOM     17  O   UNL     1       0.780  10.284  18.100  0.00  0.00    +0.000 OA
ATOM     18  H   UNL     1       0.737  10.351  17.130  0.00  0.00    +0.000 HD
ENDBRANCH  14  17
BRANCH  15  19
ATOM     19  O   UNL     1       0.480   9.208  20.568  0.00  0.00    +0.000 OA
ATOM     20  H   UNL     1       0.065   8.452  21.029  0.00  0.00    +0.000 HD
ENDBRANCH  15  19
ENDBRANCH   8  11
BRANCH   1  21
ATOM     21  C   UNL     1       1.606   4.148  18.570  0.00  0.00    +0.000 C 
ATOM     22  O   UNL     1       1.068   4.158  17.474  0.00  0.00    +0.000 OA
BRANCH  21  23
ATOM     23  O   UNL     1       0.945   4.002  19.745  0.00  0.00    +0.000 OA
BRANCH  23  25
ATOM     24  C   UNL     1       1.713   2.745  21.716  0.00  0.00    +0.000 C 
ATOM     25  C   UNL     1       1.027   2.704  20.359  0.00  0.00    +0.000 C 
ENDBRANCH  23  25
ENDBRANCH  21  23
ENDBRANCH   1  21
TORSDOF 6
ENDMDL
MODEL 3
REMARK VINA RESULT:      -7.6      0.630      1.442
REMARK  Name = 
REMARK  8 active torsions:
REMARK  status: ('A' for Active; 'I' for Inactive)
REMARK    1  A    between atoms: C_1  and  C_2
REMARK    2  A    between atoms: C_2  and  O_3
REMARK    3  A    between atoms: O_3  and  C_4
REMARK    4  A    between atoms: C_4  and  C_6
REMARK    5  A    between atoms: C_7  and  C_8
REMARK    6  A    between atoms: C_13  and  C_14
REMARK    7  A    between atoms: C_17  and  O_18
REMARK    8  A    between atoms: C_19  and  O_20
REMARK                            x       y       z     vdW  Elec       q    Type
REMARK                         _______ _______ _______ _____ _____    ______ ____
ROOT
ATOM      1  C   UNL     1       3.189   4.368  19.163  0.00  0.00    +0.000 C 
ATOM      2  C   UNL     1       2.503   3.405  19.818  0.00  0.00    +0.000 C 
ATOM      3  C   UNL     1       1.012   3.218  19.923  0.00  0.00    +0.000 C 
ATOM      4  N   UNL     1       3.219   2.457  20.522  0.00  0.00    +0.000 N 
ATOM      5  C   UNL     1       4.568   2.311  20.518  0.00  0.00    +0.000 C 
ATOM      6  O   UNL     1       5.129   1.415  21.137  0.00  0.00    +0.000 OA
ATOM      7  N   UNL     1       5.255   3.185  19.750  0.00  0.00    +0.000 N 
ATOM      8  C   UNL     1       4.702   4.428  19.244  0.00  0.00    +0.000 C 
ATOM      9  H   UNL     1       2.725   1.747  21.055  0.00  0.00    +0.000 HD
ATOM     10  H   UNL     1       6.262   3.087  19.798  0.00  0.00    +0.000 HD
ENDROOT
BRANCH   8  11
ATOM     11  C   UNL     1       5.424   4.775  17.949  0.00  0.00    +0.000 A 
ATOM     12  C   UNL     1       6.221   5.931  17.839  0.00  0.00    +0.000 A 
ATOM     13  C   UNL     1       6.948   6.189  16.672  0.00  0.00    +0.000 A 
ATOM     14  C   UNL     1       6.881   5.289  15.615  0.00  0.00    +0.000 A 
ATOM     15  C   UNL     1       6.074   4.159  15.704  0.00  0.00    +0.000 A 
ATOM     16  C   UNL     1       5.335   3.903  16.849  0.00  0.00    +0.000 A 
BRANCH  14  17
ATOM     17  O   UNL     1       7.603   5.461  14.468  0.00  0.00    +0.000 OA
ATOM     18  H   UNL     1       8.334   4.820  14.473  0.00  0.00    +0.000 HD
ENDBRANCH  14  17
BRANCH  15  19
ATOM     19  O   UNL     1       6.025   3.268  14.672  0.00  0.00    +0.000 OA
ATOM     20  H   UNL     1       5.078   3.041  14.589  0.00  0.00    +0.000 HD
ENDBRANCH  15  19
ENDBRANCH   8  11
BRANCH   1  21
ATOM     21  C   UNL     1       2.477   5.431  18.397  0.00  0.00    +0.000 C 
ATOM     22  O   UNL     1       1.751   5.224  17.437  0.00  0.00    +0.000 OA
BRANCH  21  23
ATOM     23  O   UNL     1       2.752   6.661  18.896  0.00  0.00    +0.000 OA
BRANCH  23  25
ATOM     24  C   UNL     1       1.863   8.731  17.905  0.00  0.00    +0.000 C 
ATOM     25  C   UNL     1       2.981   7.699  17.927  0.00  0.00    +0.000 C 
ENDBRANCH  23  25
ENDBRANCH  21  23
ENDBRANCH   1  21
TORSDOF 6
ENDMDL
MODEL 4
REMARK VINA RESULT:      -7.4      2.413      5.268
REMARK  Name = 
REMARK  8 active torsions:
REMARK  status: ('A' for Active; 'I' for Inactive)
REMARK    1  A    between atoms: C_1  and  C_2
REMARK    2  A    between atoms: C_2  and  O_3
REMARK    3  A    between atoms: O_3  and  C_4
REMARK    4  A    between atoms: C_4  and  C_6
REMARK    5  A    between atoms: C_7  and  C_8
REMARK    6  A    between atoms: C_13  and  C_14
REMARK    7  A    between atoms: C_17  and  O_18
REMARK    8  A    between atoms: C_19  and  O_20
REMARK                            x       y       z     vdW  Elec       q    Type
REMARK                         _______ _______ _______ _____ _____    ______ ____
ROOT
ATOM      1  C   UNL     1       6.287   6.149  17.570  0.00  0.00    +0.000 C 
ATOM      2  C   UNL     1       7.303   6.934  17.995  0.00  0.00    +0.000 C 
ATOM      3  C   UNL     1       7.775   8.249  17.430  0.00  0.00    +0.000 C 
ATOM      4  N   UNL     1       8.055   6.505  19.069  0.00  0.00    +0.000 N 
ATOM      5  C   UNL     1       7.796   5.419  19.841  0.00  0.00    +0.000 C 
ATOM      6  O   UNL     1       8.489   5.126  20.808  0.00  0.00    +0.000 OA
ATOM      7  N   UNL     1       6.697   4.707  19.509  0.00  0.00    +0.000 N 
ATOM      8  C   UNL     1       6.019   4.812  18.231  0.00  0.00    +0.000 C 
ATOM      9  H   UNL     1       8.848   7.057  19.382  0.00  0.00    +0.000 HD
ATOM     10  H   UNL     1       6.549   3.875  20.069  0.00  0.00    +0.000 HD
ENDROOT
BRANCH   8  11
ATOM     11  C   UNL     1       4.553   4.456  18.441  0.00  0.00    +0.000 A 
ATOM     12  C   UNL     1       3.908   3.492  17.643  0.00  0.00    +0.000 A 
ATOM     13  C   UNL     1       2.588   3.113  17.906  0.00  0.00    +0.000 A 
ATOM     14  C   UNL     1       1.912   3.697  18.971  0.00  0.00    +0.000 A 
ATOM     15  C   UNL     1       2.531   4.670  19.747  0.00  0.00    +0.000 A 
ATOM     16  C   UNL     1       3.833   5.066  19.484  0.00  0.00    +0.000 A 
BRANCH  14  17
ATOM     17  O   UNL     1       0.637   3.335  19.307  0.00  0.00    +0.000 OA
ATOM     18  H   UNL     1       0.024   3.820  18.729  0.00  0.00    +0.000 HD
ENDBRANCH  14  17
BRANCH  15  19
ATOM     19  O   UNL     1       1.871   5.227  20.804  0.00  0.00    +0.000 OA
ATOM     20  H   UNL     1       2.250   4.786  21.590  0.00  0.00    +0.000 HD
ENDBRANCH  15  19
ENDBRANCH   8  11
BRANCH   1  21
ATOM     21  C   UNL     1       5.446   6.547  16.405  0.00  0.00    +0.000 C 
ATOM     22  O   UNL     1       4.400   7.171  16.488  0.00  0.00    +0.000 OA
BRANCH  21  23
ATOM     23  O   UNL     1       5.986   6.113  15.240  0.00  0.00    +0.000 OA
BRANCH  23  25
ATOM     24  C   UNL     1       6.370   3.910  14.211  0.00  0.00    +0.000 C 
ATOM     25  C   UNL     1       5.360   4.964  14.643  0.00  0.00    +0.000 C 
ENDBRANCH  23  25
ENDBRANCH  21  23
ENDBRANCH   1  21
TORSDOF 6
ENDMDL
MODEL 5
REMARK VINA RESULT:      -7.4      1.926      3.591
REMARK  Name = 
REMARK  8 active torsions:
REMARK  status: ('A' for Active; 'I' for Inactive)
REMARK    1  A    between atoms: C_1  and  C_2
REMARK    2  A    between atoms: C_2  and  O_3
REMARK    3  A    between atoms: O_3  and  C_4
REMARK    4  A    between atoms: C_4  and  C_6
REMARK    5  A    between atoms: C_7  and  C_8
REMARK    6  A    between atoms: C_13  and  C_14
REMARK    7  A    between atoms: C_17  and  O_18
REMARK    8  A    between atoms: C_19  and  O_20
REMARK                            x       y       z     vdW  Elec       q    Type
REMARK                         _______ _______ _______ _____ _____    ______ ____
ROOT
ATOM      1  C   UNL     1       3.255   4.422  19.197  0.00  0.00    +0.000 C 
ATOM      2  C   UNL     1       2.721   4.902  20.342  0.00  0.00    +0.000 C 
ATOM      3  C   UNL     1       2.552   4.203  21.666  0.00  0.00    +0.000 C 
ATOM      4  N   UNL     1       2.225   6.190  20.342  0.00  0.00    +0.000 N 
ATOM      5  C   UNL     1       2.338   7.088  19.331  0.00  0.00    +0.000 C 
ATOM      6  O   UNL     1       1.908   8.232  19.424  0.00  0.00    +0.000 OA
ATOM      7  N   UNL     1       2.999   6.662  18.232  0.00  0.00    +0.000 N 
ATOM      8  C   UNL     1       3.263   5.266  17.937  0.00  0.00    +0.000 C 
ATOM      9  H   UNL     1       1.782   6.559  21.179  0.00  0.00    +0.000 HD
ATOM     10  H   UNL     1       3.031   7.332  17.474  0.00  0.00    +0.000 HD
ENDROOT
BRANCH   8  11
ATOM     11  C   UNL     1       4.529   5.191  17.094  0.00  0.00    +0.000 A 
ATOM     12  C   UNL     1       4.650   4.279  16.028  0.00  0.00    +0.000 A 
ATOM     13  C   UNL     1       5.784   4.285  15.208  0.00  0.00    +0.000 A 
ATOM     14  C   UNL     1       6.797   5.204  15.453  0.00  0.00    +0.000 A 
ATOM     15  C   UNL     1       6.698   6.090  16.521  0.00  0.00    +0.000 A 
ATOM     16  C   UNL     1       5.588   6.081  17.351  0.00  0.00    +0.000 A 
BRANCH  14  17
ATOM     17  O   UNL     1       7.906   5.290  14.660  0.00  0.00    +0.000 OA
ATOM     18  H   UNL     1       7.966   4.473  14.135  0.00  0.00    +0.000 HD
ENDBRANCH  14  17
BRANCH  15  19
ATOM     19  O   UNL     1       7.686   7.004  16.747  0.00  0.00    +0.000 OA
ATOM     20  H   UNL     1       7.800   7.458  15.889  0.00  0.00    +0.000 HD
ENDBRANCH  15  19
ENDBRANCH   8  11
BRANCH   1  21
ATOM     21  C   UNL     1       3.794   3.034  19.124  0.00  0.00    +0.000 C 
ATOM     22  O   UNL     1       4.834   2.666  19.649  0.00  0.00    +0.000 OA
BRANCH  21  23
ATOM     23  O   UNL     1       2.986   2.233  18.386  0.00  0.00    +0.000 OA
BRANCH  23  25
ATOM     24  C   UNL     1       0.556   2.395  18.739  0.00  0.00    +0.000 C 
ATOM     25  C   UNL     1       1.853   1.674  19.073  0.00  0.00    +0.000 C 
ENDBRANCH  23  25
ENDBRANCH  21  23
ENDBRANCH   1  21
TORSDOF 6
ENDMDL
MODEL 6
REMARK VINA RESULT:      -7.4      2.608      5.063
REMARK  Name = 
REMARK  8 active torsions:
REMARK  status: ('A' for Active; 'I' for Inactive)
REMARK    1  A    between atoms: C_1  and  C_2
REMARK    2  A    between atoms: C_2  and  O_3
REMARK    3  A    between atoms: O_3  and  C_4
REMARK    4  A    between atoms: C_4  and  C_6
REMARK    5  A    between atoms: C_7  and  C_8
REMARK    6  A    between atoms: C_13  and  C_14
REMARK    7  A    between atoms: C_17  and  O_18
REMARK    8  A    between atoms: C_19  and  O_20
REMARK                            x       y       z     vdW  Elec       q    Type
REMARK                         _______ _______ _______ _____ _____    ______ ____
ROOT
ATOM      1  C   UNL     1       2.930   4.368  18.753  0.00  0.00    +0.000 C 
ATOM      2  C   UNL     1       3.888   3.601  18.186  0.00  0.00    +0.000 C 
ATOM      3  C   UNL     1       3.725   2.421  17.263  0.00  0.00    +0.000 C 
ATOM      4  N   UNL     1       5.207   3.878  18.483  0.00  0.00    +0.000 N 
ATOM      5  C   UNL     1       5.658   4.943  19.193  0.00  0.00    +0.000 C 
ATOM      6  O   UNL     1       6.852   5.145  19.378  0.00  0.00    +0.000 OA
ATOM      7  N   UNL     1       4.712   5.796  19.645  0.00  0.00    +0.000 N 
ATOM      8  C   UNL     1       3.300   5.470  19.725  0.00  0.00    +0.000 C 
ATOM      9  H   UNL     1       5.943   3.291  18.101  0.00  0.00    +0.000 HD
ATOM     10  H   UNL     1       5.067   6.556  20.212  0.00  0.00    +0.000 HD
ENDROOT
BRANCH   8  11
ATOM     11  C   UNL     1       2.508   6.765  19.596  0.00  0.00    +0.000 A 
ATOM     12  C   UNL     1       1.722   7.255  20.656  0.00  0.00    +0.000 A 
ATOM     13  C   UNL     1       1.072   8.490  20.553  0.00  0.00    +0.000 A 
ATOM     14  C   UNL     1       1.210   9.236  19.388  0.00  0.00    +0.000 A 
ATOM     15  C   UNL     1       1.962   8.747  18.325  0.00  0.00    +0.000 A 
ATOM     16  C   UNL     1       2.595   7.517  18.410  0.00  0.00    +0.000 A 
BRANCH  14  17
ATOM     17  O   UNL     1       0.639  10.469  19.245  0.00  0.00    +0.000 OA
ATOM     18  H   UNL     1       1.173  10.977  18.610  0.00  0.00    +0.000 HD
ENDBRANCH  14  17
BRANCH  15  19
ATOM     19  O   UNL     1       2.111   9.491  17.191  0.00  0.00    +0.000 OA
ATOM     20  H   UNL     1       2.251  10.403  17.514  0.00  0.00    +0.000 HD
ENDBRANCH  15  19
ENDBRANCH   8  11
BRANCH   1  21
ATOM     21  C   UNL     1       1.485   4.111  18.488  0.00  0.00    +0.000 C 
ATOM     22  O   UNL     1       0.964   4.165  17.384  0.00  0.00    +0.000 OA
BRANCH  21  23
ATOM     23  O   UNL     1       0.820   3.825  19.634  0.00  0.00    +0.000 OA
BRANCH  23  25
ATOM     24  C   UNL     1       1.604   2.631  21.638  0.00  0.00    +0.000 C 
ATOM     25  C   UNL     1       1.085   2.534  20.211  0.00  0.00    +0.000 C 
ENDBRANCH  23  25
ENDBRANCH  21  23
ENDBRANCH   1  21
TORSDOF 6
ENDMDL
MODEL 7
REMARK VINA RESULT:      -7.3      2.400      5.320
REMARK  Name = 
REMARK  8 active torsions:
REMARK  status: ('A' for Active; 'I' for Inactive)
REMARK    1  A    between atoms: C_1  and  C_2
REMARK    2  A    between atoms: C_2  and  O_3
REMARK    3  A    between atoms: O_3  and  C_4
REMARK    4  A    between atoms: C_4  and  C_6
REMARK    5  A    between atoms: C_7  and  C_8
REMARK    6  A    between atoms: C_13  and  C_14
REMARK    7  A    between atoms: C_17  and  O_18
REMARK    8  A    between atoms: C_19  and  O_20
REMARK                            x       y       z     vdW  Elec       q    Type
REMARK                         _______ _______ _______ _____ _____    ______ ____
ROOT
ATOM      1  C   UNL     1       6.273   6.175  17.632  0.00  0.00    +0.000 C 
ATOM      2  C   UNL     1       7.302   6.974  17.993  0.00  0.00    +0.000 C 
ATOM      3  C   UNL     1       7.689   8.320  17.436  0.00  0.00    +0.000 C 
ATOM      4  N   UNL     1       8.156   6.532  18.983  0.00  0.00    +0.000 N 
ATOM      5  C   UNL     1       7.994   5.415  19.737  0.00  0.00    +0.000 C 
ATOM      6  O   UNL     1       8.776   5.111  20.629  0.00  0.00    +0.000 OA
ATOM      7  N   UNL     1       6.888   4.683  19.477  0.00  0.00    +0.000 N 
ATOM      8  C   UNL     1       6.098   4.810  18.267  0.00  0.00    +0.000 C 
ATOM      9  H   UNL     1       8.959   7.097  19.244  0.00  0.00    +0.000 HD
ATOM     10  H   UNL     1       6.811   3.830  20.019  0.00  0.00    +0.000 HD
ENDROOT
BRANCH   8  11
ATOM     11  C   UNL     1       4.666   4.406  18.591  0.00  0.00    +0.000 A 
ATOM     12  C   UNL     1       3.891   5.127  19.521  0.00  0.00    +0.000 A 
ATOM     13  C   UNL     1       2.550   4.797  19.741  0.00  0.00    +0.000 A 
ATOM     14  C   UNL     1       1.981   3.747  19.030  0.00  0.00    +0.000 A 
ATOM     15  C   UNL     1       2.746   3.012  18.131  0.00  0.00    +0.000 A 
ATOM     16  C   UNL     1       4.081   3.319  17.918  0.00  0.00    +0.000 A 
BRANCH  14  17
ATOM     17  O   UNL     1       0.665   3.406  19.167  0.00  0.00    +0.000 OA
ATOM     18  H   UNL     1       0.132   4.068  18.693  0.00  0.00    +0.000 HD
ENDBRANCH  14  17
BRANCH  15  19
ATOM     19  O   UNL     1       2.180   1.994  17.420  0.00  0.00    +0.000 OA
ATOM     20  H   UNL     1       2.925   1.591  16.933  0.00  0.00    +0.000 HD
ENDBRANCH  15  19
ENDBRANCH   8  11
BRANCH   1  21
ATOM     21  C   UNL     1       5.323   6.586  16.559  0.00  0.00    +0.000 C 
ATOM     22  O   UNL     1       4.265   7.164  16.755  0.00  0.00    +0.000 OA
BRANCH  21  23
ATOM     23  O   UNL     1       5.779   6.222  15.335  0.00  0.00    +0.000 OA
BRANCH  23  25
ATOM     24  C   UNL     1       6.418   3.989  14.520  0.00  0.00    +0.000 C 
ATOM     25  C   UNL     1       5.293   4.966  14.828  0.00  0.00    +0.000 C 
ENDBRANCH  23  25
ENDBRANCH  21  23
ENDBRANCH   1  21
TORSDOF 6
ENDMDL
MODEL 8
REMARK VINA RESULT:      -7.1      2.146      5.138
REMARK  Name = 
REMARK  8 active torsions:
REMARK  status: ('A' for Active; 'I' for Inactive)
REMARK    1  A    between atoms: C_1  and  C_2
REMARK    2  A    between atoms: C_2  and  O_3
REMARK    3  A    between atoms: O_3  and  C_4
REMARK    4  A    between atoms: C_4  and  C_6
REMARK    5  A    between atoms: C_7  and  C_8
REMARK    6  A    between atoms: C_13  and  C_14
REMARK    7  A    between atoms: C_17  and  O_18
REMARK    8  A    between atoms: C_19  and  O_20
REMARK                            x       y       z     vdW  Elec       q    Type
REMARK                         _______ _______ _______ _____ _____    ______ ____
ROOT
ATOM      1  C   UNL     1       5.233   5.526  17.604  0.00  0.00    +0.000 C 
ATOM      2  C   UNL     1       6.124   4.580  17.977  0.00  0.00    +0.000 C 
ATOM      3  C   UNL     1       7.601   4.511  17.683  0.00  0.00    +0.000 C 
ATOM      4  N   UNL     1       5.665   3.500  18.702  0.00  0.00    +0.000 N 
ATOM      5  C   UNL     1       4.413   3.349  19.203  0.00  0.00    +0.000 C 
ATOM      6  O   UNL     1       4.092   2.378  19.877  0.00  0.00    +0.000 OA
ATOM      7  N   UNL     1       3.551   4.361  18.955  0.00  0.00    +0.000 N 
ATOM      8  C   UNL     1       3.762   5.372  17.936  0.00  0.00    +0.000 C 
ATOM      9  H   UNL     1       6.308   2.757  18.960  0.00  0.00    +0.000 HD
ATOM     10  H   UNL     1       2.611   4.206  19.297  0.00  0.00    +0.000 HD
ENDROOT
BRANCH   8  11
ATOM     11  C   UNL     1       3.043   6.641  18.373  0.00  0.00    +0.000 A 
ATOM     12  C   UNL     1       2.717   7.657  17.453  0.00  0.00    +0.000 A 
ATOM     13  C   UNL     1       1.978   8.775  17.853  0.00  0.00    +0.000 A 
ATOM     14  C   UNL     1       1.562   8.877  19.175  0.00  0.00    +0.000 A 
ATOM     15  C   UNL     1       1.903   7.893  20.097  0.00  0.00    +0.000 A 
ATOM     16  C   UNL     1       2.650   6.790  19.715  0.00  0.00    +0.000 A 
BRANCH  14  17
ATOM     17  O   UNL     1       0.799   9.921  19.617  0.00  0.00    +0.000 OA
ATOM     18  H   UNL     1       1.021  10.704  19.084  0.00  0.00    +0.000 HD
ENDBRANCH  14  17
BRANCH  15  19
ATOM     19  O   UNL     1       1.476   7.988  21.390  0.00  0.00    +0.000 OA
ATOM     20  H   UNL     1       1.561   8.937  21.608  0.00  0.00    +0.000 HD
ENDBRANCH  15  19
ENDBRANCH   8  11
BRANCH   1  21
ATOM     21  C   UNL     1       5.660   6.710  16.805  0.00  0.00    +0.000 C 
ATOM     22  O   UNL     1       5.493   6.830  15.601  0.00  0.00    +0.000 OA
BRANCH  21  23
ATOM     23  O   UNL     1       6.272   7.633  17.587  0.00  0.00    +0.000 OA
BRANCH  23  25
ATOM     24  C   UNL     1       8.208   9.068  18.088  0.00  0.00    +0.000 C 
ATOM     25  C   UNL     1       7.654   7.896  17.290  0.00  0.00    +0.000 C 
ENDBRANCH  23  25
ENDBRANCH  21  23
ENDBRANCH   1  21
TORSDOF 6
ENDMDL
MODEL 9
REMARK VINA RESULT:      -6.9      2.055      3.857
REMARK  Name = 
REMARK  8 active torsions:
REMARK  status: ('A' for Active; 'I' for Inactive)
REMARK    1  A    between atoms: C_1  and  C_2
REMARK    2  A    between atoms: C_2  and  O_3
REMARK    3  A    between atoms: O_3  and  C_4
REMARK    4  A    between atoms: C_4  and  C_6
REMARK    5  A    between atoms: C_7  and  C_8
REMARK    6  A    between atoms: C_13  and  C_14
REMARK    7  A    between atoms: C_17  and  O_18
REMARK    8  A    between atoms: C_19  and  O_20
REMARK                            x       y       z     vdW  Elec       q    Type
REMARK                         _______ _______ _______ _____ _____    ______ ____
ROOT
ATOM      1  C   UNL     1       3.196   4.564  19.259  0.00  0.00    +0.000 C 
ATOM      2  C   UNL     1       2.654   4.924  20.444  0.00  0.00    +0.000 C 
ATOM      3  C   UNL     1       2.517   4.107  21.702  0.00  0.00    +0.000 C 
ATOM      4  N   UNL     1       2.116   6.190  20.558  0.00  0.00    +0.000 N 
ATOM      5  C   UNL     1       2.193   7.177  19.629  0.00  0.00    +0.000 C 
ATOM      6  O   UNL     1       1.727   8.293  19.823  0.00  0.00    +0.000 OA
ATOM      7  N   UNL     1       2.860   6.869  18.495  0.00  0.00    +0.000 N 
ATOM      8  C   UNL     1       3.168   5.514  18.078  0.00  0.00    +0.000 C 
ATOM      9  H   UNL     1       1.668   6.470  21.426  0.00  0.00    +0.000 HD
ATOM     10  H   UNL     1       2.865   7.604  17.797  0.00  0.00    +0.000 HD
ENDROOT
BRANCH   8  11
ATOM     11  C   UNL     1       4.430   5.555  17.227  0.00  0.00    +0.000 A 
ATOM     12  C   UNL     1       5.556   6.306  17.616  0.00  0.00    +0.000 A 
ATOM     13  C   UNL     1       6.737   6.262  16.869  0.00  0.00    +0.000 A 
ATOM     14  C   UNL     1       6.795   5.465  15.732  0.00  0.00    +0.000 A 
ATOM     15  C   UNL     1       5.679   4.742  15.324  0.00  0.00    +0.000 A 
ATOM     16  C   UNL     1       4.497   4.792  16.047  0.00  0.00    +0.000 A 
BRANCH  14  17
ATOM     17  O   UNL     1       7.934   5.344  14.987  0.00  0.00    +0.000 OA
ATOM     18  H   UNL     1       8.362   6.217  14.947  0.00  0.00    +0.000 HD
ENDBRANCH  14  17
BRANCH  15  19
ATOM     19  O   UNL     1       5.745   3.945  14.219  0.00  0.00    +0.000 OA
ATOM     20  H   UNL     1       6.084   3.091  14.552  0.00  0.00    +0.000 HD
ENDBRANCH  15  19
ENDBRANCH   8  11
BRANCH   1  21
ATOM     21  C   UNL     1       3.780   3.206  19.063  0.00  0.00    +0.000 C 
ATOM     22  O   UNL     1       4.838   2.831  19.545  0.00  0.00    +0.000 OA
BRANCH  21  23
ATOM     23  O   UNL     1       2.990   2.444  18.268  0.00  0.00    +0.000 OA
BRANCH  23  25
ATOM     24  C   UNL     1       0.581   2.360  18.767  0.00  0.00    +0.000 C 
ATOM     25  C   UNL     1       1.947   1.709  18.932  0.00  0.00    +0.000 C 
ENDBRANCH  23  25
ENDBRANCH  21  23
ENDBRANCH   1  21
TORSDOF 6
ENDMDL
