MODEL 1
REMARK VINA RESULT:      -8.9      0.000      0.000
REMARK  Name = 
REMARK  9 active torsions:
REMARK  status: ('A' for Active; 'I' for Inactive)
REMARK    1  A    between atoms: C_1  and  N_2
REMARK    2  A    between atoms: N_2  and  C_3
REMARK    3  A    between atoms: N_2  and  C_4
REMARK    4  A    between atoms: C_10  and  C_11
REMARK    5  A    between atoms: C_14  and  C_15
REMARK    6  A    between atoms: N_17  and  C_18
REMARK    7  A    between atoms: C_18  and  C_19
REMARK    8  A    between atoms: N_21  and  C_22
REMARK    9  A    between atoms: C_22  and  C_23
REMARK                            x       y       z     vdW  Elec       q    Type
REMARK                         _______ _______ _______ _____ _____    ______ ____
ROOT
ATOM      1  C   UNL     1       0.936  10.061  19.372  0.00  0.00    +0.000 A 
ATOM      2  C   UNL     1       1.424   9.806  18.085  0.00  0.00    +0.000 A 
ATOM      3  C   UNL     1       2.103   8.620  17.794  0.00  0.00    +0.000 A 
ATOM      4  C   UNL     1       2.320   7.647  18.782  0.00  0.00    +0.000 A 
ATOM      5  C   UNL     1       1.766   7.860  20.052  0.00  0.00    +0.000 A 
ATOM      6  C   UNL     1       1.087   9.059  20.344  0.00  0.00    +0.000 A 
ENDROOT
BRANCH   1  13
ATOM      7  C   UNL     1      -4.049  14.099  22.414  0.00  0.00    +0.000 C 
ATOM      8  C   UNL     1      -3.876  12.669  22.943  0.00  0.00    +0.000 C 
ATOM      9  C   UNL     1      -2.384  12.366  22.822  0.00  0.00    +0.000 C 
ATOM     10  N   UNL     1      -1.916  13.214  21.732  0.00  0.00    +0.000 N 
ATOM     11  C   UNL     1      -1.025  12.741  20.818  0.00  0.00    +0.000 A 
ATOM     12  N   UNL     1      -0.537  11.514  20.785  0.00  0.00    +0.000 NA
ATOM     13  C   UNL     1       0.310  11.342  19.695  0.00  0.00    +0.000 A 
ATOM     14  C   UNL     1       0.531  12.487  18.958  0.00  0.00    +0.000 A 
ATOM     15  S   UNL     1      -0.398  13.776  19.569  0.00  0.00    +0.000 S 
ATOM     16  C   UNL     1      -2.974  14.140  21.304  0.00  0.00    +0.000 C 
BRANCH   7  18
ATOM     17  C   UNL     1      -3.381  16.404  23.087  0.00  0.00    +0.000 C 
ATOM     18  N   UNL     1      -4.054  15.159  23.448  0.00  0.00    +0.000 NA
ATOM     19  C   UNL     1      -5.414  15.456  23.909  0.00  0.00    +0.000 C 
ENDBRANCH   7  18
ENDBRANCH   1  13
BRANCH   4  20
ATOM     20  C   UNL     1       3.159   6.463  18.382  0.00  0.00    +0.000 C 
ATOM     21  O   UNL     1       3.871   6.551  17.389  0.00  0.00    +0.000 OA
ATOM     22  N   UNL     1       3.124   5.330  19.166  0.00  0.00    +0.000 N 
ATOM     23  H   UNL     1       2.732   5.400  20.092  0.00  0.00    +0.000 HD
BRANCH  22  24
ATOM     24  C   UNL     1       3.844   4.065  18.876  0.00  0.00    +0.000 C 
ATOM     25  C   UNL     1       3.776   3.183  20.164  0.00  0.00    +0.000 C 
ATOM     26  C   UNL     1       2.363   2.682  20.479  0.00  0.00    +0.000 C 
ATOM     27  C   UNL     1       1.752   1.922  19.307  0.00  0.00    +0.000 C 
ATOM     28  C   UNL     1       1.814   2.735  18.020  0.00  0.00    +0.000 C 
ATOM     29  C   UNL     1       3.242   3.212  17.727  0.00  0.00    +0.000 C 
BRANCH  24  30
ATOM     30  C   UNL     1       5.364   4.369  18.580  0.00  0.00    +0.000 C 
ATOM     31  O   UNL     1       6.147   4.746  19.452  0.00  0.00    +0.000 OA
ATOM     32  N   UNL     1       5.805   4.189  17.281  0.00  0.00    +0.000 N 
ATOM     33  H   UNL     1       5.135   3.852  16.589  0.00  0.00    +0.000 HD
BRANCH  32  34
ATOM     34  C   UNL     1       7.219   4.364  16.911  0.00  0.00    +0.000 C 
BRANCH  34  35
ATOM     35  C   UNL     1       7.393   4.911  15.504  0.00  0.00    +0.000 C 
ATOM     36  N   UNL     1       7.538   5.365  14.336  0.00  0.00    +0.000 NA
ENDBRANCH  34  35
ENDBRANCH  32  34
ENDBRANCH  24  30
ENDBRANCH  22  24
ENDBRANCH   4  20
TORSDOF 7
ENDMDL
MODEL 2
REMARK VINA RESULT:      -8.9      1.286      1.377
REMARK  Name = 
REMARK  9 active torsions:
REMARK  status: ('A' for Active; 'I' for Inactive)
REMARK    1  A    between atoms: C_1  and  N_2
REMARK    2  A    between atoms: N_2  and  C_3
REMARK    3  A    between atoms: N_2  and  C_4
REMARK    4  A    between atoms: C_10  and  C_11
REMARK    5  A    between atoms: C_14  and  C_15
REMARK    6  A    between atoms: N_17  and  C_18
REMARK    7  A    between atoms: C_18  and  C_19
REMARK    8  A    between atoms: N_21  and  C_22
REMARK    9  A    between atoms: C_22  and  C_23
REMARK                            x       y       z     vdW  Elec       q    Type
REMARK                         _______ _______ _______ _____ _____    ______ ____
ROOT
ATOM      1  C   UNL     1       0.921   9.912  19.274  0.00  0.00    +0.000 A 
ATOM      2  C   UNL     1       1.393   9.700  17.973  0.00  0.00    +0.000 A 
ATOM      3  C   UNL     1       2.154   8.571  17.659  0.00  0.00    +0.000 A 
ATOM      4  C   UNL     1       2.471   7.613  18.635  0.00  0.00    +0.000 A 
ATOM      5  C   UNL     1       1.934   7.778  19.920  0.00  0.00    +0.000 A 
ATOM      6  C   UNL     1       1.173   8.920  20.235  0.00  0.00    +0.000 A 
ENDROOT
BRANCH   1  13
ATOM      7  C   UNL     1      -3.810  13.660  23.011  0.00  0.00    +0.000 C 
ATOM      8  C   UNL     1      -3.332  12.330  23.607  0.00  0.00    +0.000 C 
ATOM      9  C   UNL     1      -1.872  12.191  23.178  0.00  0.00    +0.000 C 
ATOM     10  N   UNL     1      -1.771  12.959  21.942  0.00  0.00    +0.000 N 
ATOM     11  C   UNL     1      -1.039  12.491  20.893  0.00  0.00    +0.000 A 
ATOM     12  N   UNL     1      -0.404  11.334  20.855  0.00  0.00    +0.000 NA
ATOM     13  C   UNL     1       0.206  11.139  19.621  0.00  0.00    +0.000 A 
ATOM     14  C   UNL     1       0.104  12.211  18.758  0.00  0.00    +0.000 A 
ATOM     15  S   UNL     1      -0.842  13.444  19.452  0.00  0.00    +0.000 S 
ATOM     16  C   UNL     1      -3.013  13.700  21.687  0.00  0.00    +0.000 C 
BRANCH   7  18
ATOM     17  C   UNL     1      -3.052  14.597  25.193  0.00  0.00    +0.000 C 
ATOM     18  N   UNL     1      -3.741  14.824  23.926  0.00  0.00    +0.000 NA
ATOM     19  C   UNL     1      -3.166  15.998  23.261  0.00  0.00    +0.000 C 
ENDBRANCH   7  18
ENDBRANCH   1  13
BRANCH   4  20
ATOM     20  C   UNL     1       3.387   6.500  18.207  0.00  0.00    +0.000 C 
ATOM     21  O   UNL     1       4.121   6.675  17.241  0.00  0.00    +0.000 OA
ATOM     22  N   UNL     1       3.395   5.330  18.936  0.00  0.00    +0.000 N 
ATOM     23  H   UNL     1       2.974   5.333  19.852  0.00  0.00    +0.000 HD
BRANCH  22  24
ATOM     24  C   UNL     1       4.195   4.123  18.610  0.00  0.00    +0.000 C 
ATOM     25  C   UNL     1       4.176   3.196  19.868  0.00  0.00    +0.000 C 
ATOM     26  C   UNL     1       2.795   2.597  20.155  0.00  0.00    +0.000 C 
ATOM     27  C   UNL     1       2.240   1.840  18.954  0.00  0.00    +0.000 C 
ATOM     28  C   UNL     1       2.258   2.698  17.695  0.00  0.00    +0.000 C 
ATOM     29  C   UNL     1       3.655   3.272  17.428  0.00  0.00    +0.000 C 
BRANCH  24  30
ATOM     30  C   UNL     1       5.695   4.531  18.337  0.00  0.00    +0.000 C 
ATOM     31  O   UNL     1       6.293   4.209  17.311  0.00  0.00    +0.000 OA
ATOM     32  N   UNL     1       6.333   5.287  19.305  0.00  0.00    +0.000 N 
ATOM     33  H   UNL     1       5.799   5.556  20.131  0.00  0.00    +0.000 HD
BRANCH  32  34
ATOM     34  C   UNL     1       7.703   5.791  19.117  0.00  0.00    +0.000 C 
BRANCH  34  35
ATOM     35  C   UNL     1       7.767   6.968  18.159  0.00  0.00    +0.000 C 
ATOM     36  N   UNL     1       7.821   7.947  17.363  0.00  0.00    +0.000 NA
ENDBRANCH  34  35
ENDBRANCH  32  34
ENDBRANCH  24  30
ENDBRANCH  22  24
ENDBRANCH   4  20
TORSDOF 7
ENDMDL
MODEL 3
REMARK VINA RESULT:      -8.8      1.874      3.505
REMARK  Name = 
REMARK  9 active torsions:
REMARK  status: ('A' for Active; 'I' for Inactive)
REMARK    1  A    between atoms: C_1  and  N_2
REMARK    2  A    between atoms: N_2  and  C_3
REMARK    3  A    between atoms: N_2  and  C_4
REMARK    4  A    between atoms: C_10  and  C_11
REMARK    5  A    between atoms: C_14  and  C_15
REMARK    6  A    between atoms: N_17  and  C_18
REMARK    7  A    between atoms: C_18  and  C_19
REMARK    8  A    between atoms: N_21  and  C_22
REMARK    9  A    between atoms: C_22  and  C_23
REMARK                            x       y       z     vdW  Elec       q    Type
REMARK                         _______ _______ _______ _____ _____    ______ ____
ROOT
ATOM      1  C   UNL     1       0.704   9.512  19.384  0.00  0.00    +0.000 A 
ATOM      2  C   UNL     1       1.040   8.694  20.469  0.00  0.00    +0.000 A 
ATOM      3  C   UNL     1       1.933   7.630  20.320  0.00  0.00    +0.000 A 
ATOM      4  C   UNL     1       2.522   7.345  19.078  0.00  0.00    +0.000 A 
ATOM      5  C   UNL     1       2.252   8.208  18.006  0.00  0.00    +0.000 A 
ATOM      6  C   UNL     1       1.346   9.276  18.158  0.00  0.00    +0.000 A 
ENDROOT
BRANCH   1  13
ATOM      7  C   UNL     1      -4.320  13.059  22.930  0.00  0.00    +0.000 C 
ATOM      8  C   UNL     1      -3.351  12.197  23.749  0.00  0.00    +0.000 C 
ATOM      9  C   UNL     1      -2.013  12.278  23.017  0.00  0.00    +0.000 C 
ATOM     10  N   UNL     1      -2.362  12.548  21.627  0.00  0.00    +0.000 N 
ATOM     11  C   UNL     1      -1.695  11.931  20.612  0.00  0.00    +0.000 A 
ATOM     12  N   UNL     1      -0.737  11.034  20.757  0.00  0.00    +0.000 NA
ATOM     13  C   UNL     1      -0.302  10.564  19.522  0.00  0.00    +0.000 A 
ATOM     14  C   UNL     1      -0.879  11.191  18.438  0.00  0.00    +0.000 A 
ATOM     15  S   UNL     1      -2.048  12.315  18.954  0.00  0.00    +0.000 S 
ATOM     16  C   UNL     1      -3.800  12.815  21.495  0.00  0.00    +0.000 C 
BRANCH   7  18
ATOM     17  C   UNL     1      -3.613  14.856  24.507  0.00  0.00    +0.000 C 
ATOM     18  N   UNL     1      -4.484  14.453  23.406  0.00  0.00    +0.000 NA
ATOM     19  C   UNL     1      -4.359  15.416  22.307  0.00  0.00    +0.000 C 
ENDBRANCH   7  18
ENDBRANCH   1  13
BRANCH   4  20
ATOM     20  C   UNL     1       3.379   6.111  19.011  0.00  0.00    +0.000 C 
ATOM     21  O   UNL     1       3.575   5.470  20.037  0.00  0.00    +0.000 OA
ATOM     22  N   UNL     1       3.889   5.722  17.791  0.00  0.00    +0.000 N 
ATOM     23  H   UNL     1       3.494   6.126  16.956  0.00  0.00    +0.000 HD
BRANCH  22  24
ATOM     24  C   UNL     1       4.795   4.567  17.570  0.00  0.00    +0.000 C 
ATOM     25  C   UNL     1       4.861   4.314  16.029  0.00  0.00    +0.000 C 
ATOM     26  C   UNL     1       5.574   5.432  15.263  0.00  0.00    +0.000 C 
ATOM     27  C   UNL     1       6.979   5.686  15.800  0.00  0.00    +0.000 C 
ATOM     28  C   UNL     1       6.969   5.918  17.305  0.00  0.00    +0.000 C 
ATOM     29  C   UNL     1       6.259   4.777  18.044  0.00  0.00    +0.000 C 
BRANCH  24  30
ATOM     30  C   UNL     1       4.191   3.275  18.245  0.00  0.00    +0.000 C 
ATOM     31  O   UNL     1       3.163   2.734  17.840  0.00  0.00    +0.000 OA
ATOM     32  N   UNL     1       4.872   2.750  19.329  0.00  0.00    +0.000 N 
ATOM     33  H   UNL     1       5.734   3.209  19.623  0.00  0.00    +0.000 HD
BRANCH  32  34
ATOM     34  C   UNL     1       4.445   1.502  19.983  0.00  0.00    +0.000 C 
BRANCH  34  35
ATOM     35  C   UNL     1       5.320   1.131  21.167  0.00  0.00    +0.000 C 
ATOM     36  N   UNL     1       6.048   0.823  22.151  0.00  0.00    +0.000 NA
ENDBRANCH  34  35
ENDBRANCH  32  34
ENDBRANCH  24  30
ENDBRANCH  22  24
ENDBRANCH   4  20
TORSDOF 7
ENDMDL
MODEL 4
REMARK VINA RESULT:      -8.7      1.047      1.410
REMARK  Name = 
REMARK  9 active torsions:
REMARK  status: ('A' for Active; 'I' for Inactive)
REMARK    1  A    between atoms: C_1  and  N_2
REMARK    2  A    between atoms: N_2  and  C_3
REMARK    3  A    between atoms: N_2  and  C_4
REMARK    4  A    between atoms: C_10  and  C_11
REMARK    5  A    between atoms: C_14  and  C_15
REMARK    6  A    between atoms: N_17  and  C_18
REMARK    7  A    between atoms: C_18  and  C_19
REMARK    8  A    between atoms: N_21  and  C_22
REMARK    9  A    between atoms: C_22  and  C_23
REMARK                            x       y       z     vdW  Elec       q    Type
REMARK                         _______ _______ _______ _____ _____    ______ ____
ROOT
ATOM      1  C   UNL     1       0.828  10.376  19.630  0.00  0.00    +0.000 A 
ATOM      2  C   UNL     1       0.995   9.340  20.557  0.00  0.00    +0.000 A 
ATOM      3  C   UNL     1       1.643   8.154  20.202  0.00  0.00    +0.000 A 
ATOM      4  C   UNL     1       2.145   7.961  18.905  0.00  0.00    +0.000 A 
ATOM      5  C   UNL     1       2.052   9.024  17.996  0.00  0.00    +0.000 A 
ATOM      6  C   UNL     1       1.393  10.216  18.355  0.00  0.00    +0.000 A 
ENDROOT
BRANCH   1  13
ATOM      7  C   UNL     1      -4.250  13.871  23.151  0.00  0.00    +0.000 C 
ATOM      8  C   UNL     1      -3.799  12.519  23.718  0.00  0.00    +0.000 C 
ATOM      9  C   UNL     1      -2.307  12.420  23.401  0.00  0.00    +0.000 C 
ATOM     10  N   UNL     1      -2.120  13.251  22.217  0.00  0.00    +0.000 N 
ATOM     11  C   UNL     1      -1.298  12.846  21.209  0.00  0.00    +0.000 A 
ATOM     12  N   UNL     1      -0.643  11.701  21.166  0.00  0.00    +0.000 NA
ATOM     13  C   UNL     1       0.068  11.576  19.977  0.00  0.00    +0.000 A 
ATOM     14  C   UNL     1       0.017  12.688  19.163  0.00  0.00    +0.000 A 
ATOM     15  S   UNL     1      -1.003  13.872  19.837  0.00  0.00    +0.000 S 
ATOM     16  C   UNL     1      -3.350  13.988  21.899  0.00  0.00    +0.000 C 
BRANCH   7  18
ATOM     17  C   UNL     1      -3.131  15.896  24.080  0.00  0.00    +0.000 C 
ATOM     18  N   UNL     1      -4.274  14.988  24.124  0.00  0.00    +0.000 NA
ATOM     19  C   UNL     1      -5.516  15.762  24.024  0.00  0.00    +0.000 C 
ENDBRANCH   7  18
ENDBRANCH   1  13
BRANCH   4  20
ATOM     20  C   UNL     1       2.723   6.604  18.607  0.00  0.00    +0.000 C 
ATOM     21  O   UNL     1       3.234   6.406  17.511  0.00  0.00    +0.000 OA
ATOM     22  N   UNL     1       2.687   5.637  19.589  0.00  0.00    +0.000 N 
ATOM     23  H   UNL     1       2.496   5.923  20.536  0.00  0.00    +0.000 HD
BRANCH  22  24
ATOM     24  C   UNL     1       3.160   4.239  19.431  0.00  0.00    +0.000 C 
ATOM     25  C   UNL     1       2.620   3.423  20.650  0.00  0.00    +0.000 C 
ATOM     26  C   UNL     1       1.098   3.251  20.635  0.00  0.00    +0.000 C 
ATOM     27  C   UNL     1       0.608   2.616  19.338  0.00  0.00    +0.000 C 
ATOM     28  C   UNL     1       1.128   3.365  18.117  0.00  0.00    +0.000 C 
ATOM     29  C   UNL     1       2.654   3.511  18.156  0.00  0.00    +0.000 C 
BRANCH  24  30
ATOM     30  C   UNL     1       4.736   4.196  19.484  0.00  0.00    +0.000 C 
ATOM     31  O   UNL     1       5.365   3.166  19.723  0.00  0.00    +0.000 OA
ATOM     32  N   UNL     1       5.411   5.380  19.242  0.00  0.00    +0.000 N 
ATOM     33  H   UNL     1       4.860   6.210  19.023  0.00  0.00    +0.000 HD
BRANCH  32  34
ATOM     34  C   UNL     1       6.881   5.438  19.185  0.00  0.00    +0.000 C 
BRANCH  34  35
ATOM     35  C   UNL     1       7.438   4.909  17.874  0.00  0.00    +0.000 C 
ATOM     36  N   UNL     1       7.900   4.470  16.785  0.00  0.00    +0.000 NA
ENDBRANCH  34  35
ENDBRANCH  32  34
ENDBRANCH  24  30
ENDBRANCH  22  24
ENDBRANCH   4  20
TORSDOF 7
ENDMDL
MODEL 5
REMARK VINA RESULT:      -8.7      1.234      1.583
REMARK  Name = 
REMARK  9 active torsions:
REMARK  status: ('A' for Active; 'I' for Inactive)
REMARK    1  A    between atoms: C_1  and  N_2
REMARK    2  A    between atoms: N_2  and  C_3
REMARK    3  A    between atoms: N_2  and  C_4
REMARK    4  A    between atoms: C_10  and  C_11
REMARK    5  A    between atoms: C_14  and  C_15
REMARK    6  A    between atoms: N_17  and  C_18
REMARK    7  A    between atoms: C_18  and  C_19
REMARK    8  A    between atoms: N_21  and  C_22
REMARK    9  A    between atoms: C_22  and  C_23
REMARK                            x       y       z     vdW  Elec       q    Type
REMARK                         _______ _______ _______ _____ _____    ______ ____
ROOT
ATOM      1  C   UNL     1       0.662   9.658  19.352  0.00  0.00    +0.000 A 
ATOM      2  C   UNL     1       0.989   8.795  20.405  0.00  0.00    +0.000 A 
ATOM      3  C   UNL     1       1.870   7.727  20.212  0.00  0.00    +0.000 A 
ATOM      4  C   UNL     1       2.454   7.485  18.959  0.00  0.00    +0.000 A 
ATOM      5  C   UNL     1       2.193   8.391  17.922  0.00  0.00    +0.000 A 
ATOM      6  C   UNL     1       1.299   9.462  18.118  0.00  0.00    +0.000 A 
ENDROOT
BRANCH   1  13
ATOM      7  C   UNL     1      -4.273  13.158  23.067  0.00  0.00    +0.000 C 
ATOM      8  C   UNL     1      -3.300  12.267  23.848  0.00  0.00    +0.000 C 
ATOM      9  C   UNL     1      -1.972  12.355  23.097  0.00  0.00    +0.000 C 
ATOM     10  N   UNL     1      -2.341  12.663  21.720  0.00  0.00    +0.000 N 
ATOM     11  C   UNL     1      -1.696  12.066  20.680  0.00  0.00    +0.000 A 
ATOM     12  N   UNL     1      -0.744  11.157  20.786  0.00  0.00    +0.000 NA
ATOM     13  C   UNL     1      -0.332  10.715  19.533  0.00  0.00    +0.000 A 
ATOM     14  C   UNL     1      -0.921  11.374  18.474  0.00  0.00    +0.000 A 
ATOM     15  S   UNL     1      -2.071  12.495  19.037  0.00  0.00    +0.000 S 
ATOM     16  C   UNL     1      -3.778  12.946  21.618  0.00  0.00    +0.000 C 
BRANCH   7  18
ATOM     17  C   UNL     1      -3.491  14.924  24.643  0.00  0.00    +0.000 C 
ATOM     18  N   UNL     1      -4.417  14.541  23.581  0.00  0.00    +0.000 NA
ATOM     19  C   UNL     1      -4.351  15.527  22.497  0.00  0.00    +0.000 C 
ENDBRANCH   7  18
ENDBRANCH   1  13
BRANCH   4  20
ATOM     20  C   UNL     1       3.298   6.244  18.843  0.00  0.00    +0.000 C 
ATOM     21  O   UNL     1       4.470   6.289  19.197  0.00  0.00    +0.000 OA
ATOM     22  N   UNL     1       2.714   5.087  18.373  0.00  0.00    +0.000 N 
ATOM     23  H   UNL     1       1.708   5.036  18.343  0.00  0.00    +0.000 HD
BRANCH  22  24
ATOM     24  C   UNL     1       3.422   3.802  18.146  0.00  0.00    +0.000 C 
ATOM     25  C   UNL     1       3.912   3.287  19.538  0.00  0.00    +0.000 C 
ATOM     26  C   UNL     1       2.767   2.863  20.463  0.00  0.00    +0.000 C 
ATOM     27  C   UNL     1       1.870   1.812  19.817  0.00  0.00    +0.000 C 
ATOM     28  C   UNL     1       1.382   2.261  18.445  0.00  0.00    +0.000 C 
ATOM     29  C   UNL     1       2.552   2.668  17.540  0.00  0.00    +0.000 C 
BRANCH  24  30
ATOM     30  C   UNL     1       4.695   4.042  17.246  0.00  0.00    +0.000 C 
ATOM     31  O   UNL     1       4.628   4.177  16.025  0.00  0.00    +0.000 OA
ATOM     32  N   UNL     1       5.921   4.106  17.886  0.00  0.00    +0.000 N 
ATOM     33  H   UNL     1       5.937   4.016  18.902  0.00  0.00    +0.000 HD
BRANCH  32  34
ATOM     34  C   UNL     1       7.162   4.408  17.155  0.00  0.00    +0.000 C 
BRANCH  34  35
ATOM     35  C   UNL     1       7.377   5.899  16.955  0.00  0.00    +0.000 C 
ATOM     36  N   UNL     1       7.555   7.137  16.789  0.00  0.00    +0.000 NA
ENDBRANCH  34  35
ENDBRANCH  32  34
ENDBRANCH  24  30
ENDBRANCH  22  24
ENDBRANCH   4  20
TORSDOF 7
ENDMDL
MODEL 6
REMARK VINA RESULT:      -8.6      1.597      3.598
REMARK  Name = 
REMARK  9 active torsions:
REMARK  status: ('A' for Active; 'I' for Inactive)
REMARK    1  A    between atoms: C_1  and  N_2
REMARK    2  A    between atoms: N_2  and  C_3
REMARK    3  A    between atoms: N_2  and  C_4
REMARK    4  A    between atoms: C_10  and  C_11
REMARK    5  A    between atoms: C_14  and  C_15
REMARK    6  A    between atoms: N_17  and  C_18
REMARK    7  A    between atoms: C_18  and  C_19
REMARK    8  A    between atoms: N_21  and  C_22
REMARK    9  A    between atoms: C_22  and  C_23
REMARK                            x       y       z     vdW  Elec       q    Type
REMARK                         _______ _______ _______ _____ _____    ______ ____
ROOT
ATOM      1  C   UNL     1       0.670   9.566  19.475  0.00  0.00    +0.000 A 
ATOM      2  C   UNL     1       0.979   8.778  20.590  0.00  0.00    +0.000 A 
ATOM      3  C   UNL     1       1.852   7.692  20.485  0.00  0.00    +0.000 A 
ATOM      4  C   UNL     1       2.446   7.354  19.259  0.00  0.00    +0.000 A 
ATOM      5  C   UNL     1       2.204   8.186  18.156  0.00  0.00    +0.000 A 
ATOM      6  C   UNL     1       1.318   9.276  18.264  0.00  0.00    +0.000 A 
ENDROOT
BRANCH   1  13
ATOM      7  C   UNL     1      -4.346  13.300  22.836  0.00  0.00    +0.000 C 
ATOM      8  C   UNL     1      -3.412  12.437  23.695  0.00  0.00    +0.000 C 
ATOM      9  C   UNL     1      -2.058  12.473  22.988  0.00  0.00    +0.000 C 
ATOM     10  N   UNL     1      -2.374  12.717  21.585  0.00  0.00    +0.000 N 
ATOM     11  C   UNL     1      -1.701  12.062  20.599  0.00  0.00    +0.000 A 
ATOM     12  N   UNL     1      -0.765  11.149  20.783  0.00  0.00    +0.000 NA
ATOM     13  C   UNL     1      -0.316  10.642  19.569  0.00  0.00    +0.000 A 
ATOM     14  C   UNL     1      -0.858  11.255  18.459  0.00  0.00    +0.000 A 
ATOM     15  S   UNL     1      -2.013  12.415  18.925  0.00  0.00    +0.000 S 
ATOM     16  C   UNL     1      -3.803  13.011  21.418  0.00  0.00    +0.000 C 
BRANCH   7  18
ATOM     17  C   UNL     1      -3.766  15.070  24.493  0.00  0.00    +0.000 C 
ATOM     18  N   UNL     1      -4.489  14.707  23.277  0.00  0.00    +0.000 NA
ATOM     19  C   UNL     1      -4.141  15.645  22.204  0.00  0.00    +0.000 C 
ENDBRANCH   7  18
ENDBRANCH   1  13
BRANCH   4  20
ATOM     20  C   UNL     1       3.279   6.101  19.241  0.00  0.00    +0.000 C 
ATOM     21  O   UNL     1       3.389   5.449  20.273  0.00  0.00    +0.000 OA
ATOM     22  N   UNL     1       3.864   5.710  18.056  0.00  0.00    +0.000 N 
ATOM     23  H   UNL     1       3.537   6.128  17.199  0.00  0.00    +0.000 HD
BRANCH  22  24
ATOM     24  C   UNL     1       4.758   4.537  17.888  0.00  0.00    +0.000 C 
ATOM     25  C   UNL     1       4.755   4.160  16.372  0.00  0.00    +0.000 C 
ATOM     26  C   UNL     1       5.435   5.210  15.488  0.00  0.00    +0.000 C 
ATOM     27  C   UNL     1       6.863   5.499  15.939  0.00  0.00    +0.000 C 
ATOM     28  C   UNL     1       6.920   5.851  17.420  0.00  0.00    +0.000 C 
ATOM     29  C   UNL     1       6.241   4.777  18.279  0.00  0.00    +0.000 C 
BRANCH  24  30
ATOM     30  C   UNL     1       4.183   3.306  18.691  0.00  0.00    +0.000 C 
ATOM     31  O   UNL     1       4.874   2.629  19.453  0.00  0.00    +0.000 OA
ATOM     32  N   UNL     1       2.844   3.003  18.515  0.00  0.00    +0.000 N 
ATOM     33  H   UNL     1       2.295   3.600  17.896  0.00  0.00    +0.000 HD
BRANCH  32  34
ATOM     34  C   UNL     1       2.185   1.929  19.276  0.00  0.00    +0.000 C 
BRANCH  34  35
ATOM     35  C   UNL     1       1.817   2.352  20.688  0.00  0.00    +0.000 C 
ATOM     36  N   UNL     1       1.510   2.702  21.861  0.00  0.00    +0.000 NA
ENDBRANCH  34  35
ENDBRANCH  32  34
ENDBRANCH  24  30
ENDBRANCH  22  24
ENDBRANCH   4  20
TORSDOF 7
ENDMDL
MODEL 7
REMARK VINA RESULT:      -8.5      1.108      1.172
REMARK  Name = 
REMARK  9 active torsions:
REMARK  status: ('A' for Active; 'I' for Inactive)
REMARK    1  A    between atoms: C_1  and  N_2
REMARK    2  A    between atoms: N_2  and  C_3
REMARK    3  A    between atoms: N_2  and  C_4
REMARK    4  A    between atoms: C_10  and  C_11
REMARK    5  A    between atoms: C_14  and  C_15
REMARK    6  A    between atoms: N_17  and  C_18
REMARK    7  A    between atoms: C_18  and  C_19
REMARK    8  A    between atoms: N_21  and  C_22
REMARK    9  A    between atoms: C_22  and  C_23
REMARK                            x       y       z     vdW  Elec       q    Type
REMARK                         _______ _______ _______ _____ _____    ______ ____
ROOT
ATOM      1  C   UNL     1       0.691  10.454  20.576  0.00  0.00    +0.000 A 
ATOM      2  C   UNL     1       1.022  10.346  19.220  0.00  0.00    +0.000 A 
ATOM      3  C   UNL     1       1.588   9.175  18.708  0.00  0.00    +0.000 A 
ATOM      4  C   UNL     1       1.845   8.071  19.535  0.00  0.00    +0.000 A 
ATOM      5  C   UNL     1       1.443   8.142  20.876  0.00  0.00    +0.000 A 
ATOM      6  C   UNL     1       0.879   9.326  21.391  0.00  0.00    +0.000 A 
ENDROOT
BRANCH   1  13
ATOM      7  C   UNL     1      -4.459  14.750  22.903  0.00  0.00    +0.000 C 
ATOM      8  C   UNL     1      -4.764  13.247  22.845  0.00  0.00    +0.000 C 
ATOM      9  C   UNL     1      -3.444  12.550  23.172  0.00  0.00    +0.000 C 
ATOM     10  N   UNL     1      -2.411  13.494  22.763  0.00  0.00    +0.000 N 
ATOM     11  C   UNL     1      -1.284  13.059  22.134  0.00  0.00    +0.000 A 
ATOM     12  N   UNL     1      -1.025  11.808  21.799  0.00  0.00    +0.000 NA
ATOM     13  C   UNL     1       0.188  11.711  21.125  0.00  0.00    +0.000 A 
ATOM     14  C   UNL     1       0.889  12.896  21.040  0.00  0.00    +0.000 A 
ATOM     15  S   UNL     1      -0.010  14.169  21.724  0.00  0.00    +0.000 S 
ATOM     16  C   UNL     1      -3.005  14.782  22.381  0.00  0.00    +0.000 C 
BRANCH   7  18
ATOM     17  C   UNL     1      -3.646  16.028  24.883  0.00  0.00    +0.000 C 
ATOM     18  N   UNL     1      -4.774  15.409  24.192  0.00  0.00    +0.000 NA
ATOM     19  C   UNL     1      -5.854  16.390  24.046  0.00  0.00    +0.000 C 
ENDBRANCH   7  18
ENDBRANCH   1  13
BRANCH   4  20
ATOM     20  C   UNL     1       2.557   6.909  18.898  0.00  0.00    +0.000 C 
ATOM     21  O   UNL     1       2.992   7.033  17.759  0.00  0.00    +0.000 OA
ATOM     22  N   UNL     1       2.727   5.753  19.629  0.00  0.00    +0.000 N 
ATOM     23  H   UNL     1       2.584   5.791  20.626  0.00  0.00    +0.000 HD
BRANCH  22  24
ATOM     24  C   UNL     1       3.354   4.505  19.125  0.00  0.00    +0.000 C 
ATOM     25  C   UNL     1       3.132   3.401  20.209  0.00  0.00    +0.000 C 
ATOM     26  C   UNL     1       1.665   2.986  20.357  0.00  0.00    +0.000 C 
ATOM     27  C   UNL     1       1.064   2.529  19.031  0.00  0.00    +0.000 C 
ATOM     28  C   UNL     1       1.274   3.566  17.935  0.00  0.00    +0.000 C 
ATOM     29  C   UNL     1       2.753   3.952  17.804  0.00  0.00    +0.000 C 
BRANCH  24  30
ATOM     30  C   UNL     1       4.909   4.714  18.962  0.00  0.00    +0.000 C 
ATOM     31  O   UNL     1       5.719   4.367  19.821  0.00  0.00    +0.000 OA
ATOM     32  N   UNL     1       5.350   5.308  17.792  0.00  0.00    +0.000 N 
ATOM     33  H   UNL     1       4.653   5.560  17.090  0.00  0.00    +0.000 HD
BRANCH  32  34
ATOM     34  C   UNL     1       6.782   5.476  17.499  0.00  0.00    +0.000 C 
BRANCH  34  35
ATOM     35  C   UNL     1       7.102   5.310  16.023  0.00  0.00    +0.000 C 
ATOM     36  N   UNL     1       7.368   5.173  14.797  0.00  0.00    +0.000 NA
ENDBRANCH  34  35
ENDBRANCH  32  34
ENDBRANCH  24  30
ENDBRANCH  22  24
ENDBRANCH   4  20
TORSDOF 7
ENDMDL
MODEL 8
REMARK VINA RESULT:      -8.4      2.979      4.779
REMARK  Name = 
REMARK  9 active torsions:
REMARK  status: ('A' for Active; 'I' for Inactive)
REMARK    1  A    between atoms: C_1  and  N_2
REMARK    2  A    between atoms: N_2  and  C_3
REMARK    3  A    between atoms: N_2  and  C_4
REMARK    4  A    between atoms: C_10  and  C_11
REMARK    5  A    between atoms: C_14  and  C_15
REMARK    6  A    between atoms: N_17  and  C_18
REMARK    7  A    between atoms: C_18  and  C_19
REMARK    8  A    between atoms: N_21  and  C_22
REMARK    9  A    between atoms: C_22  and  C_23
REMARK                            x       y       z     vdW  Elec       q    Type
REMARK                         _______ _______ _______ _____ _____    ______ ____
ROOT
ATOM      1  C   UNL     1       0.989   9.754  19.117  0.00  0.00    +0.000 A 
ATOM      2  C   UNL     1       1.627   9.212  17.995  0.00  0.00    +0.000 A 
ATOM      3  C   UNL     1       2.321   8.003  18.075  0.00  0.00    +0.000 A 
ATOM      4  C   UNL     1       2.404   7.292  19.283  0.00  0.00    +0.000 A 
ATOM      5  C   UNL     1       1.701   7.788  20.391  0.00  0.00    +0.000 A 
ATOM      6  C   UNL     1       1.007   9.011  20.308  0.00  0.00    +0.000 A 
ENDROOT
BRANCH   1  13
ATOM      7  C   UNL     1       0.993  16.848  19.400  0.00  0.00    +0.000 C 
ATOM      8  C   UNL     1       2.338  16.148  19.165  0.00  0.00    +0.000 C 
ATOM      9  C   UNL     1       2.015  14.908  18.333  0.00  0.00    +0.000 C 
ATOM     10  N   UNL     1       0.633  14.583  18.668  0.00  0.00    +0.000 N 
ATOM     11  C   UNL     1       0.248  13.289  18.843  0.00  0.00    +0.000 A 
ATOM     12  N   UNL     1       1.042  12.236  18.776  0.00  0.00    +0.000 NA
ATOM     13  C   UNL     1       0.344  11.065  19.052  0.00  0.00    +0.000 A 
ATOM     14  C   UNL     1      -1.012  11.239  19.234  0.00  0.00    +0.000 A 
ATOM     15  S   UNL     1      -1.416  12.890  19.155  0.00  0.00    +0.000 S 
ATOM     16  C   UNL     1       0.038  15.637  19.502  0.00  0.00    +0.000 C 
BRANCH   7  18
ATOM     17  C   UNL     1       1.522  18.018  17.264  0.00  0.00    +0.000 C 
ATOM     18  N   UNL     1       0.672  17.937  18.448  0.00  0.00    +0.000 NA
ATOM     19  C   UNL     1      -0.735  17.895  18.036  0.00  0.00    +0.000 C 
ENDBRANCH   7  18
ENDBRANCH   1  13
BRANCH   4  20
ATOM     20  C   UNL     1       3.270   6.062  19.277  0.00  0.00    +0.000 C 
ATOM     21  O   UNL     1       3.400   5.424  20.316  0.00  0.00    +0.000 OA
ATOM     22  N   UNL     1       3.862   5.673  18.094  0.00  0.00    +0.000 N 
ATOM     23  H   UNL     1       3.522   6.072  17.234  0.00  0.00    +0.000 HD
BRANCH  22  24
ATOM     24  C   UNL     1       4.787   4.522  17.937  0.00  0.00    +0.000 C 
ATOM     25  C   UNL     1       4.800   4.136  16.423  0.00  0.00    +0.000 C 
ATOM     26  C   UNL     1       5.455   5.198  15.535  0.00  0.00    +0.000 C 
ATOM     27  C   UNL     1       6.873   5.527  15.990  0.00  0.00    +0.000 C 
ATOM     28  C   UNL     1       6.916   5.890  17.470  0.00  0.00    +0.000 C 
ATOM     29  C   UNL     1       6.262   4.803  18.332  0.00  0.00    +0.000 C 
BRANCH  24  30
ATOM     30  C   UNL     1       4.241   3.281  18.746  0.00  0.00    +0.000 C 
ATOM     31  O   UNL     1       4.954   2.609  19.490  0.00  0.00    +0.000 OA
ATOM     32  N   UNL     1       2.902   2.966  18.595  0.00  0.00    +0.000 N 
ATOM     33  H   UNL     1       2.335   3.560  17.990  0.00  0.00    +0.000 HD
BRANCH  32  34
ATOM     34  C   UNL     1       2.270   1.881  19.363  0.00  0.00    +0.000 C 
BRANCH  34  35
ATOM     35  C   UNL     1       1.859   2.315  20.760  0.00  0.00    +0.000 C 
ATOM     36  N   UNL     1       1.518   2.675  21.921  0.00  0.00    +0.000 NA
ENDBRANCH  34  35
ENDBRANCH  32  34
ENDBRANCH  24  30
ENDBRANCH  22  24
ENDBRANCH   4  20
TORSDOF 7
ENDMDL
MODEL 9
REMARK VINA RESULT:      -8.4      1.351      3.422
REMARK  Name = 
REMARK  9 active torsions:
REMARK  status: ('A' for Active; 'I' for Inactive)
REMARK    1  A    between atoms: C_1  and  N_2
REMARK    2  A    between atoms: N_2  and  C_3
REMARK    3  A    between atoms: N_2  and  C_4
REMARK    4  A    between atoms: C_10  and  C_11
REMARK    5  A    between atoms: C_14  and  C_15
REMARK    6  A    between atoms: N_17  and  C_18
REMARK    7  A    between atoms: C_18  and  C_19
REMARK    8  A    between atoms: N_21  and  C_22
REMARK    9  A    between atoms: C_22  and  C_23
REMARK                            x       y       z     vdW  Elec       q    Type
REMARK                         _______ _______ _______ _____ _____    ______ ____
ROOT
ATOM      1  C   UNL     1       1.256   9.928  19.192  0.00  0.00    +0.000 A 
ATOM      2  C   UNL     1       1.344   8.855  20.087  0.00  0.00    +0.000 A 
ATOM      3  C   UNL     1       1.973   7.662  19.722  0.00  0.00    +0.000 A 
ATOM      4  C   UNL     1       2.535   7.498  18.447  0.00  0.00    +0.000 A 
ATOM      5  C   UNL     1       2.521   8.595  17.573  0.00  0.00    +0.000 A 
ATOM      6  C   UNL     1       1.880   9.794  17.942  0.00  0.00    +0.000 A 
ENDROOT
BRANCH   1  13
ATOM      7  C   UNL     1      -3.638  13.528  22.863  0.00  0.00    +0.000 C 
ATOM      8  C   UNL     1      -3.162  12.190  23.443  0.00  0.00    +0.000 C 
ATOM      9  C   UNL     1      -1.688  12.079  23.057  0.00  0.00    +0.000 C 
ATOM     10  N   UNL     1      -1.558  12.877  21.844  0.00  0.00    +0.000 N 
ATOM     11  C   UNL     1      -0.786  12.444  20.808  0.00  0.00    +0.000 A 
ATOM     12  N   UNL     1      -0.136  11.296  20.763  0.00  0.00    +0.000 NA
ATOM     13  C   UNL     1       0.516  11.138  19.544  0.00  0.00    +0.000 A 
ATOM     14  C   UNL     1       0.427  12.229  18.704  0.00  0.00    +0.000 A 
ATOM     15  S   UNL     1      -0.557  13.433  19.396  0.00  0.00    +0.000 S 
ATOM     16  C   UNL     1      -2.800  13.610  21.567  0.00  0.00    +0.000 C 
BRANCH   7  18
ATOM     17  C   UNL     1      -2.669  15.738  23.490  0.00  0.00    +0.000 C 
ATOM     18  N   UNL     1      -3.613  14.670  23.807  0.00  0.00    +0.000 NA
ATOM     19  C   UNL     1      -4.951  15.243  23.995  0.00  0.00    +0.000 C 
ENDBRANCH   7  18
ENDBRANCH   1  13
BRANCH   4  20
ATOM     20  C   UNL     1       3.085   6.135  18.128  0.00  0.00    +0.000 C 
ATOM     21  O   UNL     1       2.310   5.192  18.026  0.00  0.00    +0.000 OA
ATOM     22  N   UNL     1       4.443   5.998  17.928  0.00  0.00    +0.000 N 
ATOM     23  H   UNL     1       4.990   6.829  17.770  0.00  0.00    +0.000 HD
BRANCH  22  24
ATOM     24  C   UNL     1       5.144   4.716  17.665  0.00  0.00    +0.000 C 
ATOM     25  C   UNL     1       4.880   4.337  16.172  0.00  0.00    +0.000 C 
ATOM     26  C   UNL     1       5.560   5.284  15.179  0.00  0.00    +0.000 C 
ATOM     27  C   UNL     1       7.062   5.384  15.422  0.00  0.00    +0.000 C 
ATOM     28  C   UNL     1       7.372   5.732  16.873  0.00  0.00    +0.000 C 
ATOM     29  C   UNL     1       6.686   4.760  17.841  0.00  0.00    +0.000 C 
BRANCH  24  30
ATOM     30  C   UNL     1       4.532   3.575  18.567  0.00  0.00    +0.000 C 
ATOM     31  O   UNL     1       4.799   3.460  19.762  0.00  0.00    +0.000 OA
ATOM     32  N   UNL     1       3.660   2.687  17.961  0.00  0.00    +0.000 N 
ATOM     33  H   UNL     1       3.442   2.827  16.974  0.00  0.00    +0.000 HD
BRANCH  32  34
ATOM     34  C   UNL     1       2.969   1.636  18.725  0.00  0.00    +0.000 C 
BRANCH  34  35
ATOM     35  C   UNL     1       1.489   1.925  18.913  0.00  0.00    +0.000 C 
ATOM     36  N   UNL     1       0.260   2.164  19.069  0.00  0.00    +0.000 NA
ENDBRANCH  34  35
ENDBRANCH  32  34
ENDBRANCH  24  30
ENDBRANCH  22  24
ENDBRANCH   4  20
TORSDOF 7
ENDMDL
