MODEL 1
REMARK VINA RESULT:      -9.1      0.000      0.000
REMARK  Name = 
REMARK  7 active torsions:
REMARK  status: ('A' for Active; 'I' for Inactive)
REMARK    1  A    between atoms: C_1  and  O_2
REMARK    2  A    between atoms: O_2  and  C_3
REMARK    3  A    between atoms: C_6  and  N_7
REMARK    4  A    between atoms: C_8  and  C_10
REMARK    5  A    between atoms: C_10  and  S_11
REMARK    6  A    between atoms: S_11  and  C_12
REMARK    7  A    between atoms: C_15  and  C_16
REMARK                            x       y       z     vdW  Elec       q    Type
REMARK                         _______ _______ _______ _____ _____    ______ ____
ROOT
ATOM      1  C   UNL     1       4.217   3.593  19.470  0.00  0.00    +0.000 A 
ATOM      2  N   UNL     1       4.890   4.603  19.967  0.00  0.00    +0.000 NA
ATOM      3  N   UNL     1       5.617   5.141  18.919  0.00  0.00    +0.000 NA
ATOM      4  C   UNL     1       5.355   4.432  17.822  0.00  0.00    +0.000 A 
ATOM      5  O   UNL     1       4.453   3.428  18.134  0.00  0.00    +0.000 OA
ENDROOT
BRANCH   4   6
ATOM      6  C   UNL     1       5.884   4.655  16.515  0.00  0.00    +0.000 A 
ATOM      7  C   UNL     1       5.586   3.815  15.509  0.00  0.00    +0.000 A 
ATOM      8  C   UNL     1       6.147   4.040  14.185  0.00  0.00    +0.000 A 
ATOM      9  C   UNL     1       5.679   3.385  13.046  0.00  0.00    +0.000 A 
ATOM     10  C   UNL     1       6.296   3.609  11.811  0.00  0.00    +0.000 A 
ATOM     11  C   UNL     1       7.405   4.454  11.717  0.00  0.00    +0.000 A 
ATOM     12  C   UNL     1       7.871   5.118  12.850  0.00  0.00    +0.000 A 
ATOM     13  C   UNL     1       7.212   4.927  14.062  0.00  0.00    +0.000 A 
ATOM     14  O   UNL     1       7.604   5.725  15.149  0.00  0.00    +0.000 OA
ATOM     15  C   UNL     1       6.756   5.829  16.250  0.00  0.00    +0.000 A 
ATOM     16  O   UNL     1       6.773   6.826  16.965  0.00  0.00    +0.000 OA
ENDBRANCH   4   6
BRANCH   1  17
ATOM     17  S   UNL     1       3.165   2.531  20.351  0.00  0.00    +0.000 S 
BRANCH  17  18
ATOM     18  C   UNL     1       2.378   3.655  21.528  0.00  0.00    +0.000 C 
BRANCH  18  20
ATOM     19  N   UNL     1       2.330   6.027  20.863  0.00  0.00    +0.000 N 
ATOM     20  C   UNL     1       1.683   4.793  20.781  0.00  0.00    +0.000 C 
ATOM     21  O   UNL     1       0.658   4.557  20.151  0.00  0.00    +0.000 OA
ATOM     22  H   UNL     1       3.185   6.063  21.402  0.00  0.00    +0.000 HD
BRANCH  19  26
ATOM     23  C   UNL     1       0.995   9.653  19.100  0.00  0.00    +0.000 A 
ATOM     24  C   UNL     1       0.713   9.379  20.432  0.00  0.00    +0.000 A 
ATOM     25  C   UNL     1       1.158   8.198  21.032  0.00  0.00    +0.000 A 
ATOM     26  C   UNL     1       1.879   7.249  20.307  0.00  0.00    +0.000 A 
ATOM     27  C   UNL     1       2.172   7.532  18.963  0.00  0.00    +0.000 A 
ATOM     28  C   UNL     1       1.730   8.724  18.363  0.00  0.00    +0.000 A 
BRANCH  23  30
ATOM     29  C   UNL     1      -0.864  10.763  18.152  0.00  0.00    +0.000 C 
ATOM     30  O   UNL     1       0.473  10.826  18.630  0.00  0.00    +0.000 OA
ENDBRANCH  23  30
ENDBRANCH  19  26
ENDBRANCH  18  20
ENDBRANCH  17  18
ENDBRANCH   1  17
TORSDOF 6
ENDMDL
MODEL 2
REMARK VINA RESULT:      -8.7      0.555      1.038
REMARK  Name = 
REMARK  7 active torsions:
REMARK  status: ('A' for Active; 'I' for Inactive)
REMARK    1  A    between atoms: C_1  and  O_2
REMARK    2  A    between atoms: O_2  and  C_3
REMARK    3  A    between atoms: C_6  and  N_7
REMARK    4  A    between atoms: C_8  and  C_10
REMARK    5  A    between atoms: C_10  and  S_11
REMARK    6  A    between atoms: S_11  and  C_12
REMARK    7  A    between atoms: C_15  and  C_16
REMARK                            x       y       z     vdW  Elec       q    Type
REMARK                         _______ _______ _______ _____ _____    ______ ____
ROOT
ATOM      1  C   UNL     1       4.124   3.803  19.486  0.00  0.00    +0.000 A 
ATOM      2  N   UNL     1       4.634   4.934  19.910  0.00  0.00    +0.000 NA
ATOM      3  N   UNL     1       5.340   5.466  18.844  0.00  0.00    +0.000 NA
ATOM      4  C   UNL     1       5.230   4.632  17.811  0.00  0.00    +0.000 A 
ATOM      5  O   UNL     1       4.448   3.550  18.183  0.00  0.00    +0.000 OA
ENDROOT
BRANCH   4   6
ATOM      6  C   UNL     1       5.794   4.803  16.511  0.00  0.00    +0.000 A 
ATOM      7  C   UNL     1       5.476   3.958  15.516  0.00  0.00    +0.000 A 
ATOM      8  C   UNL     1       6.072   4.130  14.199  0.00  0.00    +0.000 A 
ATOM      9  C   UNL     1       5.595   3.475  13.064  0.00  0.00    +0.000 A 
ATOM     10  C   UNL     1       6.246   3.644  11.837  0.00  0.00    +0.000 A 
ATOM     11  C   UNL     1       7.395   4.433  11.750  0.00  0.00    +0.000 A 
ATOM     12  C   UNL     1       7.872   5.096  12.879  0.00  0.00    +0.000 A 
ATOM     13  C   UNL     1       7.181   4.962  14.081  0.00  0.00    +0.000 A 
ATOM     14  O   UNL     1       7.589   5.762  15.160  0.00  0.00    +0.000 OA
ATOM     15  C   UNL     1       6.727   5.929  16.242  0.00  0.00    +0.000 A 
ATOM     16  O   UNL     1       6.778   6.937  16.938  0.00  0.00    +0.000 OA
ENDBRANCH   4   6
BRANCH   1  17
ATOM     17  S   UNL     1       3.171   2.696  20.423  0.00  0.00    +0.000 S 
BRANCH  17  18
ATOM     18  C   UNL     1       2.361   3.791  21.612  0.00  0.00    +0.000 C 
BRANCH  18  20
ATOM     19  N   UNL     1       2.131   6.190  21.100  0.00  0.00    +0.000 N 
ATOM     20  C   UNL     1       1.624   4.909  20.876  0.00  0.00    +0.000 C 
ATOM     21  O   UNL     1       0.690   4.623  20.135  0.00  0.00    +0.000 OA
ATOM     22  H   UNL     1       2.925   6.268  21.721  0.00  0.00    +0.000 HD
BRANCH  19  26
ATOM     23  C   UNL     1       0.528   9.844  19.645  0.00  0.00    +0.000 A 
ATOM     24  C   UNL     1       1.506   9.174  18.921  0.00  0.00    +0.000 A 
ATOM     25  C   UNL     1       2.033   7.962  19.377  0.00  0.00    +0.000 A 
ATOM     26  C   UNL     1       1.610   7.401  20.583  0.00  0.00    +0.000 A 
ATOM     27  C   UNL     1       0.614   8.076  21.308  0.00  0.00    +0.000 A 
ATOM     28  C   UNL     1       0.080   9.290  20.844  0.00  0.00    +0.000 A 
BRANCH  23  30
ATOM     29  C   UNL     1       1.150  11.836  18.534  0.00  0.00    +0.000 C 
ATOM     30  O   UNL     1       0.125  11.033  19.103  0.00  0.00    +0.000 OA
ENDBRANCH  23  30
ENDBRANCH  19  26
ENDBRANCH  18  20
ENDBRANCH  17  18
ENDBRANCH   1  17
TORSDOF 6
ENDMDL
MODEL 3
REMARK VINA RESULT:      -8.4      1.067      1.109
REMARK  Name = 
REMARK  7 active torsions:
REMARK  status: ('A' for Active; 'I' for Inactive)
REMARK    1  A    between atoms: C_1  and  O_2
REMARK    2  A    between atoms: O_2  and  C_3
REMARK    3  A    between atoms: C_6  and  N_7
REMARK    4  A    between atoms: C_8  and  C_10
REMARK    5  A    between atoms: C_10  and  S_11
REMARK    6  A    between atoms: S_11  and  C_12
REMARK    7  A    between atoms: C_15  and  C_16
REMARK                            x       y       z     vdW  Elec       q    Type
REMARK                         _______ _______ _______ _____ _____    ______ ____
ROOT
ATOM      1  C   UNL     1       4.620   3.436  19.502  0.00  0.00    +0.000 A 
ATOM      2  N   UNL     1       5.535   4.229  20.007  0.00  0.00    +0.000 NA
ATOM      3  N   UNL     1       6.240   4.742  18.932  0.00  0.00    +0.000 NA
ATOM      4  C   UNL     1       5.723   4.237  17.813  0.00  0.00    +0.000 A 
ATOM      5  O   UNL     1       4.672   3.395  18.138  0.00  0.00    +0.000 OA
ENDROOT
BRANCH   4   6
ATOM      6  C   UNL     1       6.145   4.513  16.477  0.00  0.00    +0.000 A 
ATOM      7  C   UNL     1       5.808   3.685  15.474  0.00  0.00    +0.000 A 
ATOM      8  C   UNL     1       6.259   3.965  14.118  0.00  0.00    +0.000 A 
ATOM      9  C   UNL     1       5.735   3.317  13.000  0.00  0.00    +0.000 A 
ATOM     10  C   UNL     1       6.250   3.596  11.729  0.00  0.00    +0.000 A 
ATOM     11  C   UNL     1       7.313   4.490  11.578  0.00  0.00    +0.000 A 
ATOM     12  C   UNL     1       7.834   5.146  12.690  0.00  0.00    +0.000 A 
ATOM     13  C   UNL     1       7.275   4.900  13.942  0.00  0.00    +0.000 A 
ATOM     14  O   UNL     1       7.713   5.688  15.018  0.00  0.00    +0.000 OA
ATOM     15  C   UNL     1       6.946   5.729  16.181  0.00  0.00    +0.000 A 
ATOM     16  O   UNL     1       6.975   6.709  16.919  0.00  0.00    +0.000 OA
ENDBRANCH   4   6
BRANCH   1  17
ATOM     17  S   UNL     1       3.471   2.496  20.402  0.00  0.00    +0.000 S 
BRANCH  17  18
ATOM     18  C   UNL     1       2.029   2.499  19.312  0.00  0.00    +0.000 C 
BRANCH  18  20
ATOM     19  N   UNL     1       2.214   4.920  19.732  0.00  0.00    +0.000 N 
ATOM     20  C   UNL     1       1.686   3.931  18.901  0.00  0.00    +0.000 C 
ATOM     21  O   UNL     1       1.023   4.119  17.887  0.00  0.00    +0.000 OA
ATOM     22  H   UNL     1       2.764   4.611  20.522  0.00  0.00    +0.000 HD
BRANCH  19  26
ATOM     23  C   UNL     1       1.607   9.097  19.255  0.00  0.00    +0.000 A 
ATOM     24  C   UNL     1       1.355   8.490  20.479  0.00  0.00    +0.000 A 
ATOM     25  C   UNL     1       1.565   7.120  20.658  0.00  0.00    +0.000 A 
ATOM     26  C   UNL     1       2.011   6.316  19.608  0.00  0.00    +0.000 A 
ATOM     27  C   UNL     1       2.274   6.933  18.374  0.00  0.00    +0.000 A 
ATOM     28  C   UNL     1       2.070   8.313  18.198  0.00  0.00    +0.000 A 
BRANCH  23  30
ATOM     29  C   UNL     1       1.935  11.159  18.147  0.00  0.00    +0.000 C 
ATOM     30  O   UNL     1       1.329  10.434  19.208  0.00  0.00    +0.000 OA
ENDBRANCH  23  30
ENDBRANCH  19  26
ENDBRANCH  18  20
ENDBRANCH  17  18
ENDBRANCH   1  17
TORSDOF 6
ENDMDL
MODEL 4
REMARK VINA RESULT:      -8.3      2.118      7.381
REMARK  Name = 
REMARK  7 active torsions:
REMARK  status: ('A' for Active; 'I' for Inactive)
REMARK    1  A    between atoms: C_1  and  O_2
REMARK    2  A    between atoms: O_2  and  C_3
REMARK    3  A    between atoms: C_6  and  N_7
REMARK    4  A    between atoms: C_8  and  C_10
REMARK    5  A    between atoms: C_10  and  S_11
REMARK    6  A    between atoms: S_11  and  C_12
REMARK    7  A    between atoms: C_15  and  C_16
REMARK                            x       y       z     vdW  Elec       q    Type
REMARK                         _______ _______ _______ _____ _____    ______ ____
ROOT
ATOM      1  C   UNL     1       1.776   3.589  19.937  0.00  0.00    +0.000 A 
ATOM      2  N   UNL     1       2.519   3.768  21.003  0.00  0.00    +0.000 NA
ATOM      3  N   UNL     1       2.598   5.137  21.196  0.00  0.00    +0.000 NA
ATOM      4  C   UNL     1       1.898   5.736  20.234  0.00  0.00    +0.000 A 
ATOM      5  O   UNL     1       1.348   4.772  19.405  0.00  0.00    +0.000 OA
ENDROOT
BRANCH   4   6
ATOM      6  C   UNL     1       1.707   7.141  20.066  0.00  0.00    +0.000 A 
ATOM      7  C   UNL     1       1.024   7.847  20.983  0.00  0.00    +0.000 A 
ATOM      8  C   UNL     1       0.817   9.276  20.793  0.00  0.00    +0.000 A 
ATOM      9  C   UNL     1       0.364  10.114  21.811  0.00  0.00    +0.000 A 
ATOM     10  C   UNL     1       0.137  11.469  21.548  0.00  0.00    +0.000 A 
ATOM     11  C   UNL     1       0.323  11.980  20.261  0.00  0.00    +0.000 A 
ATOM     12  C   UNL     1       0.784  11.149  19.242  0.00  0.00    +0.000 A 
ATOM     13  C   UNL     1       1.058   9.815  19.533  0.00  0.00    +0.000 A 
ATOM     14  O   UNL     1       1.667   9.041  18.532  0.00  0.00    +0.000 OA
ATOM     15  C   UNL     1       2.277   7.839  18.884  0.00  0.00    +0.000 A 
ATOM     16  O   UNL     1       3.204   7.386  18.221  0.00  0.00    +0.000 OA
ENDBRANCH   4   6
BRANCH   1  17
ATOM     17  S   UNL     1       1.376   2.063  19.214  0.00  0.00    +0.000 S 
BRANCH  17  18
ATOM     18  C   UNL     1       2.945   1.564  18.468  0.00  0.00    +0.000 C 
BRANCH  18  20
ATOM     19  N   UNL     1       4.841   3.132  18.359  0.00  0.00    +0.000 N 
ATOM     20  C   UNL     1       3.615   2.766  17.804  0.00  0.00    +0.000 C 
ATOM     21  O   UNL     1       3.074   3.295  16.839  0.00  0.00    +0.000 OA
ATOM     22  H   UNL     1       5.174   2.584  19.142  0.00  0.00    +0.000 HD
BRANCH  19  26
ATOM     23  C   UNL     1       7.223   6.412  17.088  0.00  0.00    +0.000 A 
ATOM     24  C   UNL     1       6.876   6.278  18.427  0.00  0.00    +0.000 A 
ATOM     25  C   UNL     1       6.106   5.197  18.865  0.00  0.00    +0.000 A 
ATOM     26  C   UNL     1       5.645   4.232  17.969  0.00  0.00    +0.000 A 
ATOM     27  C   UNL     1       6.004   4.363  16.618  0.00  0.00    +0.000 A 
ATOM     28  C   UNL     1       6.784   5.448  16.180  0.00  0.00    +0.000 A 
BRANCH  23  30
ATOM     29  C   UNL     1       7.885   8.584  17.744  0.00  0.00    +0.000 C 
ATOM     30  O   UNL     1       7.948   7.531  16.791  0.00  0.00    +0.000 OA
ENDBRANCH  23  30
ENDBRANCH  19  26
ENDBRANCH  18  20
ENDBRANCH  17  18
ENDBRANCH   1  17
TORSDOF 6
ENDMDL
MODEL 5
REMARK VINA RESULT:      -8.2      1.283      1.349
REMARK  Name = 
REMARK  7 active torsions:
REMARK  status: ('A' for Active; 'I' for Inactive)
REMARK    1  A    between atoms: C_1  and  O_2
REMARK    2  A    between atoms: O_2  and  C_3
REMARK    3  A    between atoms: C_6  and  N_7
REMARK    4  A    between atoms: C_8  and  C_10
REMARK    5  A    between atoms: C_10  and  S_11
REMARK    6  A    between atoms: S_11  and  C_12
REMARK    7  A    between atoms: C_15  and  C_16
REMARK                            x       y       z     vdW  Elec       q    Type
REMARK                         _______ _______ _______ _____ _____    ______ ____
ROOT
ATOM      1  C   UNL     1       3.688   2.686  19.416  0.00  0.00    +0.000 A 
ATOM      2  N   UNL     1       2.877   2.134  18.546  0.00  0.00    +0.000 NA
ATOM      3  N   UNL     1       3.315   2.536  17.296  0.00  0.00    +0.000 NA
ATOM      4  C   UNL     1       4.379   3.320  17.458  0.00  0.00    +0.000 A 
ATOM      5  O   UNL     1       4.656   3.437  18.810  0.00  0.00    +0.000 OA
ENDROOT
BRANCH   4   6
ATOM      6  C   UNL     1       5.148   3.939  16.426  0.00  0.00    +0.000 A 
ATOM      7  C   UNL     1       5.321   3.321  15.245  0.00  0.00    +0.000 A 
ATOM      8  C   UNL     1       6.123   3.952  14.207  0.00  0.00    +0.000 A 
ATOM      9  C   UNL     1       6.126   3.510  12.884  0.00  0.00    +0.000 A 
ATOM     10  C   UNL     1       6.959   4.129  11.945  0.00  0.00    +0.000 A 
ATOM     11  C   UNL     1       7.819   5.159  12.334  0.00  0.00    +0.000 A 
ATOM     12  C   UNL     1       7.815   5.609  13.653  0.00  0.00    +0.000 A 
ATOM     13  C   UNL     1       6.940   5.021  14.562  0.00  0.00    +0.000 A 
ATOM     14  O   UNL     1       6.844   5.596  15.840  0.00  0.00    +0.000 OA
ATOM     15  C   UNL     1       5.749   5.281  16.642  0.00  0.00    +0.000 A 
ATOM     16  O   UNL     1       5.348   6.066  17.495  0.00  0.00    +0.000 OA
ENDBRANCH   4   6
BRANCH   1  17
ATOM     17  S   UNL     1       3.584   2.550  21.143  0.00  0.00    +0.000 S 
BRANCH  17  18
ATOM     18  C   UNL     1       1.865   3.010  21.465  0.00  0.00    +0.000 C 
BRANCH  18  20
ATOM     19  N   UNL     1       2.214   5.363  20.824  0.00  0.00    +0.000 N 
ATOM     20  C   UNL     1       1.472   4.204  20.596  0.00  0.00    +0.000 C 
ATOM     21  O   UNL     1       0.586   4.068  19.759  0.00  0.00    +0.000 OA
ATOM     22  H   UNL     1       2.932   5.317  21.535  0.00  0.00    +0.000 HD
BRANCH  19  26
ATOM     23  C   UNL     1       1.667   9.081  18.844  0.00  0.00    +0.000 A 
ATOM     24  C   UNL     1       1.222   8.913  20.150  0.00  0.00    +0.000 A 
ATOM     25  C   UNL     1       1.408   7.702  20.822  0.00  0.00    +0.000 A 
ATOM     26  C   UNL     1       2.025   6.618  20.195  0.00  0.00    +0.000 A 
ATOM     27  C   UNL     1       2.482   6.793  18.879  0.00  0.00    +0.000 A 
ATOM     28  C   UNL     1       2.301   8.014  18.207  0.00  0.00    +0.000 A 
BRANCH  23  30
ATOM     29  C   UNL     1       0.818  11.263  19.172  0.00  0.00    +0.000 C 
ATOM     30  O   UNL     1       1.391  10.302  18.295  0.00  0.00    +0.000 OA
ENDBRANCH  23  30
ENDBRANCH  19  26
ENDBRANCH  18  20
ENDBRANCH  17  18
ENDBRANCH   1  17
TORSDOF 6
ENDMDL
MODEL 6
REMARK VINA RESULT:      -8.1      6.141      8.554
REMARK  Name = 
REMARK  7 active torsions:
REMARK  status: ('A' for Active; 'I' for Inactive)
REMARK    1  A    between atoms: C_1  and  O_2
REMARK    2  A    between atoms: O_2  and  C_3
REMARK    3  A    between atoms: C_6  and  N_7
REMARK    4  A    between atoms: C_8  and  C_10
REMARK    5  A    between atoms: C_10  and  S_11
REMARK    6  A    between atoms: S_11  and  C_12
REMARK    7  A    between atoms: C_15  and  C_16
REMARK                            x       y       z     vdW  Elec       q    Type
REMARK                         _______ _______ _______ _____ _____    ______ ____
ROOT
ATOM      1  C   UNL     1       7.436   7.427  17.879  0.00  0.00    +0.000 A 
ATOM      2  N   UNL     1       8.189   6.396  18.181  0.00  0.00    +0.000 NA
ATOM      3  N   UNL     1       7.333   5.321  18.339  0.00  0.00    +0.000 NA
ATOM      4  C   UNL     1       6.087   5.743  18.127  0.00  0.00    +0.000 A 
ATOM      5  O   UNL     1       6.112   7.094  17.821  0.00  0.00    +0.000 OA
ENDROOT
BRANCH   4   6
ATOM      6  C   UNL     1       4.898   4.955  18.176  0.00  0.00    +0.000 A 
ATOM      7  C   UNL     1       4.056   5.061  19.219  0.00  0.00    +0.000 A 
ATOM      8  C   UNL     1       2.857   4.238  19.270  0.00  0.00    +0.000 A 
ATOM      9  C   UNL     1       1.814   4.479  20.164  0.00  0.00    +0.000 A 
ATOM     10  C   UNL     1       0.711   3.618  20.196  0.00  0.00    +0.000 A 
ATOM     11  C   UNL     1       0.666   2.496  19.365  0.00  0.00    +0.000 A 
ATOM     12  C   UNL     1       1.701   2.254  18.464  0.00  0.00    +0.000 A 
ATOM     13  C   UNL     1       2.766   3.151  18.406  0.00  0.00    +0.000 A 
ATOM     14  O   UNL     1       3.713   2.970  17.385  0.00  0.00    +0.000 OA
ATOM     15  C   UNL     1       4.571   4.022  17.067  0.00  0.00    +0.000 A 
ATOM     16  O   UNL     1       5.045   4.128  15.940  0.00  0.00    +0.000 OA
ENDBRANCH   4   6
BRANCH   1  17
ATOM     17  S   UNL     1       7.984   9.050  17.606  0.00  0.00    +0.000 S 
BRANCH  17  18
ATOM     18  C   UNL     1       9.070   9.336  19.024  0.00  0.00    +0.000 C 
BRANCH  18  20
ATOM     19  N   UNL     1       9.792  11.412  17.912  0.00  0.00    +0.000 N 
ATOM     20  C   UNL     1       9.426  10.819  19.121  0.00  0.00    +0.000 C 
ATOM     21  O   UNL     1       9.339  11.385  20.205  0.00  0.00    +0.000 OA
ATOM     22  H   UNL     1       9.794  10.820  17.092  0.00  0.00    +0.000 HD
BRANCH  19  26
ATOM     23  C   UNL     1      10.976  15.462  17.427  0.00  0.00    +0.000 A 
ATOM     24  C   UNL     1      11.834  14.434  17.056  0.00  0.00    +0.000 A 
ATOM     25  C   UNL     1      11.455  13.096  17.194  0.00  0.00    +0.000 A 
ATOM     26  C   UNL     1      10.213  12.752  17.729  0.00  0.00    +0.000 A 
ATOM     27  C   UNL     1       9.343  13.792  18.095  0.00  0.00    +0.000 A 
ATOM     28  C   UNL     1       9.724  15.138  17.948  0.00  0.00    +0.000 A 
BRANCH  23  30
ATOM     29  C   UNL     1      10.536  17.779  17.262  0.00  0.00    +0.000 C 
ATOM     30  O   UNL     1      11.485  16.721  17.270  0.00  0.00    +0.000 OA
ENDBRANCH  23  30
ENDBRANCH  19  26
ENDBRANCH  18  20
ENDBRANCH  17  18
ENDBRANCH   1  17
TORSDOF 6
ENDMDL
MODEL 7
REMARK VINA RESULT:      -8.0      6.890      9.029
REMARK  Name = 
REMARK  7 active torsions:
REMARK  status: ('A' for Active; 'I' for Inactive)
REMARK    1  A    between atoms: C_1  and  O_2
REMARK    2  A    between atoms: O_2  and  C_3
REMARK    3  A    between atoms: C_6  and  N_7
REMARK    4  A    between atoms: C_8  and  C_10
REMARK    5  A    between atoms: C_10  and  S_11
REMARK    6  A    between atoms: S_11  and  C_12
REMARK    7  A    between atoms: C_15  and  C_16
REMARK                            x       y       z     vdW  Elec       q    Type
REMARK                         _______ _______ _______ _____ _____    ______ ____
ROOT
ATOM      1  C   UNL     1       8.460   9.658  18.303  0.00  0.00    +0.000 A 
ATOM      2  N   UNL     1       9.145   9.637  19.421  0.00  0.00    +0.000 NA
ATOM      3  N   UNL     1       9.723  10.888  19.547  0.00  0.00    +0.000 NA
ATOM      4  C   UNL     1       9.366  11.622  18.494  0.00  0.00    +0.000 A 
ATOM      5  O   UNL     1       8.546  10.867  17.671  0.00  0.00    +0.000 OA
ENDROOT
BRANCH   4   6
ATOM      6  C   UNL     1       9.732  12.977  18.234  0.00  0.00    +0.000 A 
ATOM      7  C   UNL     1       8.907  13.981  18.579  0.00  0.00    +0.000 A 
ATOM      8  C   UNL     1       9.280  15.358  18.292  0.00  0.00    +0.000 A 
ATOM      9  C   UNL     1       8.619  16.451  18.852  0.00  0.00    +0.000 A 
ATOM     10  C   UNL     1       8.995  17.751  18.494  0.00  0.00    +0.000 A 
ATOM     11  C   UNL     1      10.002  17.960  17.548  0.00  0.00    +0.000 A 
ATOM     12  C   UNL     1      10.671  16.872  16.991  0.00  0.00    +0.000 A 
ATOM     13  C   UNL     1      10.323  15.587  17.399  0.00  0.00    +0.000 A 
ATOM     14  O   UNL     1      11.116  14.521  16.943  0.00  0.00    +0.000 OA
ATOM     15  C   UNL     1      11.036  13.292  17.594  0.00  0.00    +0.000 A 
ATOM     16  O   UNL     1      11.987  12.517  17.594  0.00  0.00    +0.000 OA
ENDBRANCH   4   6
BRANCH   1  17
ATOM     17  S   UNL     1       7.559   8.337  17.630  0.00  0.00    +0.000 S 
BRANCH  17  18
ATOM     18  C   UNL     1       8.204   6.920  18.550  0.00  0.00    +0.000 C 
BRANCH  18  20
ATOM     19  N   UNL     1       5.999   5.962  18.010  0.00  0.00    +0.000 N 
ATOM     20  C   UNL     1       7.065   5.967  18.911  0.00  0.00    +0.000 C 
ATOM     21  O   UNL     1       7.165   5.267  19.912  0.00  0.00    +0.000 OA
ATOM     22  H   UNL     1       6.069   6.581  17.212  0.00  0.00    +0.000 HD
BRANCH  19  26
ATOM     23  C   UNL     1       2.444   3.654  18.289  0.00  0.00    +0.000 A 
ATOM     24  C   UNL     1       2.802   4.514  19.321  0.00  0.00    +0.000 A 
ATOM     25  C   UNL     1       3.960   5.292  19.238  0.00  0.00    +0.000 A 
ATOM     26  C   UNL     1       4.803   5.214  18.129  0.00  0.00    +0.000 A 
ATOM     27  C   UNL     1       4.435   4.352  17.083  0.00  0.00    +0.000 A 
ATOM     28  C   UNL     1       3.266   3.575  17.164  0.00  0.00    +0.000 A 
BRANCH  23  30
ATOM     29  C   UNL     1       0.714   3.083  19.795  0.00  0.00    +0.000 C 
ATOM     30  O   UNL     1       1.308   2.928  18.513  0.00  0.00    +0.000 OA
ENDBRANCH  23  30
ENDBRANCH  19  26
ENDBRANCH  18  20
ENDBRANCH  17  18
ENDBRANCH   1  17
TORSDOF 6
ENDMDL
MODEL 8
REMARK VINA RESULT:      -7.9      1.772      8.276
REMARK  Name = 
REMARK  7 active torsions:
REMARK  status: ('A' for Active; 'I' for Inactive)
REMARK    1  A    between atoms: C_1  and  O_2
REMARK    2  A    between atoms: O_2  and  C_3
REMARK    3  A    between atoms: C_6  and  N_7
REMARK    4  A    between atoms: C_8  and  C_10
REMARK    5  A    between atoms: C_10  and  S_11
REMARK    6  A    between atoms: S_11  and  C_12
REMARK    7  A    between atoms: C_15  and  C_16
REMARK                            x       y       z     vdW  Elec       q    Type
REMARK                         _______ _______ _______ _____ _____    ______ ____
ROOT
ATOM      1  C   UNL     1       2.365   4.255  20.122  0.00  0.00    +0.000 A 
ATOM      2  N   UNL     1       3.561   4.774  19.985  0.00  0.00    +0.000 NA
ATOM      3  N   UNL     1       3.397   6.147  20.029  0.00  0.00    +0.000 NA
ATOM      4  C   UNL     1       2.101   6.409  20.190  0.00  0.00    +0.000 A 
ATOM      5  O   UNL     1       1.402   5.215  20.261  0.00  0.00    +0.000 OA
ENDROOT
BRANCH   4   6
ATOM      6  C   UNL     1       1.497   7.698  20.299  0.00  0.00    +0.000 A 
ATOM      7  C   UNL     1       0.863   8.057  21.428  0.00  0.00    +0.000 A 
ATOM      8  C   UNL     1       0.233   9.367  21.522  0.00  0.00    +0.000 A 
ATOM      9  C   UNL     1      -0.200   9.910  22.731  0.00  0.00    +0.000 A 
ATOM     10  C   UNL     1      -0.845  11.152  22.745  0.00  0.00    +0.000 A 
ATOM     11  C   UNL     1      -1.093  11.833  21.551  0.00  0.00    +0.000 A 
ATOM     12  C   UNL     1      -0.655  11.299  20.341  0.00  0.00    +0.000 A 
ATOM     13  C   UNL     1       0.034  10.088  20.349  0.00  0.00    +0.000 A 
ATOM     14  O   UNL     1       0.599   9.652  19.140  0.00  0.00    +0.000 OA
ATOM     15  C   UNL     1       1.580   8.662  19.171  0.00  0.00    +0.000 A 
ATOM     16  O   UNL     1       2.428   8.589  18.288  0.00  0.00    +0.000 OA
ENDBRANCH   4   6
BRANCH   1  17
ATOM     17  S   UNL     1       1.974   2.564  20.103  0.00  0.00    +0.000 S 
BRANCH  17  18
ATOM     18  C   UNL     1       1.853   2.214  18.334  0.00  0.00    +0.000 C 
BRANCH  18  20
ATOM     19  N   UNL     1       3.438   3.672  17.138  0.00  0.00    +0.000 N 
ATOM     20  C   UNL     1       3.215   2.401  17.668  0.00  0.00    +0.000 C 
ATOM     21  O   UNL     1       4.014   1.470  17.669  0.00  0.00    +0.000 OA
ATOM     22  H   UNL     1       2.691   4.348  17.235  0.00  0.00    +0.000 HD
BRANCH  19  26
ATOM     23  C   UNL     1       6.946   4.936  15.105  0.00  0.00    +0.000 A 
ATOM     24  C   UNL     1       5.833   4.521  14.385  0.00  0.00    +0.000 A 
ATOM     25  C   UNL     1       4.665   4.118  15.037  0.00  0.00    +0.000 A 
ATOM     26  C   UNL     1       4.589   4.097  16.431  0.00  0.00    +0.000 A 
ATOM     27  C   UNL     1       5.712   4.526  17.157  0.00  0.00    +0.000 A 
ATOM     28  C   UNL     1       6.884   4.938  16.498  0.00  0.00    +0.000 A 
BRANCH  23  30
ATOM     29  C   UNL     1       7.853   5.190  12.936  0.00  0.00    +0.000 C 
ATOM     30  O   UNL     1       8.031   5.272  14.344  0.00  0.00    +0.000 OA
ENDBRANCH  23  30
ENDBRANCH  19  26
ENDBRANCH  18  20
ENDBRANCH  17  18
ENDBRANCH   1  17
TORSDOF 6
ENDMDL
MODEL 9
REMARK VINA RESULT:      -7.9      2.718      3.687
REMARK  Name = 
REMARK  7 active torsions:
REMARK  status: ('A' for Active; 'I' for Inactive)
REMARK    1  A    between atoms: C_1  and  O_2
REMARK    2  A    between atoms: O_2  and  C_3
REMARK    3  A    between atoms: C_6  and  N_7
REMARK    4  A    between atoms: C_8  and  C_10
REMARK    5  A    between atoms: C_10  and  S_11
REMARK    6  A    between atoms: S_11  and  C_12
REMARK    7  A    between atoms: C_15  and  C_16
REMARK                            x       y       z     vdW  Elec       q    Type
REMARK                         _______ _______ _______ _____ _____    ______ ____
ROOT
ATOM      1  C   UNL     1       3.253   6.349  19.168  0.00  0.00    +0.000 A 
ATOM      2  N   UNL     1       3.880   5.343  19.729  0.00  0.00    +0.000 NA
ATOM      3  N   UNL     1       4.737   4.834  18.769  0.00  0.00    +0.000 NA
ATOM      4  C   UNL     1       4.595   5.555  17.657  0.00  0.00    +0.000 A 
ATOM      5  O   UNL     1       3.652   6.546  17.876  0.00  0.00    +0.000 OA
ENDROOT
BRANCH   4   6
ATOM      6  C   UNL     1       5.301   5.377  16.429  0.00  0.00    +0.000 A 
ATOM      7  C   UNL     1       4.878   4.473  15.528  0.00  0.00    +0.000 A 
ATOM      8  C   UNL     1       5.615   4.286  14.287  0.00  0.00    +0.000 A 
ATOM      9  C   UNL     1       5.098   3.577  13.202  0.00  0.00    +0.000 A 
ATOM     10  C   UNL     1       5.880   3.389  12.057  0.00  0.00    +0.000 A 
ATOM     11  C   UNL     1       7.190   3.872  12.009  0.00  0.00    +0.000 A 
ATOM     12  C   UNL     1       7.709   4.587  13.087  0.00  0.00    +0.000 A 
ATOM     13  C   UNL     1       6.899   4.814  14.197  0.00  0.00    +0.000 A 
ATOM     14  O   UNL     1       7.391   5.667  15.198  0.00  0.00    +0.000 OA
ATOM     15  C   UNL     1       6.500   6.201  16.127  0.00  0.00    +0.000 A 
ATOM     16  O   UNL     1       6.732   7.273  16.677  0.00  0.00    +0.000 OA
ENDBRANCH   4   6
BRANCH   1  17
ATOM     17  S   UNL     1       2.030   7.334  19.907  0.00  0.00    +0.000 S 
BRANCH  17  18
ATOM     18  C   UNL     1       1.787   8.637  18.678  0.00  0.00    +0.000 C 
BRANCH  18  20
ATOM     19  N   UNL     1       0.258   9.557  20.377  0.00  0.00    +0.000 N 
ATOM     20  C   UNL     1       1.130   9.854  19.329  0.00  0.00    +0.000 C 
ATOM     21  O   UNL     1       1.422  10.976  18.929  0.00  0.00    +0.000 OA
ATOM     22  H   UNL     1       0.135   8.581  20.610  0.00  0.00    +0.000 HD
BRANCH  19  26
ATOM     23  C   UNL     1      -2.107  12.373  22.503  0.00  0.00    +0.000 A 
ATOM     24  C   UNL     1      -1.406  11.389  23.190  0.00  0.00    +0.000 A 
ATOM     25  C   UNL     1      -0.611  10.465  22.507  0.00  0.00    +0.000 A 
ATOM     26  C   UNL     1      -0.514  10.487  21.115  0.00  0.00    +0.000 A 
ATOM     27  C   UNL     1      -1.215  11.488  20.423  0.00  0.00    +0.000 A 
ATOM     28  C   UNL     1      -2.009  12.421  21.112  0.00  0.00    +0.000 A 
BRANCH  23  30
ATOM     29  C   UNL     1      -4.095  12.637  23.754  0.00  0.00    +0.000 C 
ATOM     30  O   UNL     1      -2.871  13.189  23.288  0.00  0.00    +0.000 OA
ENDBRANCH  23  30
ENDBRANCH  19  26
ENDBRANCH  18  20
ENDBRANCH  17  18
ENDBRANCH   1  17
TORSDOF 6
ENDMDL
