MODEL 1
REMARK VINA RESULT:      -8.0      0.000      0.000
REMARK  Name = 
REMARK  9 active torsions:
REMARK  status: ('A' for Active; 'I' for Inactive)
REMARK    1  A    between atoms: C_1  and  O_2
REMARK    2  A    between atoms: O_2  and  C_3
REMARK    3  A    between atoms: C_6  and  C_7
REMARK    4  A    between atoms: N_12  and  C_13
REMARK    5  A    between atoms: C_17  and  C_18
REMARK    6  A    between atoms: C_19  and  C_20
REMARK    7  A    between atoms: C_24  and  S_25
REMARK    8  A    between atoms: S_25  and  N_28
REMARK    9  A    between atoms: N_28  and  C_29
REMARK                            x       y       z     vdW  Elec       q    Type
REMARK                         _______ _______ _______ _____ _____    ______ ____
ROOT
ATOM      1  C   UNL     1       2.838   4.713  20.112  0.00  0.00    +0.000 A 
ATOM      2  C   UNL     1       1.873   5.480  20.787  0.00  0.00    +0.000 A 
ATOM      3  C   UNL     1       1.498   6.743  20.315  0.00  0.00    +0.000 A 
ATOM      4  C   UNL     1       2.092   7.268  19.168  0.00  0.00    +0.000 A 
ATOM      5  C   UNL     1       3.069   6.519  18.516  0.00  0.00    +0.000 A 
ATOM      6  C   UNL     1       3.387   5.223  18.935  0.00  0.00    +0.000 A 
ENDROOT
BRANCH   4   7
ATOM      7  C   UNL     1       1.749   8.646  18.739  0.00  0.00    +0.000 C 
ATOM      8  O   UNL     1       1.803   8.881  17.533  0.00  0.00    +0.000 OA
ATOM      9  N   UNL     1       1.343   9.592  19.668  0.00  0.00    +0.000 N 
ATOM     10  C   UNL     1       0.694  10.820  19.193  0.00  0.00    +0.000 C 
ATOM     11  C   UNL     1      -0.689  11.007  19.854  0.00  0.00    +0.000 C 
ATOM     12  N   UNL     1      -0.568  10.901  21.329  0.00  0.00    +0.000 N 
ATOM     13  C   UNL     1       0.057   9.650  21.781  0.00  0.00    +0.000 C 
ATOM     14  C   UNL     1       1.458   9.534  21.139  0.00  0.00    +0.000 C 
BRANCH  12  15
ATOM     15  C   UNL     1      -1.092  11.877  22.160  0.00  0.00    +0.000 A 
ATOM     16  C   UNL     1      -2.256  11.572  22.899  0.00  0.00    +0.000 A 
ATOM     17  C   UNL     1      -2.917  12.507  23.691  0.00  0.00    +0.000 A 
ATOM     18  C   UNL     1      -2.421  13.796  23.781  0.00  0.00    +0.000 A 
ATOM     19  C   UNL     1      -1.253  14.155  23.099  0.00  0.00    +0.000 A 
ATOM     20  C   UNL     1      -0.772  15.577  23.229  0.00  0.00    +0.000 C 
ATOM     21  C   UNL     1      -0.574  13.197  22.289  0.00  0.00    +0.000 A 
ATOM     22  C   UNL     1       0.682  13.641  21.575  0.00  0.00    +0.000 C 
ENDBRANCH  12  15
ENDBRANCH   4   7
BRANCH   6  23
ATOM     23  S   UNL     1       4.422   4.272  17.853  0.00  0.00    +0.000 S 
ATOM     24  O   UNL     1       3.909   2.924  17.776  0.00  0.00    +0.000 OA
ATOM     25  O   UNL     1       4.617   5.047  16.637  0.00  0.00    +0.000 OA
BRANCH  23  26
ATOM     26  N   UNL     1       5.889   4.211  18.675  0.00  0.00    +0.000 NA
ATOM     27  H   UNL     1       6.487   3.479  18.290  0.00  0.00    +0.000 HD
BRANCH  26  28
ATOM     28  C   UNL     1       6.502   5.473  19.072  0.00  0.00    +0.000 C 
ATOM     29  C   UNL     1       7.966   5.506  19.406  0.00  0.00    +0.000 C 
ATOM     30  C   UNL     1       7.457   6.216  18.186  0.00  0.00    +0.000 C 
ENDBRANCH  26  28
ENDBRANCH  23  26
ENDBRANCH   6  23
BRANCH   1  32
ATOM     31  C   UNL     1       2.371   2.806  21.423  0.00  0.00    +0.000 C 
ATOM     32  O   UNL     1       3.280   3.505  20.575  0.00  0.00    +0.000 OA
ENDBRANCH   1  32
TORSDOF 6
ENDMDL
MODEL 2
REMARK VINA RESULT:      -7.9      1.345      1.982
REMARK  Name = 
REMARK  9 active torsions:
REMARK  status: ('A' for Active; 'I' for Inactive)
REMARK    1  A    between atoms: C_1  and  O_2
REMARK    2  A    between atoms: O_2  and  C_3
REMARK    3  A    between atoms: C_6  and  C_7
REMARK    4  A    between atoms: N_12  and  C_13
REMARK    5  A    between atoms: C_17  and  C_18
REMARK    6  A    between atoms: C_19  and  C_20
REMARK    7  A    between atoms: C_24  and  S_25
REMARK    8  A    between atoms: S_25  and  N_28
REMARK    9  A    between atoms: N_28  and  C_29
REMARK                            x       y       z     vdW  Elec       q    Type
REMARK                         _______ _______ _______ _____ _____    ______ ____
ROOT
ATOM      1  C   UNL     1       2.912   4.768  20.424  0.00  0.00    +0.000 A 
ATOM      2  C   UNL     1       1.714   5.386  20.819  0.00  0.00    +0.000 A 
ATOM      3  C   UNL     1       1.330   6.621  20.284  0.00  0.00    +0.000 A 
ATOM      4  C   UNL     1       2.145   7.267  19.356  0.00  0.00    +0.000 A 
ATOM      5  C   UNL     1       3.346   6.667  18.985  0.00  0.00    +0.000 A 
ATOM      6  C   UNL     1       3.694   5.395  19.453  0.00  0.00    +0.000 A 
ENDROOT
BRANCH   4   7
ATOM      7  C   UNL     1       1.766   8.617  18.873  0.00  0.00    +0.000 C 
ATOM      8  O   UNL     1       1.787   8.798  17.657  0.00  0.00    +0.000 OA
ATOM      9  N   UNL     1       1.364   9.597  19.767  0.00  0.00    +0.000 N 
ATOM     10  C   UNL     1       0.681  10.791  19.253  0.00  0.00    +0.000 C 
ATOM     11  C   UNL     1      -0.690  10.983  19.939  0.00  0.00    +0.000 C 
ATOM     12  N   UNL     1      -0.532  10.948  21.413  0.00  0.00    +0.000 N 
ATOM     13  C   UNL     1       0.127   9.730  21.906  0.00  0.00    +0.000 C 
ATOM     14  C   UNL     1       1.515   9.610  21.236  0.00  0.00    +0.000 C 
BRANCH  12  15
ATOM     15  C   UNL     1      -1.054  11.951  22.212  0.00  0.00    +0.000 A 
ATOM     16  C   UNL     1      -2.227  11.678  22.949  0.00  0.00    +0.000 A 
ATOM     17  C   UNL     1      -2.887  12.640  23.708  0.00  0.00    +0.000 A 
ATOM     18  C   UNL     1      -2.381  13.927  23.766  0.00  0.00    +0.000 A 
ATOM     19  C   UNL     1      -1.203  14.256  23.085  0.00  0.00    +0.000 A 
ATOM     20  C   UNL     1      -0.711  15.677  23.179  0.00  0.00    +0.000 C 
ATOM     21  C   UNL     1      -0.525  13.270  22.308  0.00  0.00    +0.000 A 
ATOM     22  C   UNL     1       0.740  13.682  21.593  0.00  0.00    +0.000 C 
ENDBRANCH  12  15
ENDBRANCH   4   7
BRANCH   6  23
ATOM     23  S   UNL     1       5.093   4.623  18.683  0.00  0.00    +0.000 S 
ATOM     24  O   UNL     1       5.233   5.136  17.340  0.00  0.00    +0.000 OA
ATOM     25  O   UNL     1       6.209   4.707  19.613  0.00  0.00    +0.000 OA
BRANCH  23  26
ATOM     26  N   UNL     1       4.629   3.010  18.566  0.00  0.00    +0.000 NA
ATOM     27  H   UNL     1       4.478   2.610  19.492  0.00  0.00    +0.000 HD
BRANCH  26  28
ATOM     28  C   UNL     1       3.716   2.639  17.491  0.00  0.00    +0.000 C 
ATOM     29  C   UNL     1       2.378   2.049  17.834  0.00  0.00    +0.000 C 
ATOM     30  C   UNL     1       2.461   3.407  17.202  0.00  0.00    +0.000 C 
ENDBRANCH  26  28
ENDBRANCH  23  26
ENDBRANCH   6  23
BRANCH   1  32
ATOM     31  C   UNL     1       2.340   2.749  21.506  0.00  0.00    +0.000 C 
ATOM     32  O   UNL     1       3.355   3.596  20.970  0.00  0.00    +0.000 OA
ENDBRANCH   1  32
TORSDOF 6
ENDMDL
MODEL 3
REMARK VINA RESULT:      -7.8      1.362      1.535
REMARK  Name = 
REMARK  9 active torsions:
REMARK  status: ('A' for Active; 'I' for Inactive)
REMARK    1  A    between atoms: C_1  and  O_2
REMARK    2  A    between atoms: O_2  and  C_3
REMARK    3  A    between atoms: C_6  and  C_7
REMARK    4  A    between atoms: N_12  and  C_13
REMARK    5  A    between atoms: C_17  and  C_18
REMARK    6  A    between atoms: C_19  and  C_20
REMARK    7  A    between atoms: C_24  and  S_25
REMARK    8  A    between atoms: S_25  and  N_28
REMARK    9  A    between atoms: N_28  and  C_29
REMARK                            x       y       z     vdW  Elec       q    Type
REMARK                         _______ _______ _______ _____ _____    ______ ____
ROOT
ATOM      1  C   UNL     1       2.634   4.465  20.440  0.00  0.00    +0.000 A 
ATOM      2  C   UNL     1       1.553   5.226  20.915  0.00  0.00    +0.000 A 
ATOM      3  C   UNL     1       1.278   6.493  20.389  0.00  0.00    +0.000 A 
ATOM      4  C   UNL     1       2.088   7.028  19.389  0.00  0.00    +0.000 A 
ATOM      5  C   UNL     1       3.176   6.285  18.938  0.00  0.00    +0.000 A 
ATOM      6  C   UNL     1       3.407   4.985  19.400  0.00  0.00    +0.000 A 
ENDROOT
BRANCH   4   7
ATOM      7  C   UNL     1       1.836   8.411  18.913  0.00  0.00    +0.000 C 
ATOM      8  O   UNL     1       1.948   8.610  17.705  0.00  0.00    +0.000 OA
ATOM      9  N   UNL     1       1.447   9.401  19.801  0.00  0.00    +0.000 N 
ATOM     10  C   UNL     1       0.883  10.648  19.271  0.00  0.00    +0.000 C 
ATOM     11  C   UNL     1      -0.513  10.926  19.874  0.00  0.00    +0.000 C 
ATOM     12  N   UNL     1      -0.452  10.854  21.354  0.00  0.00    +0.000 N 
ATOM     13  C   UNL     1       0.087   9.584  21.860  0.00  0.00    +0.000 C 
ATOM     14  C   UNL     1       1.503   9.377  21.277  0.00  0.00    +0.000 C 
BRANCH  12  15
ATOM     15  C   UNL     1      -0.954  11.878  22.140  0.00  0.00    +0.000 A 
ATOM     16  C   UNL     1      -2.110  11.625  22.909  0.00  0.00    +0.000 A 
ATOM     17  C   UNL     1      -2.750  12.608  23.660  0.00  0.00    +0.000 A 
ATOM     18  C   UNL     1      -2.240  13.895  23.675  0.00  0.00    +0.000 A 
ATOM     19  C   UNL     1      -1.077  14.203  22.959  0.00  0.00    +0.000 A 
ATOM     20  C   UNL     1      -0.580  15.625  23.007  0.00  0.00    +0.000 C 
ATOM     21  C   UNL     1      -0.420  13.197  22.192  0.00  0.00    +0.000 A 
ATOM     22  C   UNL     1       0.830  13.588  21.438  0.00  0.00    +0.000 C 
ENDBRANCH  12  15
ENDBRANCH   4   7
BRANCH   6  23
ATOM     23  S   UNL     1       4.638   4.044  18.539  0.00  0.00    +0.000 S 
ATOM     24  O   UNL     1       5.771   3.841  19.411  0.00  0.00    +0.000 OA
ATOM     25  O   UNL     1       3.974   2.900  17.933  0.00  0.00    +0.000 OA
BRANCH  23  26
ATOM     26  N   UNL     1       5.125   5.079  17.305  0.00  0.00    +0.000 NA
ATOM     27  H   UNL     1       5.940   5.623  17.592  0.00  0.00    +0.000 HD
BRANCH  26  28
ATOM     28  C   UNL     1       5.068   4.583  15.935  0.00  0.00    +0.000 C 
ATOM     29  C   UNL     1       5.951   5.205  14.891  0.00  0.00    +0.000 C 
ATOM     30  C   UNL     1       6.180   3.786  15.322  0.00  0.00    +0.000 C 
ENDBRANCH  26  28
ENDBRANCH  23  26
ENDBRANCH   6  23
BRANCH   1  32
ATOM     31  C   UNL     1       1.930   2.569  21.658  0.00  0.00    +0.000 C 
ATOM     32  O   UNL     1       2.976   3.252  20.971  0.00  0.00    +0.000 OA
ENDBRANCH   1  32
TORSDOF 6
ENDMDL
MODEL 4
REMARK VINA RESULT:      -7.7      1.086      1.496
REMARK  Name = 
REMARK  9 active torsions:
REMARK  status: ('A' for Active; 'I' for Inactive)
REMARK    1  A    between atoms: C_1  and  O_2
REMARK    2  A    between atoms: O_2  and  C_3
REMARK    3  A    between atoms: C_6  and  C_7
REMARK    4  A    between atoms: N_12  and  C_13
REMARK    5  A    between atoms: C_17  and  C_18
REMARK    6  A    between atoms: C_19  and  C_20
REMARK    7  A    between atoms: C_24  and  S_25
REMARK    8  A    between atoms: S_25  and  N_28
REMARK    9  A    between atoms: N_28  and  C_29
REMARK                            x       y       z     vdW  Elec       q    Type
REMARK                         _______ _______ _______ _____ _____    ______ ____
ROOT
ATOM      1  C   UNL     1       2.922   4.872  19.894  0.00  0.00    +0.000 A 
ATOM      2  C   UNL     1       1.982   5.696  20.535  0.00  0.00    +0.000 A 
ATOM      3  C   UNL     1       1.657   6.956  20.020  0.00  0.00    +0.000 A 
ATOM      4  C   UNL     1       2.279   7.420  18.862  0.00  0.00    +0.000 A 
ATOM      5  C   UNL     1       3.231   6.614  18.242  0.00  0.00    +0.000 A 
ATOM      6  C   UNL     1       3.498   5.322  18.705  0.00  0.00    +0.000 A 
ENDROOT
BRANCH   4   7
ATOM      7  C   UNL     1       1.991   8.795  18.385  0.00  0.00    +0.000 C 
ATOM      8  O   UNL     1       2.253   9.042  17.210  0.00  0.00    +0.000 OA
ATOM      9  N   UNL     1       1.408   9.726  19.232  0.00  0.00    +0.000 N 
ATOM     10  C   UNL     1       0.830  10.946  18.655  0.00  0.00    +0.000 C 
ATOM     11  C   UNL     1      -0.652  11.102  19.062  0.00  0.00    +0.000 C 
ATOM     12  N   UNL     1      -0.792  10.987  20.534  0.00  0.00    +0.000 N 
ATOM     13  C   UNL     1      -0.233   9.744  21.083  0.00  0.00    +0.000 C 
ATOM     14  C   UNL     1       1.262   9.658  20.700  0.00  0.00    +0.000 C 
BRANCH  12  15
ATOM     15  C   UNL     1      -1.474  11.946  21.264  0.00  0.00    +0.000 A 
ATOM     16  C   UNL     1      -0.928  12.359  22.499  0.00  0.00    +0.000 A 
ATOM     17  C   UNL     1      -1.576  13.246  23.355  0.00  0.00    +0.000 A 
ATOM     18  C   UNL     1      -2.807  13.766  22.993  0.00  0.00    +0.000 A 
ATOM     19  C   UNL     1      -3.388  13.421  21.767  0.00  0.00    +0.000 A 
ATOM     20  C   UNL     1      -4.734  14.013  21.437  0.00  0.00    +0.000 C 
ATOM     21  C   UNL     1      -2.724  12.515  20.889  0.00  0.00    +0.000 A 
ATOM     22  C   UNL     1      -3.399  12.178  19.579  0.00  0.00    +0.000 C 
ENDBRANCH  12  15
ENDBRANCH   4   7
BRANCH   6  23
ATOM     23  S   UNL     1       4.504   4.298  17.663  0.00  0.00    +0.000 S 
ATOM     24  O   UNL     1       3.924   2.977  17.601  0.00  0.00    +0.000 OA
ATOM     25  O   UNL     1       4.762   5.037  16.437  0.00  0.00    +0.000 OA
BRANCH  23  26
ATOM     26  N   UNL     1       5.949   4.179  18.517  0.00  0.00    +0.000 NA
ATOM     27  H   UNL     1       6.575   3.505  18.073  0.00  0.00    +0.000 HD
BRANCH  26  28
ATOM     28  C   UNL     1       6.522   5.404  19.064  0.00  0.00    +0.000 C 
ATOM     29  C   UNL     1       7.986   5.446  19.396  0.00  0.00    +0.000 C 
ATOM     30  C   UNL     1       7.446   6.282  18.273  0.00  0.00    +0.000 C 
ENDBRANCH  26  28
ENDBRANCH  23  26
ENDBRANCH   6  23
BRANCH   1  32
ATOM     31  C   UNL     1       2.256   2.783  20.770  0.00  0.00    +0.000 C 
ATOM     32  O   UNL     1       3.315   3.664  20.399  0.00  0.00    +0.000 OA
ENDBRANCH   1  32
TORSDOF 6
ENDMDL
MODEL 5
REMARK VINA RESULT:      -7.7      2.523      4.173
REMARK  Name = 
REMARK  9 active torsions:
REMARK  status: ('A' for Active; 'I' for Inactive)
REMARK    1  A    between atoms: C_1  and  O_2
REMARK    2  A    between atoms: O_2  and  C_3
REMARK    3  A    between atoms: C_6  and  C_7
REMARK    4  A    between atoms: N_12  and  C_13
REMARK    5  A    between atoms: C_17  and  C_18
REMARK    6  A    between atoms: C_19  and  C_20
REMARK    7  A    between atoms: C_24  and  S_25
REMARK    8  A    between atoms: S_25  and  N_28
REMARK    9  A    between atoms: N_28  and  C_29
REMARK                            x       y       z     vdW  Elec       q    Type
REMARK                         _______ _______ _______ _____ _____    ______ ____
ROOT
ATOM      1  C   UNL     1       4.112   6.025  17.249  0.00  0.00    +0.000 A 
ATOM      2  C   UNL     1       3.746   7.360  17.008  0.00  0.00    +0.000 A 
ATOM      3  C   UNL     1       2.949   8.064  17.918  0.00  0.00    +0.000 A 
ATOM      4  C   UNL     1       2.490   7.440  19.077  0.00  0.00    +0.000 A 
ATOM      5  C   UNL     1       2.830   6.108  19.301  0.00  0.00    +0.000 A 
ATOM      6  C   UNL     1       3.694   5.426  18.439  0.00  0.00    +0.000 A 
ENDROOT
BRANCH   4   7
ATOM      7  C   UNL     1       1.569   8.173  19.979  0.00  0.00    +0.000 C 
ATOM      8  O   UNL     1       1.263   7.616  21.032  0.00  0.00    +0.000 OA
ATOM      9  N   UNL     1       1.127   9.446  19.652  0.00  0.00    +0.000 N 
ATOM     10  C   UNL     1       0.507  10.272  20.694  0.00  0.00    +0.000 C 
ATOM     11  C   UNL     1       1.237  11.626  20.836  0.00  0.00    +0.000 C 
ATOM     12  N   UNL     1       1.353  12.284  19.512  0.00  0.00    +0.000 N 
ATOM     13  C   UNL     1       2.005  11.449  18.494  0.00  0.00    +0.000 C 
ATOM     14  C   UNL     1       1.209  10.132  18.347  0.00  0.00    +0.000 C 
BRANCH  12  15
ATOM     15  C   UNL     1       0.951  13.596  19.329  0.00  0.00    +0.000 A 
ATOM     16  C   UNL     1      -0.396  13.926  19.591  0.00  0.00    +0.000 A 
ATOM     17  C   UNL     1      -0.927  15.191  19.351  0.00  0.00    +0.000 A 
ATOM     18  C   UNL     1      -0.112  16.188  18.844  0.00  0.00    +0.000 A 
ATOM     19  C   UNL     1       1.242  15.935  18.593  0.00  0.00    +0.000 A 
ATOM     20  C   UNL     1       2.073  17.059  18.030  0.00  0.00    +0.000 C 
ATOM     21  C   UNL     1       1.787  14.641  18.840  0.00  0.00    +0.000 A 
ATOM     22  C   UNL     1       3.255  14.425  18.549  0.00  0.00    +0.000 C 
ENDBRANCH  12  15
ENDBRANCH   4   7
BRANCH   6  23
ATOM     23  S   UNL     1       4.279   3.845  18.989  0.00  0.00    +0.000 S 
ATOM     24  O   UNL     1       3.834   2.830  18.062  0.00  0.00    +0.000 OA
ATOM     25  O   UNL     1       5.696   3.980  19.293  0.00  0.00    +0.000 OA
BRANCH  23  26
ATOM     26  N   UNL     1       3.453   3.608  20.436  0.00  0.00    +0.000 NA
ATOM     27  H   UNL     1       3.331   4.493  20.930  0.00  0.00    +0.000 HD
BRANCH  26  28
ATOM     28  C   UNL     1       2.355   2.649  20.446  0.00  0.00    +0.000 C 
ATOM     29  C   UNL     1       1.337   2.709  21.548  0.00  0.00    +0.000 C 
ATOM     30  C   UNL     1       0.941   3.043  20.140  0.00  0.00    +0.000 C 
ENDBRANCH  26  28
ENDBRANCH  23  26
ENDBRANCH   6  23
BRANCH   1  32
ATOM     31  C   UNL     1       6.191   5.685  16.182  0.00  0.00    +0.000 C 
ATOM     32  O   UNL     1       4.834   5.282  16.357  0.00  0.00    +0.000 OA
ENDBRANCH   1  32
TORSDOF 6
ENDMDL
MODEL 6
REMARK VINA RESULT:      -7.7      1.724      2.133
REMARK  Name = 
REMARK  9 active torsions:
REMARK  status: ('A' for Active; 'I' for Inactive)
REMARK    1  A    between atoms: C_1  and  O_2
REMARK    2  A    between atoms: O_2  and  C_3
REMARK    3  A    between atoms: C_6  and  C_7
REMARK    4  A    between atoms: N_12  and  C_13
REMARK    5  A    between atoms: C_17  and  C_18
REMARK    6  A    between atoms: C_19  and  C_20
REMARK    7  A    between atoms: C_24  and  S_25
REMARK    8  A    between atoms: S_25  and  N_28
REMARK    9  A    between atoms: N_28  and  C_29
REMARK                            x       y       z     vdW  Elec       q    Type
REMARK                         _______ _______ _______ _____ _____    ______ ____
ROOT
ATOM      1  C   UNL     1       2.685   4.507  20.228  0.00  0.00    +0.000 A 
ATOM      2  C   UNL     1       1.655   5.355  20.669  0.00  0.00    +0.000 A 
ATOM      3  C   UNL     1       1.454   6.610  20.084  0.00  0.00    +0.000 A 
ATOM      4  C   UNL     1       2.291   7.047  19.058  0.00  0.00    +0.000 A 
ATOM      5  C   UNL     1       3.329   6.218  18.640  0.00  0.00    +0.000 A 
ATOM      6  C   UNL     1       3.483   4.930  19.163  0.00  0.00    +0.000 A 
ENDROOT
BRANCH   4   7
ATOM      7  C   UNL     1       2.120   8.418  18.517  0.00  0.00    +0.000 C 
ATOM      8  O   UNL     1       2.456   8.598  17.348  0.00  0.00    +0.000 OA
ATOM      9  N   UNL     1       1.562   9.418  19.297  0.00  0.00    +0.000 N 
ATOM     10  C   UNL     1       1.097  10.649  18.647  0.00  0.00    +0.000 C 
ATOM     11  C   UNL     1      -0.390  10.919  18.971  0.00  0.00    +0.000 C 
ATOM     12  N   UNL     1      -0.608  10.873  20.437  0.00  0.00    +0.000 N 
ATOM     13  C   UNL     1      -0.163   9.619  21.060  0.00  0.00    +0.000 C 
ATOM     14  C   UNL     1       1.340   9.419  20.757  0.00  0.00    +0.000 C 
BRANCH  12  15
ATOM     15  C   UNL     1      -1.258  11.904  21.096  0.00  0.00    +0.000 A 
ATOM     16  C   UNL     1      -0.732  12.346  22.330  0.00  0.00    +0.000 A 
ATOM     17  C   UNL     1      -1.357  13.309  23.118  0.00  0.00    +0.000 A 
ATOM     18  C   UNL     1      -2.542  13.879  22.686  0.00  0.00    +0.000 A 
ATOM     19  C   UNL     1      -3.099  13.508  21.457  0.00  0.00    +0.000 A 
ATOM     20  C   UNL     1      -4.397  14.158  21.050  0.00  0.00    +0.000 C 
ATOM     21  C   UNL     1      -2.459  12.523  20.648  0.00  0.00    +0.000 A 
ATOM     22  C   UNL     1      -3.107  12.162  19.331  0.00  0.00    +0.000 C 
ENDBRANCH  12  15
ENDBRANCH   4   7
BRANCH   6  23
ATOM     23  S   UNL     1       4.651   3.876  18.345  0.00  0.00    +0.000 S 
ATOM     24  O   UNL     1       5.834   3.758  19.166  0.00  0.00    +0.000 OA
ATOM     25  O   UNL     1       3.940   2.680  17.918  0.00  0.00    +0.000 OA
BRANCH  23  26
ATOM     26  N   UNL     1       5.070   4.754  16.972  0.00  0.00    +0.000 NA
ATOM     27  H   UNL     1       5.316   5.713  17.219  0.00  0.00    +0.000 HD
BRANCH  26  28
ATOM     28  C   UNL     1       5.852   4.079  15.943  0.00  0.00    +0.000 C 
ATOM     29  C   UNL     1       5.654   4.456  14.503  0.00  0.00    +0.000 C 
ATOM     30  C   UNL     1       6.952   4.766  15.189  0.00  0.00    +0.000 C 
ENDBRANCH  26  28
ENDBRANCH  23  26
ENDBRANCH   6  23
BRANCH   1  32
ATOM     31  C   UNL     1       1.908   2.767  21.622  0.00  0.00    +0.000 C 
ATOM     32  O   UNL     1       2.956   3.303  20.815  0.00  0.00    +0.000 OA
ENDBRANCH   1  32
TORSDOF 6
ENDMDL
MODEL 7
REMARK VINA RESULT:      -7.5      2.413      4.264
REMARK  Name = 
REMARK  9 active torsions:
REMARK  status: ('A' for Active; 'I' for Inactive)
REMARK    1  A    between atoms: C_1  and  O_2
REMARK    2  A    between atoms: O_2  and  C_3
REMARK    3  A    between atoms: C_6  and  C_7
REMARK    4  A    between atoms: N_12  and  C_13
REMARK    5  A    between atoms: C_17  and  C_18
REMARK    6  A    between atoms: C_19  and  C_20
REMARK    7  A    between atoms: C_24  and  S_25
REMARK    8  A    between atoms: S_25  and  N_28
REMARK    9  A    between atoms: N_28  and  C_29
REMARK                            x       y       z     vdW  Elec       q    Type
REMARK                         _______ _______ _______ _____ _____    ______ ____
ROOT
ATOM      1  C   UNL     1       5.593   4.110  16.766  0.00  0.00    +0.000 A 
ATOM      2  C   UNL     1       4.213   3.983  16.529  0.00  0.00    +0.000 A 
ATOM      3  C   UNL     1       3.278   4.356  17.500  0.00  0.00    +0.000 A 
ATOM      4  C   UNL     1       3.705   4.848  18.732  0.00  0.00    +0.000 A 
ATOM      5  C   UNL     1       5.073   4.948  18.978  0.00  0.00    +0.000 A 
ATOM      6  C   UNL     1       6.010   4.655  17.981  0.00  0.00    +0.000 A 
ENDROOT
BRANCH   4   7
ATOM      7  C   UNL     1       2.700   5.149  19.782  0.00  0.00    +0.000 C 
ATOM      8  O   UNL     1       2.660   4.386  20.746  0.00  0.00    +0.000 OA
ATOM      9  N   UNL     1       1.891   6.269  19.681  0.00  0.00    +0.000 N 
ATOM     10  C   UNL     1       1.159   6.726  20.869  0.00  0.00    +0.000 C 
ATOM     11  C   UNL     1       1.489   8.201  21.190  0.00  0.00    +0.000 C 
ATOM     12  N   UNL     1       1.296   9.041  19.983  0.00  0.00    +0.000 N 
ATOM     13  C   UNL     1       2.062   8.581  18.816  0.00  0.00    +0.000 C 
ATOM     14  C   UNL     1       1.658   7.123  18.499  0.00  0.00    +0.000 C 
BRANCH  12  15
ATOM     15  C   UNL     1       0.526  10.191  20.029  0.00  0.00    +0.000 A 
ATOM     16  C   UNL     1       0.733  11.092  21.096  0.00  0.00    +0.000 A 
ATOM     17  C   UNL     1      -0.047  12.230  21.290  0.00  0.00    +0.000 A 
ATOM     18  C   UNL     1      -1.070  12.513  20.403  0.00  0.00    +0.000 A 
ATOM     19  C   UNL     1      -1.308  11.677  19.306  0.00  0.00    +0.000 A 
ATOM     20  C   UNL     1      -2.445  12.035  18.383  0.00  0.00    +0.000 C 
ATOM     21  C   UNL     1      -0.508  10.514  19.104  0.00  0.00    +0.000 A 
ATOM     22  C   UNL     1      -0.811   9.647  17.904  0.00  0.00    +0.000 C 
ENDBRANCH  12  15
ENDBRANCH   4   7
BRANCH   6  23
ATOM     23  S   UNL     1       7.692   5.101  18.320  0.00  0.00    +0.000 S 
ATOM     24  O   UNL     1       7.814   5.454  19.716  0.00  0.00    +0.000 OA
ATOM     25  O   UNL     1       8.545   4.065  17.756  0.00  0.00    +0.000 OA
BRANCH  23  26
ATOM     26  N   UNL     1       7.910   6.506  17.420  0.00  0.00    +0.000 NA
ATOM     27  H   UNL     1       7.653   6.352  16.444  0.00  0.00    +0.000 HD
BRANCH  26  28
ATOM     28  C   UNL     1       7.555   7.776  18.041  0.00  0.00    +0.000 C 
ATOM     29  C   UNL     1       8.641   8.649  18.602  0.00  0.00    +0.000 C 
ATOM     30  C   UNL     1       7.861   9.097  17.400  0.00  0.00    +0.000 C 
ENDBRANCH  26  28
ENDBRANCH  23  26
ENDBRANCH   6  23
BRANCH   1  32
ATOM     31  C   UNL     1       6.570   4.413  14.638  0.00  0.00    +0.000 C 
ATOM     32  O   UNL     1       6.539   3.696  15.871  0.00  0.00    +0.000 OA
ENDBRANCH   1  32
TORSDOF 6
ENDMDL
MODEL 8
REMARK VINA RESULT:      -7.5      1.006      1.080
REMARK  Name = 
REMARK  9 active torsions:
REMARK  status: ('A' for Active; 'I' for Inactive)
REMARK    1  A    between atoms: C_1  and  O_2
REMARK    2  A    between atoms: O_2  and  C_3
REMARK    3  A    between atoms: C_6  and  C_7
REMARK    4  A    between atoms: N_12  and  C_13
REMARK    5  A    between atoms: C_17  and  C_18
REMARK    6  A    between atoms: C_19  and  C_20
REMARK    7  A    between atoms: C_24  and  S_25
REMARK    8  A    between atoms: S_25  and  N_28
REMARK    9  A    between atoms: N_28  and  C_29
REMARK                            x       y       z     vdW  Elec       q    Type
REMARK                         _______ _______ _______ _____ _____    ______ ____
ROOT
ATOM      1  C   UNL     1       2.518   5.666  20.102  0.00  0.00    +0.000 A 
ATOM      2  C   UNL     1       1.580   6.366  20.879  0.00  0.00    +0.000 A 
ATOM      3  C   UNL     1       1.129   7.634  20.495  0.00  0.00    +0.000 A 
ATOM      4  C   UNL     1       1.621   8.231  19.335  0.00  0.00    +0.000 A 
ATOM      5  C   UNL     1       2.571   7.549  18.580  0.00  0.00    +0.000 A 
ATOM      6  C   UNL     1       2.962   6.248  18.913  0.00  0.00    +0.000 A 
ENDROOT
BRANCH   4   7
ATOM      7  C   UNL     1       1.202   9.614  18.998  0.00  0.00    +0.000 C 
ATOM      8  O   UNL     1       1.214   9.922  17.807  0.00  0.00    +0.000 OA
ATOM      9  N   UNL     1       0.774  10.482  19.990  0.00  0.00    +0.000 N 
ATOM     10  C   UNL     1       0.056  11.703  19.605  0.00  0.00    +0.000 C 
ATOM     11  C   UNL     1      -1.318  11.782  20.307  0.00  0.00    +0.000 C 
ATOM     12  N   UNL     1      -1.154  11.596  21.769  0.00  0.00    +0.000 N 
ATOM     13  C   UNL     1      -0.459  10.353  22.131  0.00  0.00    +0.000 C 
ATOM     14  C   UNL     1       0.929  10.344  21.452  0.00  0.00    +0.000 C 
BRANCH  12  15
ATOM     15  C   UNL     1      -1.703  12.494  22.669  0.00  0.00    +0.000 A 
ATOM     16  C   UNL     1      -2.897  12.134  23.331  0.00  0.00    +0.000 A 
ATOM     17  C   UNL     1      -3.581  12.996  24.183  0.00  0.00    +0.000 A 
ATOM     18  C   UNL     1      -3.081  14.266  24.414  0.00  0.00    +0.000 A 
ATOM     19  C   UNL     1      -1.884  14.674  23.814  0.00  0.00    +0.000 A 
ATOM     20  C   UNL     1      -1.399  16.073  24.097  0.00  0.00    +0.000 C 
ATOM     21  C   UNL     1      -1.181  13.791  22.943  0.00  0.00    +0.000 A 
ATOM     22  C   UNL     1       0.105  14.286  22.322  0.00  0.00    +0.000 C 
ENDBRANCH  12  15
ENDBRANCH   4   7
BRANCH   6  23
ATOM     23  S   UNL     1       3.947   5.385  17.717  0.00  0.00    +0.000 S 
ATOM     24  O   UNL     1       3.257   4.179  17.321  0.00  0.00    +0.000 OA
ATOM     25  O   UNL     1       4.362   6.350  16.710  0.00  0.00    +0.000 OA
BRANCH  23  26
ATOM     26  N   UNL     1       5.308   4.927  18.594  0.00  0.00    +0.000 NA
ATOM     27  H   UNL     1       5.309   3.919  18.757  0.00  0.00    +0.000 HD
BRANCH  26  28
ATOM     28  C   UNL     1       6.573   5.581  18.282  0.00  0.00    +0.000 C 
ATOM     29  C   UNL     1       7.712   5.483  19.256  0.00  0.00    +0.000 C 
ATOM     30  C   UNL     1       7.808   4.811  17.918  0.00  0.00    +0.000 C 
ENDBRANCH  26  28
ENDBRANCH  23  26
ENDBRANCH   6  23
BRANCH   1  32
ATOM     31  C   UNL     1       2.068   3.451  20.786  0.00  0.00    +0.000 C 
ATOM     32  O   UNL     1       3.032   4.455  20.474  0.00  0.00    +0.000 OA
ENDBRANCH   1  32
TORSDOF 6
ENDMDL
MODEL 9
REMARK VINA RESULT:      -7.4      1.711      1.906
REMARK  Name = 
REMARK  9 active torsions:
REMARK  status: ('A' for Active; 'I' for Inactive)
REMARK    1  A    between atoms: C_1  and  O_2
REMARK    2  A    between atoms: O_2  and  C_3
REMARK    3  A    between atoms: C_6  and  C_7
REMARK    4  A    between atoms: N_12  and  C_13
REMARK    5  A    between atoms: C_17  and  C_18
REMARK    6  A    between atoms: C_19  and  C_20
REMARK    7  A    between atoms: C_24  and  S_25
REMARK    8  A    between atoms: S_25  and  N_28
REMARK    9  A    between atoms: N_28  and  C_29
REMARK                            x       y       z     vdW  Elec       q    Type
REMARK                         _______ _______ _______ _____ _____    ______ ____
ROOT
ATOM      1  C   UNL     1       2.584   4.686  20.408  0.00  0.00    +0.000 A 
ATOM      2  C   UNL     1       1.620   5.620  20.825  0.00  0.00    +0.000 A 
ATOM      3  C   UNL     1       1.451   6.833  20.148  0.00  0.00    +0.000 A 
ATOM      4  C   UNL     1       2.254   7.140  19.051  0.00  0.00    +0.000 A 
ATOM      5  C   UNL     1       3.228   6.227  18.654  0.00  0.00    +0.000 A 
ATOM      6  C   UNL     1       3.345   4.979  19.275  0.00  0.00    +0.000 A 
ENDROOT
BRANCH   4   7
ATOM      7  C   UNL     1       2.123   8.470  18.406  0.00  0.00    +0.000 C 
ATOM      8  O   UNL     1       2.581   8.584  17.271  0.00  0.00    +0.000 OA
ATOM      9  N   UNL     1       1.468   9.505  19.055  0.00  0.00    +0.000 N 
ATOM     10  C   UNL     1       1.057  10.683  18.280  0.00  0.00    +0.000 C 
ATOM     11  C   UNL     1      -0.459  10.940  18.424  0.00  0.00    +0.000 C 
ATOM     12  N   UNL     1      -0.835  10.981  19.857  0.00  0.00    +0.000 N 
ATOM     13  C   UNL     1      -0.441   9.779  20.605  0.00  0.00    +0.000 C 
ATOM     14  C   UNL     1       1.088   9.594  20.479  0.00  0.00    +0.000 C 
BRANCH  12  15
ATOM     15  C   UNL     1      -1.568  12.037  20.373  0.00  0.00    +0.000 A 
ATOM     16  C   UNL     1      -2.958  12.072  20.125  0.00  0.00    +0.000 A 
ATOM     17  C   UNL     1      -3.771  13.132  20.517  0.00  0.00    +0.000 A 
ATOM     18  C   UNL     1      -3.215  14.205  21.190  0.00  0.00    +0.000 A 
ATOM     19  C   UNL     1      -1.849  14.218  21.495  0.00  0.00    +0.000 A 
ATOM     20  C   UNL     1      -1.303  15.422  22.220  0.00  0.00    +0.000 C 
ATOM     21  C   UNL     1      -1.015  13.132  21.097  0.00  0.00    +0.000 A 
ATOM     22  C   UNL     1       0.452  13.201  21.453  0.00  0.00    +0.000 C 
ENDBRANCH  12  15
ENDBRANCH   4   7
BRANCH   6  23
ATOM     23  S   UNL     1       4.416   3.802  18.492  0.00  0.00    +0.000 S 
ATOM     24  O   UNL     1       5.583   3.605  19.320  0.00  0.00    +0.000 OA
ATOM     25  O   UNL     1       3.603   2.661  18.099  0.00  0.00    +0.000 OA
BRANCH  23  26
ATOM     26  N   UNL     1       4.912   4.598  17.095  0.00  0.00    +0.000 NA
ATOM     27  H   UNL     1       4.905   5.609  17.234  0.00  0.00    +0.000 HD
BRANCH  26  28
ATOM     28  C   UNL     1       6.002   4.010  16.325  0.00  0.00    +0.000 C 
ATOM     29  C   UNL     1       5.924   4.007  14.825  0.00  0.00    +0.000 C 
ATOM     30  C   UNL     1       6.958   4.841  15.522  0.00  0.00    +0.000 C 
ENDBRANCH  26  28
ENDBRANCH  23  26
ENDBRANCH   6  23
BRANCH   1  32
ATOM     31  C   UNL     1       1.686   2.688  21.289  0.00  0.00    +0.000 C 
ATOM     32  O   UNL     1       2.826   3.521  21.080  0.00  0.00    +0.000 OA
ENDBRANCH   1  32
TORSDOF 6
ENDMDL
