MODEL 1
REMARK VINA RESULT:      -6.5      0.000      0.000
REMARK  Name = 
REMARK  4 active torsions:
REMARK  status: ('A' for Active; 'I' for Inactive)
REMARK    1  A    between atoms: C_1  and  C_2
REMARK    2  A    between atoms: C_2  and  N_3
REMARK    3  A    between atoms: C_2  and  C_12
REMARK    4  A    between atoms: C_4  and  C_6
REMARK                            x       y       z     vdW  Elec       q    Type
REMARK                         _______ _______ _______ _____ _____    ______ ____
ROOT
ATOM      1  N   UNL     1       4.992   4.805  16.738  0.00  0.00    +0.000 N 
ATOM      2  C   UNL     1       3.981   5.518  17.343  0.00  0.00    +0.000 C 
ATOM      3  O   UNL     1       3.878   6.735  17.205  0.00  0.00    +0.000 OA
ATOM      4  H   UNL     1       4.976   3.795  16.796  0.00  0.00    +0.000 HD
ENDROOT
BRANCH   2   5
ATOM      5  C   UNL     1       3.048   4.742  18.156  0.00  0.00    +0.000 A 
ATOM      6  C   UNL     1       1.833   4.214  17.750  0.00  0.00    +0.000 A 
ATOM      7  C   UNL     1       1.165   3.501  18.790  0.00  0.00    +0.000 A 
ATOM      8  C   UNL     1       1.901   3.519  19.948  0.00  0.00    +0.000 A 
ATOM      9 BR   UNL     1       1.356   2.683  21.533  0.00  0.00    +0.000 Br
ATOM     10  S   UNL     1       3.355   4.372  19.805  0.00  0.00    +0.000 S 
ENDBRANCH   2   5
BRANCH   1  12
ATOM     11  C   UNL     1       6.271   4.409  14.696  0.00  0.00    +0.000 C 
ATOM     12  C   UNL     1       5.959   5.405  15.817  0.00  0.00    +0.000 C 
BRANCH  12  13
ATOM     13  C   UNL     1       7.211   5.854  16.600  0.00  0.00    +0.000 C 
ATOM     14  C   UNL     1       7.271   5.368  18.041  0.00  0.00    +0.000 C 
ATOM     15  C   UNL     1       8.127   6.419  18.699  0.00  0.00    +0.000 C 
ATOM     16  C   UNL     1       7.716   7.679  17.969  0.00  0.00    +0.000 C 
ATOM     17  O   UNL     1       7.304   7.294  16.650  0.00  0.00    +0.000 OA
ENDBRANCH  12  13
ENDBRANCH   1  12
TORSDOF 3
ENDMDL
MODEL 2
REMARK VINA RESULT:      -6.5      3.349      6.094
REMARK  Name = 
REMARK  4 active torsions:
REMARK  status: ('A' for Active; 'I' for Inactive)
REMARK    1  A    between atoms: C_1  and  C_2
REMARK    2  A    between atoms: C_2  and  N_3
REMARK    3  A    between atoms: C_2  and  C_12
REMARK    4  A    between atoms: C_4  and  C_6
REMARK                            x       y       z     vdW  Elec       q    Type
REMARK                         _______ _______ _______ _____ _____    ______ ____
ROOT
ATOM      1  N   UNL     1       3.783   4.326  18.246  0.00  0.00    +0.000 N 
ATOM      2  C   UNL     1       4.891   4.329  17.428  0.00  0.00    +0.000 C 
ATOM      3  O   UNL     1       4.991   3.556  16.477  0.00  0.00    +0.000 OA
ATOM      4  H   UNL     1       3.699   5.047  18.951  0.00  0.00    +0.000 HD
ENDROOT
BRANCH   2   5
ATOM      5  C   UNL     1       5.931   5.297  17.762  0.00  0.00    +0.000 A 
ATOM      6  C   UNL     1       7.014   5.096  18.603  0.00  0.00    +0.000 A 
ATOM      7  C   UNL     1       7.850   6.248  18.712  0.00  0.00    +0.000 A 
ATOM      8  C   UNL     1       7.365   7.280  17.950  0.00  0.00    +0.000 A 
ATOM      9 BR   UNL     1       8.194   8.955  17.829  0.00  0.00    +0.000 Br
ATOM     10  S   UNL     1       5.940   6.893  17.125  0.00  0.00    +0.000 S 
ENDBRANCH   2   5
BRANCH   1  12
ATOM     11  C   UNL     1       1.438   4.374  17.568  0.00  0.00    +0.000 C 
ATOM     12  C   UNL     1       2.608   3.487  18.005  0.00  0.00    +0.000 C 
BRANCH  12  13
ATOM     13  C   UNL     1       2.300   2.651  19.266  0.00  0.00    +0.000 C 
ATOM     14  C   UNL     1       1.014   3.031  19.986  0.00  0.00    +0.000 C 
ATOM     15  C   UNL     1       1.298   2.598  21.401  0.00  0.00    +0.000 C 
ATOM     16  C   UNL     1       2.777   2.889  21.541  0.00  0.00    +0.000 C 
ATOM     17  O   UNL     1       3.362   2.767  20.238  0.00  0.00    +0.000 OA
ENDBRANCH  12  13
ENDBRANCH   1  12
TORSDOF 3
ENDMDL
MODEL 3
REMARK VINA RESULT:      -6.3      0.984      1.131
REMARK  Name = 
REMARK  4 active torsions:
REMARK  status: ('A' for Active; 'I' for Inactive)
REMARK    1  A    between atoms: C_1  and  C_2
REMARK    2  A    between atoms: C_2  and  N_3
REMARK    3  A    between atoms: C_2  and  C_12
REMARK    4  A    between atoms: C_4  and  C_6
REMARK                            x       y       z     vdW  Elec       q    Type
REMARK                         _______ _______ _______ _____ _____    ______ ____
ROOT
ATOM      1  N   UNL     1       5.028   5.026  17.458  0.00  0.00    +0.000 N 
ATOM      2  C   UNL     1       4.074   5.888  17.952  0.00  0.00    +0.000 C 
ATOM      3  O   UNL     1       3.952   7.032  17.518  0.00  0.00    +0.000 OA
ATOM      4  H   UNL     1       5.022   4.064  17.772  0.00  0.00    +0.000 HD
ENDROOT
BRANCH   2   5
ATOM      5  C   UNL     1       3.225   5.361  19.017  0.00  0.00    +0.000 A 
ATOM      6  C   UNL     1       2.272   6.059  19.742  0.00  0.00    +0.000 A 
ATOM      7  C   UNL     1       1.610   5.247  20.711  0.00  0.00    +0.000 A 
ATOM      8  C   UNL     1       2.091   3.963  20.685  0.00  0.00    +0.000 A 
ATOM      9 BR   UNL     1       1.464   2.600  21.807  0.00  0.00    +0.000 Br
ATOM     10  S   UNL     1       3.310   3.726  19.536  0.00  0.00    +0.000 S 
ENDBRANCH   2   5
BRANCH   1  12
ATOM     11  C   UNL     1       6.170   4.085  15.516  0.00  0.00    +0.000 C 
ATOM     12  C   UNL     1       5.901   5.355  16.330  0.00  0.00    +0.000 C 
BRANCH  12  13
ATOM     13  C   UNL     1       7.189   6.029  16.851  0.00  0.00    +0.000 C 
ATOM     14  C   UNL     1       7.456   5.832  18.336  0.00  0.00    +0.000 C 
ATOM     15  C   UNL     1       8.283   7.046  18.677  0.00  0.00    +0.000 C 
ATOM     16  C   UNL     1       7.679   8.112  17.788  0.00  0.00    +0.000 C 
ATOM     17  O   UNL     1       7.156   7.454  16.626  0.00  0.00    +0.000 OA
ENDBRANCH  12  13
ENDBRANCH   1  12
TORSDOF 3
ENDMDL
MODEL 4
REMARK VINA RESULT:      -6.2      1.388      2.758
REMARK  Name = 
REMARK  4 active torsions:
REMARK  status: ('A' for Active; 'I' for Inactive)
REMARK    1  A    between atoms: C_1  and  C_2
REMARK    2  A    between atoms: C_2  and  N_3
REMARK    3  A    between atoms: C_2  and  C_12
REMARK    4  A    between atoms: C_4  and  C_6
REMARK                            x       y       z     vdW  Elec       q    Type
REMARK                         _______ _______ _______ _____ _____    ______ ____
ROOT
ATOM      1  N   UNL     1       5.849   5.142  18.053  0.00  0.00    +0.000 N 
ATOM      2  C   UNL     1       4.690   5.881  18.137  0.00  0.00    +0.000 C 
ATOM      3  O   UNL     1       4.524   6.898  17.464  0.00  0.00    +0.000 OA
ATOM      4  H   UNL     1       5.899   4.260  18.546  0.00  0.00    +0.000 HD
ENDROOT
BRANCH   2   5
ATOM      5  C   UNL     1       3.682   5.388  19.071  0.00  0.00    +0.000 A 
ATOM      6  C   UNL     1       2.651   6.117  19.642  0.00  0.00    +0.000 A 
ATOM      7  C   UNL     1       1.834   5.333  20.511  0.00  0.00    +0.000 A 
ATOM      8  C   UNL     1       2.282   4.037  20.567  0.00  0.00    +0.000 A 
ATOM      9 BR   UNL     1       1.464   2.704  21.597  0.00  0.00    +0.000 Br
ATOM     10  S   UNL     1       3.650   3.758  19.611  0.00  0.00    +0.000 S 
ENDBRANCH   2   5
BRANCH   1  12
ATOM     11  C   UNL     1       7.501   6.823  17.414  0.00  0.00    +0.000 C 
ATOM     12  C   UNL     1       6.924   5.438  17.105  0.00  0.00    +0.000 C 
BRANCH  12  13
ATOM     13  C   UNL     1       6.394   5.307  15.661  0.00  0.00    +0.000 C 
ATOM     14  C   UNL     1       5.898   3.918  15.287  0.00  0.00    +0.000 C 
ATOM     15  C   UNL     1       6.088   3.900  13.792  0.00  0.00    +0.000 C 
ATOM     16  C   UNL     1       7.352   4.713  13.615  0.00  0.00    +0.000 C 
ATOM     17  O   UNL     1       7.415   5.649  14.700  0.00  0.00    +0.000 OA
ENDBRANCH  12  13
ENDBRANCH   1  12
TORSDOF 3
ENDMDL
MODEL 5
REMARK VINA RESULT:      -6.2      1.978      3.161
REMARK  Name = 
REMARK  4 active torsions:
REMARK  status: ('A' for Active; 'I' for Inactive)
REMARK    1  A    between atoms: C_1  and  C_2
REMARK    2  A    between atoms: C_2  and  N_3
REMARK    3  A    between atoms: C_2  and  C_12
REMARK    4  A    between atoms: C_4  and  C_6
REMARK                            x       y       z     vdW  Elec       q    Type
REMARK                         _______ _______ _______ _____ _____    ______ ____
ROOT
ATOM      1  N   UNL     1       5.693   5.028  17.400  0.00  0.00    +0.000 N 
ATOM      2  C   UNL     1       5.780   4.768  18.750  0.00  0.00    +0.000 C 
ATOM      3  O   UNL     1       6.866   4.719  19.327  0.00  0.00    +0.000 OA
ATOM      4  H   UNL     1       4.777   5.160  16.990  0.00  0.00    +0.000 HD
ENDROOT
BRANCH   2   5
ATOM      5  C   UNL     1       4.515   4.553  19.445  0.00  0.00    +0.000 A 
ATOM      6  C   UNL     1       3.538   5.501  19.704  0.00  0.00    +0.000 A 
ATOM      7  C   UNL     1       2.415   4.962  20.401  0.00  0.00    +0.000 A 
ATOM      8  C   UNL     1       2.587   3.623  20.646  0.00  0.00    +0.000 A 
ATOM      9 BR   UNL     1       1.324   2.563  21.534  0.00  0.00    +0.000 Br
ATOM     10  S   UNL     1       4.056   3.018  20.065  0.00  0.00    +0.000 S 
ENDBRANCH   2   5
BRANCH   1  12
ATOM     11  C   UNL     1       7.378   6.739  16.963  0.00  0.00    +0.000 C 
ATOM     12  C   UNL     1       6.850   5.357  16.567  0.00  0.00    +0.000 C 
BRANCH  12  13
ATOM     13  C   UNL     1       6.461   5.256  15.076  0.00  0.00    +0.000 C 
ATOM     14  C   UNL     1       5.966   3.886  14.637  0.00  0.00    +0.000 C 
ATOM     15  C   UNL     1       6.303   3.879  13.168  0.00  0.00    +0.000 C 
ATOM     16  C   UNL     1       7.600   4.657  13.127  0.00  0.00    +0.000 C 
ATOM     17  O   UNL     1       7.581   5.580  14.225  0.00  0.00    +0.000 OA
ENDBRANCH  12  13
ENDBRANCH   1  12
TORSDOF 3
ENDMDL
MODEL 6
REMARK VINA RESULT:      -6.1      1.159      2.718
REMARK  Name = 
REMARK  4 active torsions:
REMARK  status: ('A' for Active; 'I' for Inactive)
REMARK    1  A    between atoms: C_1  and  C_2
REMARK    2  A    between atoms: C_2  and  N_3
REMARK    3  A    between atoms: C_2  and  C_12
REMARK    4  A    between atoms: C_4  and  C_6
REMARK                            x       y       z     vdW  Elec       q    Type
REMARK                         _______ _______ _______ _____ _____    ______ ____
ROOT
ATOM      1  N   UNL     1       5.716   4.654  17.326  0.00  0.00    +0.000 N 
ATOM      2  C   UNL     1       4.518   5.330  17.387  0.00  0.00    +0.000 C 
ATOM      3  O   UNL     1       4.363   6.418  16.834  0.00  0.00    +0.000 OA
ATOM      4  H   UNL     1       5.764   3.718  17.707  0.00  0.00    +0.000 HD
ENDROOT
BRANCH   2   5
ATOM      5  C   UNL     1       3.453   4.681  18.146  0.00  0.00    +0.000 A 
ATOM      6  C   UNL     1       2.171   4.397  17.704  0.00  0.00    +0.000 A 
ATOM      7  C   UNL     1       1.375   3.750  18.696  0.00  0.00    +0.000 A 
ATOM      8  C   UNL     1       2.085   3.570  19.855  0.00  0.00    +0.000 A 
ATOM      9 BR   UNL     1       1.382   2.749  21.384  0.00  0.00    +0.000 Br
ATOM     10  S   UNL     1       3.667   4.165  19.771  0.00  0.00    +0.000 S 
ENDBRANCH   2   5
BRANCH   1  12
ATOM     11  C   UNL     1       7.323   6.472  17.062  0.00  0.00    +0.000 C 
ATOM     12  C   UNL     1       6.859   5.112  16.534  0.00  0.00    +0.000 C 
BRANCH  12  13
ATOM     13  C   UNL     1       6.477   5.136  15.039  0.00  0.00    +0.000 C 
ATOM     14  C   UNL     1       6.035   3.796  14.471  0.00  0.00    +0.000 C 
ATOM     15  C   UNL     1       6.374   3.938  13.009  0.00  0.00    +0.000 C 
ATOM     16  C   UNL     1       7.642   4.765  13.048  0.00  0.00    +0.000 C 
ATOM     17  O   UNL     1       7.585   5.580  14.227  0.00  0.00    +0.000 OA
ENDBRANCH  12  13
ENDBRANCH   1  12
TORSDOF 3
ENDMDL
MODEL 7
REMARK VINA RESULT:      -5.9      3.517      6.200
REMARK  Name = 
REMARK  4 active torsions:
REMARK  status: ('A' for Active; 'I' for Inactive)
REMARK    1  A    between atoms: C_1  and  C_2
REMARK    2  A    between atoms: C_2  and  N_3
REMARK    3  A    between atoms: C_2  and  C_12
REMARK    4  A    between atoms: C_4  and  C_6
REMARK                            x       y       z     vdW  Elec       q    Type
REMARK                         _______ _______ _______ _____ _____    ______ ____
ROOT
ATOM      1  N   UNL     1       4.834   3.027  19.087  0.00  0.00    +0.000 N 
ATOM      2  C   UNL     1       5.420   4.236  18.782  0.00  0.00    +0.000 C 
ATOM      3  O   UNL     1       5.515   5.134  19.616  0.00  0.00    +0.000 OA
ATOM      4  H   UNL     1       4.871   2.283  18.401  0.00  0.00    +0.000 HD
ENDROOT
BRANCH   2   5
ATOM      5  C   UNL     1       5.912   4.382  17.415  0.00  0.00    +0.000 A 
ATOM      6  C   UNL     1       7.002   5.130  17.000  0.00  0.00    +0.000 A 
ATOM      7  C   UNL     1       7.219   5.058  15.591  0.00  0.00    +0.000 A 
ATOM      8  C   UNL     1       6.280   4.258  14.991  0.00  0.00    +0.000 A 
ATOM      9 BR   UNL     1       6.238   3.913  13.151  0.00  0.00    +0.000 Br
ATOM     10  S   UNL     1       5.157   3.610  16.079  0.00  0.00    +0.000 S 
ENDBRANCH   2   5
BRANCH   1  12
ATOM     11  C   UNL     1       5.078   1.396  20.886  0.00  0.00    +0.000 C 
ATOM     12  C   UNL     1       4.370   2.674  20.429  0.00  0.00    +0.000 C 
BRANCH  12  13
ATOM     13  C   UNL     1       2.831   2.552  20.430  0.00  0.00    +0.000 C 
ATOM     14  C   UNL     1       2.214   2.241  19.074  0.00  0.00    +0.000 C 
ATOM     15  C   UNL     1       0.830   2.822  19.209  0.00  0.00    +0.000 C 
ATOM     16  C   UNL     1       1.073   4.047  20.065  0.00  0.00    +0.000 C 
ATOM     17  O   UNL     1       2.213   3.774  20.890  0.00  0.00    +0.000 OA
ENDBRANCH  12  13
ENDBRANCH   1  12
TORSDOF 3
ENDMDL
MODEL 8
REMARK VINA RESULT:      -5.9      3.893      6.305
REMARK  Name = 
REMARK  4 active torsions:
REMARK  status: ('A' for Active; 'I' for Inactive)
REMARK    1  A    between atoms: C_1  and  C_2
REMARK    2  A    between atoms: C_2  and  N_3
REMARK    3  A    between atoms: C_2  and  C_12
REMARK    4  A    between atoms: C_4  and  C_6
REMARK                            x       y       z     vdW  Elec       q    Type
REMARK                         _______ _______ _______ _____ _____    ______ ____
ROOT
ATOM      1  N   UNL     1       4.724   3.621  18.381  0.00  0.00    +0.000 N 
ATOM      2  C   UNL     1       5.877   4.246  17.961  0.00  0.00    +0.000 C 
ATOM      3  O   UNL     1       6.698   4.690  18.763  0.00  0.00    +0.000 OA
ATOM      4  H   UNL     1       4.131   3.181  17.689  0.00  0.00    +0.000 HD
ENDROOT
BRANCH   2   5
ATOM      5  C   UNL     1       6.060   4.350  16.517  0.00  0.00    +0.000 A 
ATOM      6  C   UNL     1       5.188   3.908  15.535  0.00  0.00    +0.000 A 
ATOM      7  C   UNL     1       5.664   4.168  14.214  0.00  0.00    +0.000 A 
ATOM      8  C   UNL     1       6.882   4.797  14.248  0.00  0.00    +0.000 A 
ATOM      9 BR   UNL     1       7.825   5.309  12.713  0.00  0.00    +0.000 Br
ATOM     10  S   UNL     1       7.456   5.067  15.817  0.00  0.00    +0.000 S 
ENDBRANCH   2   5
BRANCH   1  12
ATOM     11  C   UNL     1       4.740   1.881  20.094  0.00  0.00    +0.000 C 
ATOM     12  C   UNL     1       4.423   3.348  19.787  0.00  0.00    +0.000 C 
BRANCH  12  13
ATOM     13  C   UNL     1       2.958   3.730  20.087  0.00  0.00    +0.000 C 
ATOM     14  C   UNL     1       2.337   3.002  21.270  0.00  0.00    +0.000 C 
ATOM     15  C   UNL     1       0.869   3.029  20.930  0.00  0.00    +0.000 C 
ATOM     16  C   UNL     1       0.880   2.893  19.422  0.00  0.00    +0.000 C 
ATOM     17  O   UNL     1       2.108   3.465  18.950  0.00  0.00    +0.000 OA
ENDBRANCH  12  13
ENDBRANCH   1  12
TORSDOF 3
ENDMDL
MODEL 9
REMARK VINA RESULT:      -5.9      2.345      3.352
REMARK  Name = 
REMARK  4 active torsions:
REMARK  status: ('A' for Active; 'I' for Inactive)
REMARK    1  A    between atoms: C_1  and  C_2
REMARK    2  A    between atoms: C_2  and  N_3
REMARK    3  A    between atoms: C_2  and  C_12
REMARK    4  A    between atoms: C_4  and  C_6
REMARK                            x       y       z     vdW  Elec       q    Type
REMARK                         _______ _______ _______ _____ _____    ______ ____
ROOT
ATOM      1  N   UNL     1       5.271   4.914  17.810  0.00  0.00    +0.000 N 
ATOM      2  C   UNL     1       4.094   4.273  18.127  0.00  0.00    +0.000 C 
ATOM      3  O   UNL     1       3.814   3.172  17.656  0.00  0.00    +0.000 OA
ATOM      4  H   UNL     1       5.505   5.768  18.301  0.00  0.00    +0.000 HD
ENDROOT
BRANCH   2   5
ATOM      5  C   UNL     1       3.207   4.979  19.046  0.00  0.00    +0.000 A 
ATOM      6  C   UNL     1       2.423   4.417  20.041  0.00  0.00    +0.000 A 
ATOM      7  C   UNL     1       1.672   5.388  20.769  0.00  0.00    +0.000 A 
ATOM      8  C   UNL     1       1.915   6.652  20.294  0.00  0.00    +0.000 A 
ATOM      9 BR   UNL     1       1.120   8.193  21.000  0.00  0.00    +0.000 Br
ATOM     10  S   UNL     1       3.009   6.685  19.004  0.00  0.00    +0.000 S 
ENDBRANCH   2   5
BRANCH   1  12
ATOM     11  C   UNL     1       7.686   4.640  17.581  0.00  0.00    +0.000 C 
ATOM     12  C   UNL     1       6.316   4.314  16.979  0.00  0.00    +0.000 C 
BRANCH  12  13
ATOM     13  C   UNL     1       6.159   4.797  15.521  0.00  0.00    +0.000 C 
ATOM     14  C   UNL     1       5.841   3.700  14.516  0.00  0.00    +0.000 C 
ATOM     15  C   UNL     1       6.389   4.270  13.233  0.00  0.00    +0.000 C 
ATOM     16  C   UNL     1       7.615   5.020  13.708  0.00  0.00    +0.000 C 
ATOM     17  O   UNL     1       7.364   5.442  15.056  0.00  0.00    +0.000 OA
ENDBRANCH  12  13
ENDBRANCH   1  12
TORSDOF 3
ENDMDL
