MODEL 1
REMARK VINA RESULT:      -6.8      0.000      0.000
REMARK  Name = 
REMARK  5 active torsions:
REMARK  status: ('A' for Active; 'I' for Inactive)
REMARK    1  A    between atoms: C_1  and  O_2
REMARK    2  A    between atoms: O_2  and  C_3
REMARK    3  A    between atoms: C_6  and  C_7
REMARK    4  A    between atoms: N_9  and  N_10
REMARK    5  A    between atoms: C_11  and  C_13
REMARK                            x       y       z     vdW  Elec       q    Type
REMARK                         _______ _______ _______ _____ _____    ______ ____
ROOT
ATOM      1  C   UNL     1       1.510   8.163  20.386  0.00  0.00    +0.000 C 
ATOM      2  O   UNL     1       1.842   8.297  19.211  0.00  0.00    +0.000 OA
ATOM      3  N   UNL     1       1.764   6.997  21.088  0.00  0.00    +0.000 N 
ATOM      4  H   UNL     1       1.557   6.846  22.069  0.00  0.00    +0.000 HD
ENDROOT
BRANCH   1   8
ATOM      5  C   UNL     1      -0.544  11.270  22.584  0.00  0.00    +0.000 A 
ATOM      6  C   UNL     1      -0.477   9.962  23.067  0.00  0.00    +0.000 A 
ATOM      7  C   UNL     1       0.207   8.973  22.352  0.00  0.00    +0.000 A 
ATOM      8  C   UNL     1       0.819   9.271  21.125  0.00  0.00    +0.000 A 
ATOM      9  C   UNL     1       0.745  10.585  20.645  0.00  0.00    +0.000 A 
ATOM     10  C   UNL     1       0.067  11.574  21.368  0.00  0.00    +0.000 A 
BRANCH   5  12
ATOM     11  C   UNL     1      -1.078  13.528  23.035  0.00  0.00    +0.000 C 
ATOM     12  O   UNL     1      -1.254  12.150  23.351  0.00  0.00    +0.000 OA
ENDBRANCH   5  12
ENDBRANCH   1   8
BRANCH   3  13
ATOM     13  N   UNL     1       2.469   5.957  20.467  0.00  0.00    +0.000 N 
ATOM     14  C   UNL     1       1.760   4.797  20.205  0.00  0.00    +0.000 C 
ATOM     15  O   UNL     1       0.578   4.672  20.515  0.00  0.00    +0.000 OA
ATOM     16  H   UNL     1       3.385   6.188  20.088  0.00  0.00    +0.000 HD
BRANCH  14  17
ATOM     17  C   UNL     1       2.474   3.696  19.513  0.00  0.00    +0.000 A 
ATOM     18  C   UNL     1       3.575   3.051  20.070  0.00  0.00    +0.000 A 
ATOM     19  C   UNL     1       4.130   1.994  19.365  0.00  0.00    +0.000 A 
ATOM     20  N   UNL     1       3.670   1.562  18.171  0.00  0.00    +0.000 NA
ATOM     21  C   UNL     1       2.597   2.200  17.658  0.00  0.00    +0.000 A 
ATOM     22  C   UNL     1       1.967   3.258  18.286  0.00  0.00    +0.000 A 
ENDBRANCH  14  17
ENDBRANCH   3  13
TORSDOF 4
ENDMDL
MODEL 2
REMARK VINA RESULT:      -6.7      3.036      8.548
REMARK  Name = 
REMARK  5 active torsions:
REMARK  status: ('A' for Active; 'I' for Inactive)
REMARK    1  A    between atoms: C_1  and  O_2
REMARK    2  A    between atoms: O_2  and  C_3
REMARK    3  A    between atoms: C_6  and  C_7
REMARK    4  A    between atoms: N_9  and  N_10
REMARK    5  A    between atoms: C_11  and  C_13
REMARK                            x       y       z     vdW  Elec       q    Type
REMARK                         _______ _______ _______ _____ _____    ______ ____
ROOT
ATOM      1  C   UNL     1       2.844   5.872  19.518  0.00  0.00    +0.000 C 
ATOM      2  O   UNL     1       2.512   5.231  20.512  0.00  0.00    +0.000 OA
ATOM      3  N   UNL     1       2.521   7.211  19.372  0.00  0.00    +0.000 N 
ATOM      4  H   UNL     1       2.806   7.801  18.599  0.00  0.00    +0.000 HD
ENDROOT
BRANCH   1   8
ATOM      5  C   UNL     1       5.132   4.140  16.283  0.00  0.00    +0.000 A 
ATOM      6  C   UNL     1       5.258   5.489  16.620  0.00  0.00    +0.000 A 
ATOM      7  C   UNL     1       4.523   6.029  17.682  0.00  0.00    +0.000 A 
ATOM      8  C   UNL     1       3.629   5.231  18.411  0.00  0.00    +0.000 A 
ATOM      9  C   UNL     1       3.506   3.879  18.065  0.00  0.00    +0.000 A 
ATOM     10  C   UNL     1       4.250   3.341  17.009  0.00  0.00    +0.000 A 
BRANCH   5  12
ATOM     11  C   UNL     1       6.575   4.748  14.512  0.00  0.00    +0.000 C 
ATOM     12  O   UNL     1       5.880   3.724  15.218  0.00  0.00    +0.000 OA
ENDBRANCH   5  12
ENDBRANCH   1   8
BRANCH   3  13
ATOM     13  N   UNL     1       1.849   7.876  20.406  0.00  0.00    +0.000 N 
ATOM     14  C   UNL     1       1.218   9.063  20.074  0.00  0.00    +0.000 C 
ATOM     15  O   UNL     1       1.258   9.525  18.936  0.00  0.00    +0.000 OA
ATOM     16  H   UNL     1       1.713   7.357  21.271  0.00  0.00    +0.000 HD
BRANCH  14  17
ATOM     17  C   UNL     1       0.467   9.766  21.142  0.00  0.00    +0.000 A 
ATOM     18  C   UNL     1      -0.136  11.005  20.942  0.00  0.00    +0.000 A 
ATOM     19  C   UNL     1      -0.866  11.545  21.989  0.00  0.00    +0.000 A 
ATOM     20  N   UNL     1      -1.017  10.945  23.189  0.00  0.00    +0.000 NA
ATOM     21  C   UNL     1      -0.428   9.742  23.354  0.00  0.00    +0.000 A 
ATOM     22  C   UNL     1       0.313   9.114  22.369  0.00  0.00    +0.000 A 
ENDBRANCH  14  17
ENDBRANCH   3  13
TORSDOF 4
ENDMDL
MODEL 3
REMARK VINA RESULT:      -6.7      3.195      8.540
REMARK  Name = 
REMARK  5 active torsions:
REMARK  status: ('A' for Active; 'I' for Inactive)
REMARK    1  A    between atoms: C_1  and  O_2
REMARK    2  A    between atoms: O_2  and  C_3
REMARK    3  A    between atoms: C_6  and  C_7
REMARK    4  A    between atoms: N_9  and  N_10
REMARK    5  A    between atoms: C_11  and  C_13
REMARK                            x       y       z     vdW  Elec       q    Type
REMARK                         _______ _______ _______ _____ _____    ______ ____
ROOT
ATOM      1  C   UNL     1       2.802   6.184  19.269  0.00  0.00    +0.000 C 
ATOM      2  O   UNL     1       2.484   5.494  20.234  0.00  0.00    +0.000 OA
ATOM      3  N   UNL     1       2.440   7.517  19.174  0.00  0.00    +0.000 N 
ATOM      4  H   UNL     1       2.712   8.147  18.428  0.00  0.00    +0.000 HD
ENDROOT
BRANCH   1   8
ATOM      5  C   UNL     1       5.136   4.425  16.082  0.00  0.00    +0.000 A 
ATOM      6  C   UNL     1       4.375   3.635  16.946  0.00  0.00    +0.000 A 
ATOM      7  C   UNL     1       3.611   4.222  17.961  0.00  0.00    +0.000 A 
ATOM      8  C   UNL     1       3.615   5.613  18.144  0.00  0.00    +0.000 A 
ATOM      9  C   UNL     1       4.383   6.399  17.276  0.00  0.00    +0.000 A 
ATOM     10  C   UNL     1       5.139   5.808  16.256  0.00  0.00    +0.000 A 
BRANCH   5  12
ATOM     11  C   UNL     1       6.671   4.549  14.289  0.00  0.00    +0.000 C 
ATOM     12  O   UNL     1       5.859   3.747  15.142  0.00  0.00    +0.000 OA
ENDBRANCH   5  12
ENDBRANCH   1   8
BRANCH   3  13
ATOM     13  N   UNL     1       1.740   8.119  20.229  0.00  0.00    +0.000 N 
ATOM     14  C   UNL     1       1.030   9.268  19.927  0.00  0.00    +0.000 C 
ATOM     15  O   UNL     1       1.024   9.752  18.797  0.00  0.00    +0.000 OA
ATOM     16  H   UNL     1       1.650   7.577  21.086  0.00  0.00    +0.000 HD
BRANCH  14  17
ATOM     17  C   UNL     1       0.249   9.903  21.017  0.00  0.00    +0.000 A 
ATOM     18  C   UNL     1      -0.476  11.077  20.833  0.00  0.00    +0.000 A 
ATOM     19  C   UNL     1      -1.220  11.551  21.902  0.00  0.00    +0.000 A 
ATOM     20  N   UNL     1      -1.274  10.946  23.109  0.00  0.00    +0.000 NA
ATOM     21  C   UNL     1      -0.566   9.807  23.257  0.00  0.00    +0.000 A 
ATOM     22  C   UNL     1       0.199   9.248  22.251  0.00  0.00    +0.000 A 
ENDBRANCH  14  17
ENDBRANCH   3  13
TORSDOF 4
ENDMDL
MODEL 4
REMARK VINA RESULT:      -6.7      3.403      8.583
REMARK  Name = 
REMARK  5 active torsions:
REMARK  status: ('A' for Active; 'I' for Inactive)
REMARK    1  A    between atoms: C_1  and  O_2
REMARK    2  A    between atoms: O_2  and  C_3
REMARK    3  A    between atoms: C_6  and  C_7
REMARK    4  A    between atoms: N_9  and  N_10
REMARK    5  A    between atoms: C_11  and  C_13
REMARK                            x       y       z     vdW  Elec       q    Type
REMARK                         _______ _______ _______ _____ _____    ______ ____
ROOT
ATOM      1  C   UNL     1       3.071   6.322  19.012  0.00  0.00    +0.000 C 
ATOM      2  O   UNL     1       2.997   5.610  20.011  0.00  0.00    +0.000 OA
ATOM      3  N   UNL     1       2.418   7.541  18.936  0.00  0.00    +0.000 N 
ATOM      4  H   UNL     1       2.479   8.191  18.160  0.00  0.00    +0.000 HD
ENDROOT
BRANCH   1   8
ATOM      5  C   UNL     1       5.421   5.240  15.548  0.00  0.00    +0.000 A 
ATOM      6  C   UNL     1       5.312   6.568  15.966  0.00  0.00    +0.000 A 
ATOM      7  C   UNL     1       4.562   6.898  17.100  0.00  0.00    +0.000 A 
ATOM      8  C   UNL     1       3.886   5.905  17.824  0.00  0.00    +0.000 A 
ATOM      9  C   UNL     1       3.997   4.575  17.397  0.00  0.00    +0.000 A 
ATOM     10  C   UNL     1       4.756   4.248  16.267  0.00  0.00    +0.000 A 
BRANCH   5  12
ATOM     11  C   UNL     1       6.210   3.689  13.949  0.00  0.00    +0.000 C 
ATOM     12  O   UNL     1       6.160   5.033  14.417  0.00  0.00    +0.000 OA
ENDBRANCH   5  12
ENDBRANCH   1   8
BRANCH   3  13
ATOM     13  N   UNL     1       1.699   8.010  20.043  0.00  0.00    +0.000 N 
ATOM     14  C   UNL     1       1.156   9.279  19.939  0.00  0.00    +0.000 C 
ATOM     15  O   UNL     1       1.310   9.973  18.936  0.00  0.00    +0.000 OA
ATOM     16  H   UNL     1       1.469   7.327  20.762  0.00  0.00    +0.000 HD
BRANCH  14  17
ATOM     17  C   UNL     1       0.358   9.783  21.083  0.00  0.00    +0.000 A 
ATOM     18  C   UNL     1       0.250   9.087  22.285  0.00  0.00    +0.000 A 
ATOM     19  C   UNL     1      -0.472   9.677  23.311  0.00  0.00    +0.000 A 
ATOM     20  N   UNL     1      -1.081  10.879  23.208  0.00  0.00    +0.000 NA
ATOM     21  C   UNL     1      -0.955  11.534  22.035  0.00  0.00    +0.000 A 
ATOM     22  C   UNL     1      -0.249  11.036  20.955  0.00  0.00    +0.000 A 
ENDBRANCH  14  17
ENDBRANCH   3  13
TORSDOF 4
ENDMDL
MODEL 5
REMARK VINA RESULT:      -6.7      0.107      1.058
REMARK  Name = 
REMARK  5 active torsions:
REMARK  status: ('A' for Active; 'I' for Inactive)
REMARK    1  A    between atoms: C_1  and  O_2
REMARK    2  A    between atoms: O_2  and  C_3
REMARK    3  A    between atoms: C_6  and  C_7
REMARK    4  A    between atoms: N_9  and  N_10
REMARK    5  A    between atoms: C_11  and  C_13
REMARK                            x       y       z     vdW  Elec       q    Type
REMARK                         _______ _______ _______ _____ _____    ______ ____
ROOT
ATOM      1  C   UNL     1       1.491   8.115  20.381  0.00  0.00    +0.000 C 
ATOM      2  O   UNL     1       1.888   8.263  19.228  0.00  0.00    +0.000 OA
ATOM      3  N   UNL     1       1.662   6.924  21.065  0.00  0.00    +0.000 N 
ATOM      4  H   UNL     1       1.398   6.758  22.030  0.00  0.00    +0.000 HD
ENDROOT
BRANCH   1   8
ATOM      5  C   UNL     1      -0.545  11.249  22.557  0.00  0.00    +0.000 A 
ATOM      6  C   UNL     1      -0.478   9.946  23.053  0.00  0.00    +0.000 A 
ATOM      7  C   UNL     1       0.200   8.948  22.345  0.00  0.00    +0.000 A 
ATOM      8  C   UNL     1       0.805   9.233  21.112  0.00  0.00    +0.000 A 
ATOM      9  C   UNL     1       0.732  10.542  20.619  0.00  0.00    +0.000 A 
ATOM     10  C   UNL     1       0.060  11.540  21.335  0.00  0.00    +0.000 A 
BRANCH   5  12
ATOM     11  C   UNL     1      -1.041  13.514  23.015  0.00  0.00    +0.000 C 
ATOM     12  O   UNL     1      -1.250  12.138  23.319  0.00  0.00    +0.000 OA
ENDBRANCH   5  12
ENDBRANCH   1   8
BRANCH   3  13
ATOM     13  N   UNL     1       2.357   5.871  20.454  0.00  0.00    +0.000 N 
ATOM     14  C   UNL     1       1.637   4.716  20.201  0.00  0.00    +0.000 C 
ATOM     15  O   UNL     1       0.453   4.606  20.511  0.00  0.00    +0.000 OA
ATOM     16  H   UNL     1       3.276   6.089  20.074  0.00  0.00    +0.000 HD
BRANCH  14  17
ATOM     17  C   UNL     1       2.340   3.601  19.519  0.00  0.00    +0.000 A 
ATOM     18  C   UNL     1       1.953   3.126  18.269  0.00  0.00    +0.000 A 
ATOM     19  C   UNL     1       2.717   2.121  17.695  0.00  0.00    +0.000 A 
ATOM     20  N   UNL     1       3.804   1.575  18.282  0.00  0.00    +0.000 NA
ATOM     21  C   UNL     1       4.160   2.059  19.490  0.00  0.00    +0.000 A 
ATOM     22  C   UNL     1       3.471   3.065  20.142  0.00  0.00    +0.000 A 
ENDBRANCH  14  17
ENDBRANCH   3  13
TORSDOF 4
ENDMDL
MODEL 6
REMARK VINA RESULT:      -6.7      0.879      1.405
REMARK  Name = 
REMARK  5 active torsions:
REMARK  status: ('A' for Active; 'I' for Inactive)
REMARK    1  A    between atoms: C_1  and  O_2
REMARK    2  A    between atoms: O_2  and  C_3
REMARK    3  A    between atoms: C_6  and  C_7
REMARK    4  A    between atoms: N_9  and  N_10
REMARK    5  A    between atoms: C_11  and  C_13
REMARK                            x       y       z     vdW  Elec       q    Type
REMARK                         _______ _______ _______ _____ _____    ______ ____
ROOT
ATOM      1  C   UNL     1       1.371   8.378  20.347  0.00  0.00    +0.000 C 
ATOM      2  O   UNL     1       1.695   8.647  19.192  0.00  0.00    +0.000 OA
ATOM      3  N   UNL     1       1.681   7.159  20.926  0.00  0.00    +0.000 N 
ATOM      4  H   UNL     1       1.481   6.899  21.885  0.00  0.00    +0.000 HD
ENDROOT
BRANCH   1   8
ATOM      5  C   UNL     1      -0.721  11.328  22.718  0.00  0.00    +0.000 A 
ATOM      6  C   UNL     1      -0.123  11.664  21.502  0.00  0.00    +0.000 A 
ATOM      7  C   UNL     1       0.534  10.693  20.738  0.00  0.00    +0.000 A 
ATOM      8  C   UNL     1       0.626   9.369  21.192  0.00  0.00    +0.000 A 
ATOM      9  C   UNL     1       0.026   9.039  22.414  0.00  0.00    +0.000 A 
ATOM     10  C   UNL     1      -0.639  10.012  23.171  0.00  0.00    +0.000 A 
BRANCH   5  12
ATOM     11  C   UNL     1      -2.727  12.470  23.223  0.00  0.00    +0.000 C 
ATOM     12  O   UNL     1      -1.317  12.357  23.391  0.00  0.00    +0.000 OA
ENDBRANCH   5  12
ENDBRANCH   1   8
BRANCH   3  13
ATOM     13  N   UNL     1       2.436   6.224  20.205  0.00  0.00    +0.000 N 
ATOM     14  C   UNL     1       1.896   4.956  20.079  0.00  0.00    +0.000 C 
ATOM     15  O   UNL     1       0.818   4.653  20.586  0.00  0.00    +0.000 OA
ATOM     16  H   UNL     1       3.225   6.585  19.674  0.00  0.00    +0.000 HD
BRANCH  14  17
ATOM     17  C   UNL     1       2.657   3.959  19.287  0.00  0.00    +0.000 A 
ATOM     18  C   UNL     1       2.547   2.588  19.506  0.00  0.00    +0.000 A 
ATOM     19  C   UNL     1       3.257   1.741  18.668  0.00  0.00    +0.000 A 
ATOM     20  N   UNL     1       4.051   2.169  17.663  0.00  0.00    +0.000 NA
ATOM     21  C   UNL     1       4.134   3.502  17.469  0.00  0.00    +0.000 A 
ATOM     22  C   UNL     1       3.459   4.428  18.243  0.00  0.00    +0.000 A 
ENDBRANCH  14  17
ENDBRANCH   3  13
TORSDOF 4
ENDMDL
MODEL 7
REMARK VINA RESULT:      -6.7      2.959      8.510
REMARK  Name = 
REMARK  5 active torsions:
REMARK  status: ('A' for Active; 'I' for Inactive)
REMARK    1  A    between atoms: C_1  and  O_2
REMARK    2  A    between atoms: O_2  and  C_3
REMARK    3  A    between atoms: C_6  and  C_7
REMARK    4  A    between atoms: N_9  and  N_10
REMARK    5  A    between atoms: C_11  and  C_13
REMARK                            x       y       z     vdW  Elec       q    Type
REMARK                         _______ _______ _______ _____ _____    ______ ____
ROOT
ATOM      1  C   UNL     1       2.603   5.860  19.577  0.00  0.00    +0.000 C 
ATOM      2  O   UNL     1       2.012   5.198  20.427  0.00  0.00    +0.000 OA
ATOM      3  N   UNL     1       2.523   7.242  19.543  0.00  0.00    +0.000 N 
ATOM      4  H   UNL     1       3.022   7.843  18.897  0.00  0.00    +0.000 HD
ENDROOT
BRANCH   1   8
ATOM      5  C   UNL     1       5.098   4.063  16.537  0.00  0.00    +0.000 A 
ATOM      6  C   UNL     1       5.329   5.363  16.991  0.00  0.00    +0.000 A 
ATOM      7  C   UNL     1       4.523   5.923  17.988  0.00  0.00    +0.000 A 
ATOM      8  C   UNL     1       3.454   5.198  18.533  0.00  0.00    +0.000 A 
ATOM      9  C   UNL     1       3.226   3.895  18.071  0.00  0.00    +0.000 A 
ATOM     10  C   UNL     1       4.040   3.335  17.079  0.00  0.00    +0.000 A 
BRANCH   5  12
ATOM     11  C   UNL     1       6.621   4.640  14.824  0.00  0.00    +0.000 C 
ATOM     12  O   UNL     1       5.931   3.624  15.546  0.00  0.00    +0.000 OA
ENDBRANCH   5  12
ENDBRANCH   1   8
BRANCH   3  13
ATOM     13  N   UNL     1       1.798   7.916  20.536  0.00  0.00    +0.000 N 
ATOM     14  C   UNL     1       1.169   9.089  20.157  0.00  0.00    +0.000 C 
ATOM     15  O   UNL     1       1.253   9.533  19.013  0.00  0.00    +0.000 OA
ATOM     16  H   UNL     1       1.630   7.410  21.403  0.00  0.00    +0.000 HD
BRANCH  14  17
ATOM     17  C   UNL     1       0.363   9.801  21.179  0.00  0.00    +0.000 A 
ATOM     18  C   UNL     1       0.005   9.214  22.391  0.00  0.00    +0.000 A 
ATOM     19  C   UNL     1      -0.697   9.989  23.300  0.00  0.00    +0.000 A 
ATOM     20  N   UNL     1      -1.060  11.270  23.076  0.00  0.00    +0.000 NA
ATOM     21  C   UNL     1      -0.694  11.815  21.897  0.00  0.00    +0.000 A 
ATOM     22  C   UNL     1       0.015  11.131  20.927  0.00  0.00    +0.000 A 
ENDBRANCH  14  17
ENDBRANCH   3  13
TORSDOF 4
ENDMDL
MODEL 8
REMARK VINA RESULT:      -6.7      3.097      8.504
REMARK  Name = 
REMARK  5 active torsions:
REMARK  status: ('A' for Active; 'I' for Inactive)
REMARK    1  A    between atoms: C_1  and  O_2
REMARK    2  A    between atoms: O_2  and  C_3
REMARK    3  A    between atoms: C_6  and  C_7
REMARK    4  A    between atoms: N_9  and  N_10
REMARK    5  A    between atoms: C_11  and  C_13
REMARK                            x       y       z     vdW  Elec       q    Type
REMARK                         _______ _______ _______ _____ _____    ______ ____
ROOT
ATOM      1  C   UNL     1       2.669   6.032  19.260  0.00  0.00    +0.000 C 
ATOM      2  O   UNL     1       2.062   5.295  20.034  0.00  0.00    +0.000 OA
ATOM      3  N   UNL     1       2.570   7.410  19.336  0.00  0.00    +0.000 N 
ATOM      4  H   UNL     1       3.081   8.068  18.758  0.00  0.00    +0.000 HD
ENDROOT
BRANCH   1   8
ATOM      5  C   UNL     1       5.224   4.289  16.237  0.00  0.00    +0.000 A 
ATOM      6  C   UNL     1       4.367   3.500  17.007  0.00  0.00    +0.000 A 
ATOM      7  C   UNL     1       3.534   4.082  17.968  0.00  0.00    +0.000 A 
ATOM      8  C   UNL     1       3.561   5.466  18.193  0.00  0.00    +0.000 A 
ATOM      9  C   UNL     1       4.425   6.252  17.419  0.00  0.00    +0.000 A 
ATOM     10  C   UNL     1       5.250   5.666  16.452  0.00  0.00    +0.000 A 
BRANCH   5  12
ATOM     11  C   UNL     1       5.977   4.102  14.005  0.00  0.00    +0.000 C 
ATOM     12  O   UNL     1       6.007   3.615  15.343  0.00  0.00    +0.000 OA
ENDBRANCH   5  12
ENDBRANCH   1   8
BRANCH   3  13
ATOM     13  N   UNL     1       1.806   7.992  20.357  0.00  0.00    +0.000 N 
ATOM     14  C   UNL     1       1.097   9.135  20.028  0.00  0.00    +0.000 C 
ATOM     15  O   UNL     1       1.146   9.630  18.904  0.00  0.00    +0.000 OA
ATOM     16  H   UNL     1       1.676   7.440  21.202  0.00  0.00    +0.000 HD
BRANCH  14  17
ATOM     17  C   UNL     1       0.249   9.747  21.080  0.00  0.00    +0.000 A 
ATOM     18  C   UNL     1       0.121   9.195  22.352  0.00  0.00    +0.000 A 
ATOM     19  C   UNL     1      -0.648   9.882  23.279  0.00  0.00    +0.000 A 
ATOM     20  N   UNL     1      -1.283  11.044  23.016  0.00  0.00    +0.000 NA
ATOM     21  C   UNL     1      -1.137  11.559  21.778  0.00  0.00    +0.000 A 
ATOM     22  C   UNL     1      -0.384  10.958  20.786  0.00  0.00    +0.000 A 
ENDBRANCH  14  17
ENDBRANCH   3  13
TORSDOF 4
ENDMDL
MODEL 9
REMARK VINA RESULT:      -6.5      0.989      1.489
REMARK  Name = 
REMARK  5 active torsions:
REMARK  status: ('A' for Active; 'I' for Inactive)
REMARK    1  A    between atoms: C_1  and  O_2
REMARK    2  A    between atoms: O_2  and  C_3
REMARK    3  A    between atoms: C_6  and  C_7
REMARK    4  A    between atoms: N_9  and  N_10
REMARK    5  A    between atoms: C_11  and  C_13
REMARK                            x       y       z     vdW  Elec       q    Type
REMARK                         _______ _______ _______ _____ _____    ______ ____
ROOT
ATOM      1  C   UNL     1       1.253   8.621  20.235  0.00  0.00    +0.000 C 
ATOM      2  O   UNL     1       1.454   8.870  19.049  0.00  0.00    +0.000 OA
ATOM      3  N   UNL     1       1.690   7.444  20.818  0.00  0.00    +0.000 N 
ATOM      4  H   UNL     1       1.594   7.205  21.799  0.00  0.00    +0.000 HD
ENDROOT
BRANCH   1   8
ATOM      5  C   UNL     1      -0.775  11.520  22.722  0.00  0.00    +0.000 A 
ATOM      6  C   UNL     1      -0.100  11.904  21.561  0.00  0.00    +0.000 A 
ATOM      7  C   UNL     1       0.535  10.951  20.759  0.00  0.00    +0.000 A 
ATOM      8  C   UNL     1       0.527   9.595  21.117  0.00  0.00    +0.000 A 
ATOM      9  C   UNL     1      -0.150   9.217  22.284  0.00  0.00    +0.000 A 
ATOM     10  C   UNL     1      -0.792  10.173  23.080  0.00  0.00    +0.000 A 
BRANCH   5  12
ATOM     11  C   UNL     1      -2.762  12.501  23.545  0.00  0.00    +0.000 C 
ATOM     12  O   UNL     1      -1.341  12.535  23.441  0.00  0.00    +0.000 OA
ENDBRANCH   5  12
ENDBRANCH   1   8
BRANCH   3  13
ATOM     13  N   UNL     1       2.433   6.531  20.058  0.00  0.00    +0.000 N 
ATOM     14  C   UNL     1       1.967   5.228  20.023  0.00  0.00    +0.000 C 
ATOM     15  O   UNL     1       0.963   4.878  20.640  0.00  0.00    +0.000 OA
ATOM     16  H   UNL     1       3.144   6.920  19.442  0.00  0.00    +0.000 HD
BRANCH  14  17
ATOM     17  C   UNL     1       2.714   4.251  19.193  0.00  0.00    +0.000 A 
ATOM     18  C   UNL     1       3.833   4.607  18.444  0.00  0.00    +0.000 A 
ATOM     19  C   UNL     1       4.492   3.603  17.752  0.00  0.00    +0.000 A 
ATOM     20  N   UNL     1       4.108   2.309  17.756  0.00  0.00    +0.000 NA
ATOM     21  C   UNL     1       3.025   1.991  18.495  0.00  0.00    +0.000 A 
ATOM     22  C   UNL     1       2.304   2.915  19.228  0.00  0.00    +0.000 A 
ENDBRANCH  14  17
ENDBRANCH   3  13
TORSDOF 4
ENDMDL
