MODEL 1
REMARK VINA RESULT:      -7.8      0.000      0.000
REMARK  Name = 
REMARK  4 active torsions:
REMARK  status: ('A' for Active; 'I' for Inactive)
REMARK    1  A    between atoms: C_1  and  C_2
REMARK    2  A    between atoms: C_4  and  C_5
REMARK    3  A    between atoms: C_13  and  C_14
REMARK    4  A    between atoms: C_14  and  N_16
REMARK                            x       y       z     vdW  Elec       q    Type
REMARK                         _______ _______ _______ _____ _____    ______ ____
ROOT
ATOM      1  C   UNL     1       7.864   5.692  19.260  0.00  0.00    +0.000 C 
ATOM      2  C   UNL     1       7.098   5.156  18.112  0.00  0.00    +0.000 A 
ATOM      3  N   UNL     1       7.565   5.215  16.825  0.00  0.00    +0.000 N 
ATOM      4  C   UNL     1       6.646   4.627  15.989  0.00  0.00    +0.000 A 
ATOM      5  N   UNL     1       5.612   4.204  16.690  0.00  0.00    +0.000 NA
ATOM      6  C   UNL     1       5.869   4.512  18.022  0.00  0.00    +0.000 A 
ATOM      7  H   UNL     1       8.430   5.643  16.527  0.00  0.00    +0.000 HD
ENDROOT
BRANCH   4   8
ATOM      8  C   UNL     1       6.810   4.538  14.539  0.00  0.00    +0.000 A 
ATOM      9  C   UNL     1       7.689   5.385  13.846  0.00  0.00    +0.000 A 
ATOM     10  C   UNL     1       7.834   5.284  12.461  0.00  0.00    +0.000 A 
ATOM     11  C   UNL     1       7.095   4.338  11.752  0.00  0.00    +0.000 A 
ATOM     12  C   UNL     1       6.220   3.493  12.432  0.00  0.00    +0.000 A 
ATOM     13 CL   UNL     1       5.307   2.331  11.552  0.00  0.00    +0.000 Cl
ATOM     14  C   UNL     1       6.078   3.584  13.816  0.00  0.00    +0.000 A 
ENDBRANCH   4   8
BRANCH   6  15
ATOM     15  C   UNL     1       4.954   4.209  19.142  0.00  0.00    +0.000 C 
ATOM     16  O   UNL     1       4.914   3.099  19.670  0.00  0.00    +0.000 OA
BRANCH  15  17
ATOM     17  N   UNL     1       4.176   5.291  19.484  0.00  0.00    +0.000 NA
ATOM     18  C   UNL     1       3.033   5.103  20.039  0.00  0.00    +0.000 C 
ATOM     19  N   UNL     1       2.397   3.956  20.366  0.00  0.00    +0.000 N 
ATOM     20  N   UNL     1       2.251   6.158  20.377  0.00  0.00    +0.000 N 
ATOM     21  H   UNL     1       3.010   3.142  20.296  0.00  0.00    +0.000 HD
ATOM     22  H   UNL     1       1.944   3.991  21.271  0.00  0.00    +0.000 HD
ATOM     23  H   UNL     1       2.560   7.007  19.912  0.00  0.00    +0.000 HD
ATOM     24  H   UNL     1       1.264   5.989  20.230  0.00  0.00    +0.000 HD
ENDBRANCH  15  17
ENDBRANCH   6  15
TORSDOF 3
ENDMDL
MODEL 2
REMARK VINA RESULT:      -7.7      3.246      6.600
REMARK  Name = 
REMARK  4 active torsions:
REMARK  status: ('A' for Active; 'I' for Inactive)
REMARK    1  A    between atoms: C_1  and  C_2
REMARK    2  A    between atoms: C_4  and  C_5
REMARK    3  A    between atoms: C_13  and  C_14
REMARK    4  A    between atoms: C_14  and  N_16
REMARK                            x       y       z     vdW  Elec       q    Type
REMARK                         _______ _______ _______ _____ _____    ______ ____
ROOT
ATOM      1  C   UNL     1       7.497   7.234  17.120  0.00  0.00    +0.000 C 
ATOM      2  C   UNL     1       6.378   6.265  17.086  0.00  0.00    +0.000 A 
ATOM      3  N   UNL     1       5.407   6.230  18.051  0.00  0.00    +0.000 N 
ATOM      4  C   UNL     1       4.502   5.243  17.741  0.00  0.00    +0.000 A 
ATOM      5  N   UNL     1       4.863   4.644  16.622  0.00  0.00    +0.000 NA
ATOM      6  C   UNL     1       6.028   5.267  16.183  0.00  0.00    +0.000 A 
ATOM      7  H   UNL     1       5.368   6.813  18.876  0.00  0.00    +0.000 HD
ENDROOT
BRANCH   4   8
ATOM      8  C   UNL     1       3.347   4.910  18.572  0.00  0.00    +0.000 A 
ATOM      9  C   UNL     1       3.004   5.681  19.694  0.00  0.00    +0.000 A 
ATOM     10  C   UNL     1       1.896   5.349  20.476  0.00  0.00    +0.000 A 
ATOM     11  C   UNL     1       1.121   4.237  20.148  0.00  0.00    +0.000 A 
ATOM     12  C   UNL     1       1.455   3.466  19.036  0.00  0.00    +0.000 A 
ATOM     13 CL   UNL     1       0.500   2.091  18.638  0.00  0.00    +0.000 Cl
ATOM     14  C   UNL     1       2.556   3.797  18.248  0.00  0.00    +0.000 A 
ENDBRANCH   4   8
BRANCH   6  15
ATOM     15  C   UNL     1       6.765   4.894  14.958  0.00  0.00    +0.000 C 
ATOM     16  O   UNL     1       7.815   5.446  14.634  0.00  0.00    +0.000 OA
BRANCH  15  17
ATOM     17  N   UNL     1       6.130   3.896  14.255  0.00  0.00    +0.000 NA
ATOM     18  C   UNL     1       6.385   3.736  13.006  0.00  0.00    +0.000 C 
ATOM     19  N   UNL     1       7.215   4.422  12.188  0.00  0.00    +0.000 N 
ATOM     20  N   UNL     1       5.764   2.763  12.296  0.00  0.00    +0.000 N 
ATOM     21  H   UNL     1       7.836   5.048  12.705  0.00  0.00    +0.000 HD
ATOM     22  H   UNL     1       7.743   3.826  11.561  0.00  0.00    +0.000 HD
ATOM     23  H   UNL     1       4.950   2.411  12.792  0.00  0.00    +0.000 HD
ATOM     24  H   UNL     1       5.535   3.040  11.350  0.00  0.00    +0.000 HD
ENDBRANCH  15  17
ENDBRANCH   6  15
TORSDOF 3
ENDMDL
MODEL 3
REMARK VINA RESULT:      -7.7      1.228      1.528
REMARK  Name = 
REMARK  4 active torsions:
REMARK  status: ('A' for Active; 'I' for Inactive)
REMARK    1  A    between atoms: C_1  and  C_2
REMARK    2  A    between atoms: C_4  and  C_5
REMARK    3  A    between atoms: C_13  and  C_14
REMARK    4  A    between atoms: C_14  and  N_16
REMARK                            x       y       z     vdW  Elec       q    Type
REMARK                         _______ _______ _______ _____ _____    ______ ____
ROOT
ATOM      1  C   UNL     1       7.649   5.740  19.196  0.00  0.00    +0.000 C 
ATOM      2  C   UNL     1       6.903   5.228  18.023  0.00  0.00    +0.000 A 
ATOM      3  N   UNL     1       7.432   5.227  16.760  0.00  0.00    +0.000 N 
ATOM      4  C   UNL     1       6.517   4.680  15.892  0.00  0.00    +0.000 A 
ATOM      5  N   UNL     1       5.425   4.343  16.551  0.00  0.00    +0.000 NA
ATOM      6  C   UNL     1       5.640   4.665  17.888  0.00  0.00    +0.000 A 
ATOM      7  H   UNL     1       8.338   5.590  16.495  0.00  0.00    +0.000 HD
ENDROOT
BRANCH   4   8
ATOM      8  C   UNL     1       6.742   4.547  14.454  0.00  0.00    +0.000 A 
ATOM      9  C   UNL     1       7.636   5.386  13.770  0.00  0.00    +0.000 A 
ATOM     10  C   UNL     1       7.839   5.243  12.396  0.00  0.00    +0.000 A 
ATOM     11  C   UNL     1       7.146   4.262  11.689  0.00  0.00    +0.000 A 
ATOM     12  C   UNL     1       6.257   3.424  12.360  0.00  0.00    +0.000 A 
ATOM     13 CL   UNL     1       5.398   2.218  11.483  0.00  0.00    +0.000 Cl
ATOM     14  C   UNL     1       6.055   3.558  13.733  0.00  0.00    +0.000 A 
ENDBRANCH   4   8
BRANCH   6  15
ATOM     15  C   UNL     1       4.655   4.448  18.968  0.00  0.00    +0.000 C 
ATOM     16  O   UNL     1       4.321   5.347  19.737  0.00  0.00    +0.000 OA
BRANCH  15  17
ATOM     17  N   UNL     1       4.198   3.151  18.999  0.00  0.00    +0.000 NA
ATOM     18  C   UNL     1       2.963   2.905  18.744  0.00  0.00    +0.000 C 
ATOM     19  N   UNL     1       1.949   3.745  18.438  0.00  0.00    +0.000 N 
ATOM     20  N   UNL     1       2.493   1.634  18.777  0.00  0.00    +0.000 N 
ATOM     21  H   UNL     1       2.280   4.689  18.228  0.00  0.00    +0.000 HD
ATOM     22  H   UNL     1       1.350   3.399  17.698  0.00  0.00    +0.000 HD
ATOM     23  H   UNL     1       3.141   1.017  19.259  0.00  0.00    +0.000 HD
ATOM     24  H   UNL     1       1.556   1.561  19.153  0.00  0.00    +0.000 HD
ENDBRANCH  15  17
ENDBRANCH   6  15
TORSDOF 3
ENDMDL
MODEL 4
REMARK VINA RESULT:      -7.7      3.718      6.820
REMARK  Name = 
REMARK  4 active torsions:
REMARK  status: ('A' for Active; 'I' for Inactive)
REMARK    1  A    between atoms: C_1  and  C_2
REMARK    2  A    between atoms: C_4  and  C_5
REMARK    3  A    between atoms: C_13  and  C_14
REMARK    4  A    between atoms: C_14  and  N_16
REMARK                            x       y       z     vdW  Elec       q    Type
REMARK                         _______ _______ _______ _____ _____    ______ ____
ROOT
ATOM      1  C   UNL     1       7.104   6.989  17.264  0.00  0.00    +0.000 C 
ATOM      2  C   UNL     1       6.113   5.902  17.091  0.00  0.00    +0.000 A 
ATOM      3  N   UNL     1       5.091   5.693  17.979  0.00  0.00    +0.000 N 
ATOM      4  C   UNL     1       4.333   4.632  17.545  0.00  0.00    +0.000 A 
ATOM      5  N   UNL     1       4.836   4.154  16.423  0.00  0.00    +0.000 NA
ATOM      6  C   UNL     1       5.945   4.933  16.109  0.00  0.00    +0.000 A 
ATOM      7  H   UNL     1       4.928   6.212  18.830  0.00  0.00    +0.000 HD
ENDROOT
BRANCH   4   8
ATOM      8  C   UNL     1       3.172   4.115  18.269  0.00  0.00    +0.000 A 
ATOM      9  C   UNL     1       1.942   3.904  17.627  0.00  0.00    +0.000 A 
ATOM     10  C   UNL     1       0.844   3.409  18.334  0.00  0.00    +0.000 A 
ATOM     11  C   UNL     1       0.964   3.124  19.694  0.00  0.00    +0.000 A 
ATOM     12  C   UNL     1       2.182   3.331  20.338  0.00  0.00    +0.000 A 
ATOM     13 CL   UNL     1       2.324   2.984  22.018  0.00  0.00    +0.000 Cl
ATOM     14  C   UNL     1       3.283   3.819  19.636  0.00  0.00    +0.000 A 
ENDBRANCH   4   8
BRANCH   6  15
ATOM     15  C   UNL     1       6.801   4.729  14.922  0.00  0.00    +0.000 C 
ATOM     16  O   UNL     1       7.783   5.433  14.696  0.00  0.00    +0.000 OA
BRANCH  15  17
ATOM     17  N   UNL     1       6.354   3.694  14.133  0.00  0.00    +0.000 NA
ATOM     18  C   UNL     1       6.579   3.716  12.868  0.00  0.00    +0.000 C 
ATOM     19  N   UNL     1       7.211   4.637  12.107  0.00  0.00    +0.000 N 
ATOM     20  N   UNL     1       6.140   2.708  12.074  0.00  0.00    +0.000 N 
ATOM     21  H   UNL     1       7.713   5.325  12.673  0.00  0.00    +0.000 HD
ATOM     22  H   UNL     1       7.821   4.230  11.408  0.00  0.00    +0.000 HD
ATOM     23  H   UNL     1       5.440   2.146  12.550  0.00  0.00    +0.000 HD
ATOM     24  H   UNL     1       5.815   3.023  11.169  0.00  0.00    +0.000 HD
ENDBRANCH  15  17
ENDBRANCH   6  15
TORSDOF 3
ENDMDL
MODEL 5
REMARK VINA RESULT:      -7.7      3.522      6.494
REMARK  Name = 
REMARK  4 active torsions:
REMARK  status: ('A' for Active; 'I' for Inactive)
REMARK    1  A    between atoms: C_1  and  C_2
REMARK    2  A    between atoms: C_4  and  C_5
REMARK    3  A    between atoms: C_13  and  C_14
REMARK    4  A    between atoms: C_14  and  N_16
REMARK                            x       y       z     vdW  Elec       q    Type
REMARK                         _______ _______ _______ _____ _____    ______ ____
ROOT
ATOM      1  C   UNL     1       5.522   4.438  14.363  0.00  0.00    +0.000 C 
ATOM      2  C   UNL     1       5.231   4.280  15.807  0.00  0.00    +0.000 A 
ATOM      3  N   UNL     1       4.016   3.845  16.267  0.00  0.00    +0.000 N 
ATOM      4  C   UNL     1       4.053   3.785  17.640  0.00  0.00    +0.000 A 
ATOM      5  N   UNL     1       5.239   4.172  18.070  0.00  0.00    +0.000 NA
ATOM      6  C   UNL     1       6.000   4.480  16.947  0.00  0.00    +0.000 A 
ATOM      7  H   UNL     1       3.209   3.626  15.699  0.00  0.00    +0.000 HD
ENDROOT
BRANCH   4   8
ATOM      8  C   UNL     1       2.916   3.385  18.465  0.00  0.00    +0.000 A 
ATOM      9  C   UNL     1       1.705   2.965  17.892  0.00  0.00    +0.000 A 
ATOM     10  C   UNL     1       0.629   2.585  18.697  0.00  0.00    +0.000 A 
ATOM     11  C   UNL     1       0.750   2.626  20.085  0.00  0.00    +0.000 A 
ATOM     12  C   UNL     1       1.949   3.041  20.662  0.00  0.00    +0.000 A 
ATOM     13 CL   UNL     1       2.093   3.096  22.376  0.00  0.00    +0.000 Cl
ATOM     14  C   UNL     1       3.029   3.415  19.864  0.00  0.00    +0.000 A 
ENDBRANCH   4   8
BRANCH   6  15
ATOM     15  C   UNL     1       7.398   4.958  16.989  0.00  0.00    +0.000 C 
ATOM     16  O   UNL     1       8.337   4.208  17.248  0.00  0.00    +0.000 OA
BRANCH  15  17
ATOM     17  N   UNL     1       7.492   6.306  16.727  0.00  0.00    +0.000 NA
ATOM     18  C   UNL     1       7.827   7.115  17.667  0.00  0.00    +0.000 C 
ATOM     19  N   UNL     1       8.115   6.877  18.966  0.00  0.00    +0.000 N 
ATOM     20  N   UNL     1       7.918   8.446  17.427  0.00  0.00    +0.000 N 
ATOM     21  H   UNL     1       8.233   5.880  19.157  0.00  0.00    +0.000 HD
ATOM     22  H   UNL     1       8.910   7.406  19.304  0.00  0.00    +0.000 HD
ATOM     23  H   UNL     1       7.455   8.695  16.558  0.00  0.00    +0.000 HD
ATOM     24  H   UNL     1       7.596   9.016  18.200  0.00  0.00    +0.000 HD
ENDBRANCH  15  17
ENDBRANCH   6  15
TORSDOF 3
ENDMDL
MODEL 6
REMARK VINA RESULT:      -7.6      4.039      6.984
REMARK  Name = 
REMARK  4 active torsions:
REMARK  status: ('A' for Active; 'I' for Inactive)
REMARK    1  A    between atoms: C_1  and  C_2
REMARK    2  A    between atoms: C_4  and  C_5
REMARK    3  A    between atoms: C_13  and  C_14
REMARK    4  A    between atoms: C_14  and  N_16
REMARK                            x       y       z     vdW  Elec       q    Type
REMARK                         _______ _______ _______ _____ _____    ______ ____
ROOT
ATOM      1  C   UNL     1       4.730   2.955  19.403  0.00  0.00    +0.000 C 
ATOM      2  C   UNL     1       4.557   4.313  18.838  0.00  0.00    +0.000 A 
ATOM      3  N   UNL     1       3.558   5.156  19.246  0.00  0.00    +0.000 N 
ATOM      4  C   UNL     1       3.663   6.341  18.558  0.00  0.00    +0.000 A 
ATOM      5  N   UNL     1       4.683   6.282  17.723  0.00  0.00    +0.000 NA
ATOM      6  C   UNL     1       5.267   5.029  17.881  0.00  0.00    +0.000 A 
ATOM      7  H   UNL     1       2.840   4.941  19.924  0.00  0.00    +0.000 HD
ENDROOT
BRANCH   4   8
ATOM      8  C   UNL     1       2.739   7.461  18.726  0.00  0.00    +0.000 A 
ATOM      9  C   UNL     1       2.533   8.402  17.705  0.00  0.00    +0.000 A 
ATOM     10  C   UNL     1       1.646   9.465  17.883  0.00  0.00    +0.000 A 
ATOM     11  C   UNL     1       0.958   9.603  19.088  0.00  0.00    +0.000 A 
ATOM     12  C   UNL     1       1.157   8.673  20.107  0.00  0.00    +0.000 A 
ATOM     13 CL   UNL     1       0.311   8.850  21.595  0.00  0.00    +0.000 Cl
ATOM     14  C   UNL     1       2.037   7.606  19.932  0.00  0.00    +0.000 A 
ENDBRANCH   4   8
BRANCH   6  15
ATOM     15  C   UNL     1       6.445   4.554  17.126  0.00  0.00    +0.000 C 
ATOM     16  O   UNL     1       7.594   4.756  17.514  0.00  0.00    +0.000 OA
BRANCH  15  17
ATOM     17  N   UNL     1       6.089   3.899  15.969  0.00  0.00    +0.000 NA
ATOM     18  C   UNL     1       6.595   4.268  14.848  0.00  0.00    +0.000 C 
ATOM     19  N   UNL     1       7.469   5.259  14.566  0.00  0.00    +0.000 N 
ATOM     20  N   UNL     1       6.251   3.638  13.698  0.00  0.00    +0.000 N 
ATOM     21  H   UNL     1       7.895   5.650  15.409  0.00  0.00    +0.000 HD
ATOM     22  H   UNL     1       8.179   4.991  13.894  0.00  0.00    +0.000 HD
ATOM     23  H   UNL     1       5.410   3.081  13.823  0.00  0.00    +0.000 HD
ATOM     24  H   UNL     1       6.171   4.263  12.905  0.00  0.00    +0.000 HD
ENDBRANCH  15  17
ENDBRANCH   6  15
TORSDOF 3
ENDMDL
MODEL 7
REMARK VINA RESULT:      -7.6      1.572      2.036
REMARK  Name = 
REMARK  4 active torsions:
REMARK  status: ('A' for Active; 'I' for Inactive)
REMARK    1  A    between atoms: C_1  and  C_2
REMARK    2  A    between atoms: C_4  and  C_5
REMARK    3  A    between atoms: C_13  and  C_14
REMARK    4  A    between atoms: C_14  and  N_16
REMARK                            x       y       z     vdW  Elec       q    Type
REMARK                         _______ _______ _______ _____ _____    ______ ____
ROOT
ATOM      1  C   UNL     1       3.738   7.282  17.719  0.00  0.00    +0.000 C 
ATOM      2  C   UNL     1       4.640   6.248  17.162  0.00  0.00    +0.000 A 
ATOM      3  N   UNL     1       4.947   6.183  15.828  0.00  0.00    +0.000 N 
ATOM      4  C   UNL     1       5.813   5.136  15.619  0.00  0.00    +0.000 A 
ATOM      5  N   UNL     1       6.062   4.529  16.764  0.00  0.00    +0.000 NA
ATOM      6  C   UNL     1       5.350   5.207  17.749  0.00  0.00    +0.000 A 
ATOM      7  H   UNL     1       4.580   6.785  15.105  0.00  0.00    +0.000 HD
ENDROOT
BRANCH   4   8
ATOM      8  C   UNL     1       6.327   4.759  14.304  0.00  0.00    +0.000 A 
ATOM      9  C   UNL     1       7.436   5.406  13.737  0.00  0.00    +0.000 A 
ATOM     10  C   UNL     1       7.914   5.031  12.480  0.00  0.00    +0.000 A 
ATOM     11  C   UNL     1       7.284   4.009  11.772  0.00  0.00    +0.000 A 
ATOM     12  C   UNL     1       6.182   3.362  12.328  0.00  0.00    +0.000 A 
ATOM     13 CL   UNL     1       5.404   2.104  11.449  0.00  0.00    +0.000 Cl
ATOM     14  C   UNL     1       5.705   3.727  13.586  0.00  0.00    +0.000 A 
ENDBRANCH   4   8
BRANCH   6  15
ATOM     15  C   UNL     1       5.353   4.845  19.181  0.00  0.00    +0.000 C 
ATOM     16  O   UNL     1       6.344   5.002  19.893  0.00  0.00    +0.000 OA
BRANCH  15  17
ATOM     17  N   UNL     1       4.149   4.315  19.584  0.00  0.00    +0.000 NA
ATOM     18  C   UNL     1       4.060   3.060  19.843  0.00  0.00    +0.000 C 
ATOM     19  N   UNL     1       4.995   2.085  19.778  0.00  0.00    +0.000 N 
ATOM     20  N   UNL     1       2.880   2.519  20.234  0.00  0.00    +0.000 N 
ATOM     21  H   UNL     1       5.938   2.463  19.660  0.00  0.00    +0.000 HD
ATOM     22  H   UNL     1       4.958   1.442  20.560  0.00  0.00    +0.000 HD
ATOM     23  H   UNL     1       2.106   3.148  20.035  0.00  0.00    +0.000 HD
ATOM     24  H   UNL     1       2.718   1.594  19.857  0.00  0.00    +0.000 HD
ENDBRANCH  15  17
ENDBRANCH   6  15
TORSDOF 3
ENDMDL
MODEL 8
REMARK VINA RESULT:      -7.6      4.381      7.076
REMARK  Name = 
REMARK  4 active torsions:
REMARK  status: ('A' for Active; 'I' for Inactive)
REMARK    1  A    between atoms: C_1  and  C_2
REMARK    2  A    between atoms: C_4  and  C_5
REMARK    3  A    between atoms: C_13  and  C_14
REMARK    4  A    between atoms: C_14  and  N_16
REMARK                            x       y       z     vdW  Elec       q    Type
REMARK                         _______ _______ _______ _____ _____    ______ ____
ROOT
ATOM      1  C   UNL     1       2.946   3.006  17.470  0.00  0.00    +0.000 C 
ATOM      2  C   UNL     1       3.282   4.414  17.779  0.00  0.00    +0.000 A 
ATOM      3  N   UNL     1       2.331   5.336  18.130  0.00  0.00    +0.000 N 
ATOM      4  C   UNL     1       2.945   6.542  18.370  0.00  0.00    +0.000 A 
ATOM      5  N   UNL     1       4.245   6.427  18.177  0.00  0.00    +0.000 NA
ATOM      6  C   UNL     1       4.488   5.105  17.815  0.00  0.00    +0.000 A 
ATOM      7  H   UNL     1       1.336   5.171  18.182  0.00  0.00    +0.000 HD
ENDROOT
BRANCH   4   8
ATOM      8  C   UNL     1       2.224   7.758  18.743  0.00  0.00    +0.000 A 
ATOM      9  C   UNL     1       1.998   8.790  17.818  0.00  0.00    +0.000 A 
ATOM     10  C   UNL     1       1.306   9.944  18.193  0.00  0.00    +0.000 A 
ATOM     11  C   UNL     1       0.838  10.081  19.498  0.00  0.00    +0.000 A 
ATOM     12  C   UNL     1       1.059   9.062  20.422  0.00  0.00    +0.000 A 
ATOM     13 CL   UNL     1       0.483   9.238  22.035  0.00  0.00    +0.000 Cl
ATOM     14  C   UNL     1       1.742   7.904  20.052  0.00  0.00    +0.000 A 
ENDBRANCH   4   8
BRANCH   6  15
ATOM     15  C   UNL     1       5.824   4.556  17.506  0.00  0.00    +0.000 C 
ATOM     16  O   UNL     1       6.132   4.186  16.374  0.00  0.00    +0.000 OA
BRANCH  15  17
ATOM     17  N   UNL     1       6.633   4.504  18.618  0.00  0.00    +0.000 NA
ATOM     18  C   UNL     1       7.426   5.481  18.874  0.00  0.00    +0.000 C 
ATOM     19  N   UNL     1       7.641   6.633  18.200  0.00  0.00    +0.000 N 
ATOM     20  N   UNL     1       8.235   5.444  19.961  0.00  0.00    +0.000 N 
ATOM     21  H   UNL     1       6.938   6.793  17.476  0.00  0.00    +0.000 HD
ATOM     22  H   UNL     1       7.728   7.442  18.805  0.00  0.00    +0.000 HD
ATOM     23  H   UNL     1       8.304   4.501  20.334  0.00  0.00    +0.000 HD
ATOM     24  H   UNL     1       9.148   5.849  19.797  0.00  0.00    +0.000 HD
ENDBRANCH  15  17
ENDBRANCH   6  15
TORSDOF 3
ENDMDL
MODEL 9
REMARK VINA RESULT:      -7.5      1.208      1.355
REMARK  Name = 
REMARK  4 active torsions:
REMARK  status: ('A' for Active; 'I' for Inactive)
REMARK    1  A    between atoms: C_1  and  C_2
REMARK    2  A    between atoms: C_4  and  C_5
REMARK    3  A    between atoms: C_13  and  C_14
REMARK    4  A    between atoms: C_14  and  N_16
REMARK                            x       y       z     vdW  Elec       q    Type
REMARK                         _______ _______ _______ _____ _____    ______ ____
ROOT
ATOM      1  C   UNL     1       7.103   5.544  19.380  0.00  0.00    +0.000 C 
ATOM      2  C   UNL     1       6.527   4.903  18.176  0.00  0.00    +0.000 A 
ATOM      3  N   UNL     1       7.048   5.094  16.923  0.00  0.00    +0.000 N 
ATOM      4  C   UNL     1       6.317   4.363  16.018  0.00  0.00    +0.000 A 
ATOM      5  N   UNL     1       5.348   3.721  16.643  0.00  0.00    +0.000 NA
ATOM      6  C   UNL     1       5.459   4.032  17.995  0.00  0.00    +0.000 A 
ATOM      7  H   UNL     1       7.827   5.694  16.689  0.00  0.00    +0.000 HD
ENDROOT
BRANCH   4   8
ATOM      8  C   UNL     1       6.580   4.354  14.581  0.00  0.00    +0.000 A 
ATOM      9  C   UNL     1       7.513   5.227  14.000  0.00  0.00    +0.000 A 
ATOM     10  C   UNL     1       7.752   5.203  12.624  0.00  0.00    +0.000 A 
ATOM     11  C   UNL     1       7.056   4.309  11.813  0.00  0.00    +0.000 A 
ATOM     12  C   UNL     1       6.129   3.438  12.381  0.00  0.00    +0.000 A 
ATOM     13 CL   UNL     1       5.268   2.340  11.375  0.00  0.00    +0.000 Cl
ATOM     14  C   UNL     1       5.891   3.453  13.755  0.00  0.00    +0.000 A 
ENDBRANCH   4   8
BRANCH   6  15
ATOM     15  C   UNL     1       4.559   3.518  19.048  0.00  0.00    +0.000 C 
ATOM     16  O   UNL     1       4.968   2.816  19.971  0.00  0.00    +0.000 OA
BRANCH  15  17
ATOM     17  N   UNL     1       3.254   3.906  18.849  0.00  0.00    +0.000 NA
ATOM     18  C   UNL     1       2.354   3.018  18.619  0.00  0.00    +0.000 C 
ATOM     19  N   UNL     1       2.457   1.674  18.518  0.00  0.00    +0.000 N 
ATOM     20  N   UNL     1       1.065   3.383  18.414  0.00  0.00    +0.000 N 
ATOM     21  H   UNL     1       3.366   1.332  18.836  0.00  0.00    +0.000 HD
ATOM     22  H   UNL     1       1.703   1.178  18.978  0.00  0.00    +0.000 HD
ATOM     23  H   UNL     1       0.993   4.376  18.213  0.00  0.00    +0.000 HD
ATOM     24  H   UNL     1       0.596   2.824  17.712  0.00  0.00    +0.000 HD
ENDBRANCH  15  17
ENDBRANCH   6  15
TORSDOF 3
ENDMDL
