MODEL 1
REMARK VINA RESULT:      -7.4      0.000      0.000
REMARK  Name = 
REMARK  9 active torsions:
REMARK  status: ('A' for Active; 'I' for Inactive)
REMARK    1  A    between atoms: C_1  and  O_2
REMARK    2  A    between atoms: O_2  and  C_3
REMARK    3  A    between atoms: C_7  and  C_8
REMARK    4  A    between atoms: C_8  and  N_9
REMARK    5  A    between atoms: N_14  and  C_15
REMARK    6  A    between atoms: N_18  and  C_19
REMARK    7  A    between atoms: C_19  and  C_20
REMARK    8  A    between atoms: C_20  and  C_21
REMARK    9  A    between atoms: C_20  and  C_22
REMARK                            x       y       z     vdW  Elec       q    Type
REMARK                         _______ _______ _______ _____ _____    ______ ____
ROOT
ATOM      1  N   UNL     1       5.784   4.756  16.875  0.00  0.00    +0.000 N 
ATOM      2  C   UNL     1       5.821   3.710  17.766  0.00  0.00    +0.000 A 
ATOM      3  C   UNL     1       4.650   3.749  18.491  0.00  0.00    +0.000 A 
ATOM      4  C   UNL     1       4.258   2.964  19.634  0.00  0.00    +0.000 A 
ATOM      5  O   UNL     1       4.971   2.081  20.092  0.00  0.00    +0.000 OA
ATOM      6  N   UNL     1       3.028   3.358  20.163  0.00  0.00    +0.000 N 
ATOM      7  C   UNL     1       2.604   2.724  21.396  0.00  0.00    +0.000 C 
ATOM      8  C   UNL     1       2.180   4.364  19.662  0.00  0.00    +0.000 A 
ATOM      9  O   UNL     1       1.090   4.596  20.197  0.00  0.00    +0.000 OA
ATOM     10  N   UNL     1       2.633   5.115  18.560  0.00  0.00    +0.000 N 
ATOM     11  C   UNL     1       3.858   4.790  17.988  0.00  0.00    +0.000 A 
ATOM     12  C   UNL     1       4.552   5.376  16.953  0.00  0.00    +0.000 A 
ENDROOT
BRANCH   1  13
ATOM     13  C   UNL     1       6.955   5.268  16.164  0.00  0.00    +0.000 C 
BRANCH  13  18
ATOM     14  C   UNL     1       6.060   3.582  12.870  0.00  0.00    +0.000 A 
ATOM     15  C   UNL     1       6.943   4.212  11.991  0.00  0.00    +0.000 A 
ATOM     16  C   UNL     1       7.820   5.194  12.453  0.00  0.00    +0.000 A 
ATOM     17  C   UNL     1       7.831   5.540  13.804  0.00  0.00    +0.000 A 
ATOM     18  C   UNL     1       6.958   4.911  14.702  0.00  0.00    +0.000 A 
ATOM     19  C   UNL     1       6.067   3.940  14.220  0.00  0.00    +0.000 A 
BRANCH  14  21
ATOM     20  C   UNL     1       5.881   1.711  11.421  0.00  0.00    +0.000 C 
ATOM     21  O   UNL     1       5.252   2.635  12.303  0.00  0.00    +0.000 OA
ENDBRANCH  14  21
ENDBRANCH  13  18
ENDBRANCH   1  13
BRANCH  10  22
ATOM     22  C   UNL     1       1.870   6.312  18.178  0.00  0.00    +0.000 C 
BRANCH  22  23
ATOM     23  C   UNL     1       2.426   7.647  18.710  0.00  0.00    +0.000 C 
ATOM     24  C   UNL     1       2.146   8.826  17.777  0.00  0.00    +0.000 C 
ATOM     25  C   UNL     1       1.804   7.949  20.082  0.00  0.00    +0.000 C 
ENDBRANCH  22  23
ENDBRANCH  10  22
TORSDOF 5
ENDMDL
MODEL 2
REMARK VINA RESULT:      -7.4      1.082      1.267
REMARK  Name = 
REMARK  9 active torsions:
REMARK  status: ('A' for Active; 'I' for Inactive)
REMARK    1  A    between atoms: C_1  and  O_2
REMARK    2  A    between atoms: O_2  and  C_3
REMARK    3  A    between atoms: C_7  and  C_8
REMARK    4  A    between atoms: C_8  and  N_9
REMARK    5  A    between atoms: N_14  and  C_15
REMARK    6  A    between atoms: N_18  and  C_19
REMARK    7  A    between atoms: C_19  and  C_20
REMARK    8  A    between atoms: C_20  and  C_21
REMARK    9  A    between atoms: C_20  and  C_22
REMARK                            x       y       z     vdW  Elec       q    Type
REMARK                         _______ _______ _______ _____ _____    ______ ____
ROOT
ATOM      1  N   UNL     1       5.579   4.742  16.663  0.00  0.00    +0.000 N 
ATOM      2  C   UNL     1       4.981   3.518  16.841  0.00  0.00    +0.000 A 
ATOM      3  C   UNL     1       3.936   3.698  17.722  0.00  0.00    +0.000 A 
ATOM      4  C   UNL     1       3.085   2.714  18.341  0.00  0.00    +0.000 A 
ATOM      5  O   UNL     1       3.188   1.519  18.097  0.00  0.00    +0.000 OA
ATOM      6  N   UNL     1       2.194   3.273  19.259  0.00  0.00    +0.000 N 
ATOM      7  C   UNL     1       1.385   2.356  20.039  0.00  0.00    +0.000 C 
ATOM      8  C   UNL     1       2.045   4.640  19.563  0.00  0.00    +0.000 A 
ATOM      9  O   UNL     1       1.188   5.018  20.370  0.00  0.00    +0.000 OA
ATOM     10  N   UNL     1       2.927   5.548  18.946  0.00  0.00    +0.000 N 
ATOM     11  C   UNL     1       3.854   5.062  18.030  0.00  0.00    +0.000 A 
ATOM     12  C   UNL     1       4.848   5.708  17.328  0.00  0.00    +0.000 A 
ENDROOT
BRANCH   1  13
ATOM     13  C   UNL     1       6.908   4.927  16.081  0.00  0.00    +0.000 C 
BRANCH  13  18
ATOM     14  C   UNL     1       6.103   3.543  12.628  0.00  0.00    +0.000 A 
ATOM     15  C   UNL     1       6.958   4.300  11.823  0.00  0.00    +0.000 A 
ATOM     16  C   UNL     1       7.786   5.270  12.389  0.00  0.00    +0.000 A 
ATOM     17  C   UNL     1       7.776   5.478  13.768  0.00  0.00    +0.000 A 
ATOM     18  C   UNL     1       6.932   4.721  14.591  0.00  0.00    +0.000 A 
ATOM     19  C   UNL     1       6.089   3.763  14.007  0.00  0.00    +0.000 A 
BRANCH  14  21
ATOM     20  C   UNL     1       4.197   3.118  11.278  0.00  0.00    +0.000 C 
ATOM     21  O   UNL     1       5.343   2.622  11.961  0.00  0.00    +0.000 OA
ENDBRANCH  14  21
ENDBRANCH  13  18
ENDBRANCH   1  13
BRANCH  10  22
ATOM     22  C   UNL     1       2.938   6.936  19.429  0.00  0.00    +0.000 C 
BRANCH  22  23
ATOM     23  C   UNL     1       1.860   7.855  18.823  0.00  0.00    +0.000 C 
ATOM     24  C   UNL     1       1.256   8.822  19.842  0.00  0.00    +0.000 C 
ATOM     25  C   UNL     1       2.472   8.672  17.675  0.00  0.00    +0.000 C 
ENDBRANCH  22  23
ENDBRANCH  10  22
TORSDOF 5
ENDMDL
MODEL 3
REMARK VINA RESULT:      -7.4      3.449      8.182
REMARK  Name = 
REMARK  9 active torsions:
REMARK  status: ('A' for Active; 'I' for Inactive)
REMARK    1  A    between atoms: C_1  and  O_2
REMARK    2  A    between atoms: O_2  and  C_3
REMARK    3  A    between atoms: C_7  and  C_8
REMARK    4  A    between atoms: C_8  and  N_9
REMARK    5  A    between atoms: N_14  and  C_15
REMARK    6  A    between atoms: N_18  and  C_19
REMARK    7  A    between atoms: C_19  and  C_20
REMARK    8  A    between atoms: C_20  and  C_21
REMARK    9  A    between atoms: C_20  and  C_22
REMARK                            x       y       z     vdW  Elec       q    Type
REMARK                         _______ _______ _______ _____ _____    ______ ____
ROOT
ATOM      1  N   UNL     1       1.827   8.589  18.903  0.00  0.00    +0.000 N 
ATOM      2  C   UNL     1       2.656   8.389  17.827  0.00  0.00    +0.000 A 
ATOM      3  C   UNL     1       3.199   7.128  17.957  0.00  0.00    +0.000 A 
ATOM      4  C   UNL     1       4.227   6.493  17.174  0.00  0.00    +0.000 A 
ATOM      5  O   UNL     1       4.741   7.040  16.207  0.00  0.00    +0.000 OA
ATOM      6  N   UNL     1       4.586   5.239  17.671  0.00  0.00    +0.000 N 
ATOM      7  C   UNL     1       5.707   4.571  17.038  0.00  0.00    +0.000 C 
ATOM      8  C   UNL     1       4.016   4.577  18.776  0.00  0.00    +0.000 A 
ATOM      9  O   UNL     1       4.393   3.444  19.098  0.00  0.00    +0.000 OA
ATOM     10  N   UNL     1       3.036   5.263  19.518  0.00  0.00    +0.000 N 
ATOM     11  C   UNL     1       2.638   6.526  19.091  0.00  0.00    +0.000 A 
ATOM     12  C   UNL     1       1.750   7.424  19.642  0.00  0.00    +0.000 A 
ENDROOT
BRANCH   1  13
ATOM     13  C   UNL     1       1.327   9.899  19.320  0.00  0.00    +0.000 C 
BRANCH  13  18
ATOM     14  C   UNL     1      -2.130  11.447  18.943  0.00  0.00    +0.000 A 
ATOM     15  C   UNL     1      -2.598  10.798  17.799  0.00  0.00    +0.000 A 
ATOM     16  C   UNL     1      -1.795   9.870  17.135  0.00  0.00    +0.000 A 
ATOM     17  C   UNL     1      -0.523   9.572  17.622  0.00  0.00    +0.000 A 
ATOM     18  C   UNL     1      -0.042  10.207  18.775  0.00  0.00    +0.000 A 
ATOM     19  C   UNL     1      -0.852  11.154  19.421  0.00  0.00    +0.000 A 
BRANCH  14  21
ATOM     20  C   UNL     1      -2.702  12.774  20.826  0.00  0.00    +0.000 C 
ATOM     21  O   UNL     1      -3.007  12.332  19.508  0.00  0.00    +0.000 OA
ENDBRANCH  14  21
ENDBRANCH  13  18
ENDBRANCH   1  13
BRANCH  10  22
ATOM     22  C   UNL     1       2.607   4.686  20.799  0.00  0.00    +0.000 C 
BRANCH  22  23
ATOM     23  C   UNL     1       1.293   3.882  20.755  0.00  0.00    +0.000 C 
ATOM     24  C   UNL     1       0.953   3.365  19.357  0.00  0.00    +0.000 C 
ATOM     25  C   UNL     1       1.396   2.683  21.710  0.00  0.00    +0.000 C 
ENDBRANCH  22  23
ENDBRANCH  10  22
TORSDOF 5
ENDMDL
MODEL 4
REMARK VINA RESULT:      -7.4      3.277      7.642
REMARK  Name = 
REMARK  9 active torsions:
REMARK  status: ('A' for Active; 'I' for Inactive)
REMARK    1  A    between atoms: C_1  and  O_2
REMARK    2  A    between atoms: O_2  and  C_3
REMARK    3  A    between atoms: C_7  and  C_8
REMARK    4  A    between atoms: C_8  and  N_9
REMARK    5  A    between atoms: N_14  and  C_15
REMARK    6  A    between atoms: N_18  and  C_19
REMARK    7  A    between atoms: C_19  and  C_20
REMARK    8  A    between atoms: C_20  and  C_21
REMARK    9  A    between atoms: C_20  and  C_22
REMARK                            x       y       z     vdW  Elec       q    Type
REMARK                         _______ _______ _______ _____ _____    ______ ____
ROOT
ATOM      1  N   UNL     1       2.311   7.377  18.275  0.00  0.00    +0.000 N 
ATOM      2  C   UNL     1       1.553   6.235  18.175  0.00  0.00    +0.000 A 
ATOM      3  C   UNL     1       2.374   5.171  18.482  0.00  0.00    +0.000 A 
ATOM      4  C   UNL     1       2.107   3.758  18.391  0.00  0.00    +0.000 A 
ATOM      5  O   UNL     1       1.020   3.323  18.038  0.00  0.00    +0.000 OA
ATOM      6  N   UNL     1       3.224   2.979  18.698  0.00  0.00    +0.000 N 
ATOM      7  C   UNL     1       3.104   1.546  18.506  0.00  0.00    +0.000 C 
ATOM      8  C   UNL     1       4.488   3.443  19.110  0.00  0.00    +0.000 A 
ATOM      9  O   UNL     1       5.392   2.649  19.394  0.00  0.00    +0.000 OA
ATOM     10  N   UNL     1       4.693   4.836  19.150  0.00  0.00    +0.000 N 
ATOM     11  C   UNL     1       3.629   5.677  18.842  0.00  0.00    +0.000 A 
ATOM     12  C   UNL     1       3.564   7.051  18.758  0.00  0.00    +0.000 A 
ENDROOT
BRANCH   1  13
ATOM     13  C   UNL     1       1.923   8.670  17.714  0.00  0.00    +0.000 C 
BRANCH  13  18
ATOM     14  C   UNL     1       0.356  10.231  20.813  0.00  0.00    +0.000 A 
ATOM     15  C   UNL     1      -0.782  10.832  20.271  0.00  0.00    +0.000 A 
ATOM     16  C   UNL     1      -1.042  10.750  18.903  0.00  0.00    +0.000 A 
ATOM     17  C   UNL     1      -0.171  10.050  18.068  0.00  0.00    +0.000 A 
ATOM     18  C   UNL     1       0.971   9.433  18.596  0.00  0.00    +0.000 A 
ATOM     19  C   UNL     1       1.231   9.541  19.971  0.00  0.00    +0.000 A 
BRANCH  14  21
ATOM     20  C   UNL     1      -0.691  10.325  22.941  0.00  0.00    +0.000 C 
ATOM     21  O   UNL     1       0.501  10.376  22.165  0.00  0.00    +0.000 OA
ENDBRANCH  14  21
ENDBRANCH  13  18
ENDBRANCH   1  13
BRANCH  10  22
ATOM     22  C   UNL     1       6.064   5.327  19.348  0.00  0.00    +0.000 C 
BRANCH  22  23
ATOM     23  C   UNL     1       6.803   5.760  18.067  0.00  0.00    +0.000 C 
ATOM     24  C   UNL     1       7.747   6.941  18.290  0.00  0.00    +0.000 C 
ATOM     25  C   UNL     1       7.618   4.576  17.524  0.00  0.00    +0.000 C 
ENDBRANCH  22  23
ENDBRANCH  10  22
TORSDOF 5
ENDMDL
MODEL 5
REMARK VINA RESULT:      -7.3      3.237      7.631
REMARK  Name = 
REMARK  9 active torsions:
REMARK  status: ('A' for Active; 'I' for Inactive)
REMARK    1  A    between atoms: C_1  and  O_2
REMARK    2  A    between atoms: O_2  and  C_3
REMARK    3  A    between atoms: C_7  and  C_8
REMARK    4  A    between atoms: C_8  and  N_9
REMARK    5  A    between atoms: N_14  and  C_15
REMARK    6  A    between atoms: N_18  and  C_19
REMARK    7  A    between atoms: C_19  and  C_20
REMARK    8  A    between atoms: C_20  and  C_21
REMARK    9  A    between atoms: C_20  and  C_22
REMARK                            x       y       z     vdW  Elec       q    Type
REMARK                         _______ _______ _______ _____ _____    ______ ____
ROOT
ATOM      1  N   UNL     1       1.777   8.715  19.089  0.00  0.00    +0.000 N 
ATOM      2  C   UNL     1       2.582   8.531  17.991  0.00  0.00    +0.000 A 
ATOM      3  C   UNL     1       3.101   7.257  18.073  0.00  0.00    +0.000 A 
ATOM      4  C   UNL     1       4.101   6.625  17.251  0.00  0.00    +0.000 A 
ATOM      5  O   UNL     1       4.607   7.191  16.291  0.00  0.00    +0.000 OA
ATOM      6  N   UNL     1       4.443   5.350  17.703  0.00  0.00    +0.000 N 
ATOM      7  C   UNL     1       5.538   4.679  17.029  0.00  0.00    +0.000 C 
ATOM      8  C   UNL     1       3.881   4.666  18.799  0.00  0.00    +0.000 A 
ATOM      9  O   UNL     1       4.241   3.516  19.079  0.00  0.00    +0.000 OA
ATOM     10  N   UNL     1       2.929   5.349  19.580  0.00  0.00    +0.000 N 
ATOM     11  C   UNL     1       2.550   6.632  19.199  0.00  0.00    +0.000 A 
ATOM     12  C   UNL     1       1.691   7.530  19.794  0.00  0.00    +0.000 A 
ENDROOT
BRANCH   1  13
ATOM     13  C   UNL     1       1.312  10.021  19.554  0.00  0.00    +0.000 C 
BRANCH  13  18
ATOM     14  C   UNL     1      -1.667  10.099  17.186  0.00  0.00    +0.000 A 
ATOM     15  C   UNL     1      -2.207  11.356  17.467  0.00  0.00    +0.000 A 
ATOM     16  C   UNL     1      -1.623  12.177  18.431  0.00  0.00    +0.000 A 
ATOM     17  C   UNL     1      -0.482  11.752  19.111  0.00  0.00    +0.000 A 
ATOM     18  C   UNL     1       0.080  10.498  18.835  0.00  0.00    +0.000 A 
ATOM     19  C   UNL     1      -0.530   9.673  17.877  0.00  0.00    +0.000 A 
BRANCH  14  21
ATOM     20  C   UNL     1      -2.972  10.145  15.204  0.00  0.00    +0.000 C 
ATOM     21  O   UNL     1      -2.324   9.387  16.220  0.00  0.00    +0.000 OA
ENDBRANCH  14  21
ENDBRANCH  13  18
ENDBRANCH   1  13
BRANCH  10  22
ATOM     22  C   UNL     1       2.513   4.741  20.851  0.00  0.00    +0.000 C 
BRANCH  22  23
ATOM     23  C   UNL     1       1.239   3.878  20.785  0.00  0.00    +0.000 C 
ATOM     24  C   UNL     1       0.861   3.475  19.360  0.00  0.00    +0.000 C 
ATOM     25  C   UNL     1       1.442   2.603  21.618  0.00  0.00    +0.000 C 
ENDBRANCH  22  23
ENDBRANCH  10  22
TORSDOF 5
ENDMDL
MODEL 6
REMARK VINA RESULT:      -7.3      4.049      6.984
REMARK  Name = 
REMARK  9 active torsions:
REMARK  status: ('A' for Active; 'I' for Inactive)
REMARK    1  A    between atoms: C_1  and  O_2
REMARK    2  A    between atoms: O_2  and  C_3
REMARK    3  A    between atoms: C_7  and  C_8
REMARK    4  A    between atoms: C_8  and  N_9
REMARK    5  A    between atoms: N_14  and  C_15
REMARK    6  A    between atoms: N_18  and  C_19
REMARK    7  A    between atoms: C_19  and  C_20
REMARK    8  A    between atoms: C_20  and  C_21
REMARK    9  A    between atoms: C_20  and  C_22
REMARK                            x       y       z     vdW  Elec       q    Type
REMARK                         _______ _______ _______ _____ _____    ______ ____
ROOT
ATOM      1  N   UNL     1       1.865   8.565  18.485  0.00  0.00    +0.000 N 
ATOM      2  C   UNL     1       1.852   8.667  19.855  0.00  0.00    +0.000 A 
ATOM      3  C   UNL     1       0.828   9.524  20.193  0.00  0.00    +0.000 A 
ATOM      4  C   UNL     1       0.482  10.070  21.480  0.00  0.00    +0.000 A 
ATOM      5  O   UNL     1       1.092   9.772  22.499  0.00  0.00    +0.000 OA
ATOM      6  N   UNL     1      -0.568  10.988  21.413  0.00  0.00    +0.000 N 
ATOM      7  C   UNL     1      -0.906  11.698  22.631  0.00  0.00    +0.000 C 
ATOM      8  C   UNL     1      -1.294  11.353  20.263  0.00  0.00    +0.000 A 
ATOM      9  O   UNL     1      -2.235  12.152  20.337  0.00  0.00    +0.000 OA
ATOM     10  N   UNL     1      -0.888  10.807  19.030  0.00  0.00    +0.000 N 
ATOM     11  C   UNL     1       0.162   9.895  19.017  0.00  0.00    +0.000 A 
ATOM     12  C   UNL     1       0.784   9.255  17.968  0.00  0.00    +0.000 A 
ENDROOT
BRANCH   1  13
ATOM     13  C   UNL     1       2.986   8.032  17.713  0.00  0.00    +0.000 C 
BRANCH  13  18
ATOM     14  C   UNL     1       4.852   4.792  18.427  0.00  0.00    +0.000 A 
ATOM     15  C   UNL     1       3.797   3.880  18.504  0.00  0.00    +0.000 A 
ATOM     16  C   UNL     1       2.480   4.308  18.341  0.00  0.00    +0.000 A 
ATOM     17  C   UNL     1       2.209   5.651  18.083  0.00  0.00    +0.000 A 
ATOM     18  C   UNL     1       3.256   6.579  17.993  0.00  0.00    +0.000 A 
ATOM     19  C   UNL     1       4.575   6.138  18.179  0.00  0.00    +0.000 A 
BRANCH  14  21
ATOM     20  C   UNL     1       7.202   5.115  18.338  0.00  0.00    +0.000 C 
ATOM     21  O   UNL     1       6.098   4.255  18.599  0.00  0.00    +0.000 OA
ENDBRANCH  14  21
ENDBRANCH  13  18
ENDBRANCH   1  13
BRANCH  10  22
ATOM     22  C   UNL     1      -1.480  11.355  17.802  0.00  0.00    +0.000 C 
BRANCH  22  23
ATOM     23  C   UNL     1      -2.242  10.343  16.926  0.00  0.00    +0.000 C 
ATOM     24  C   UNL     1      -3.392   9.657  17.664  0.00  0.00    +0.000 C 
ATOM     25  C   UNL     1      -2.811  11.062  15.693  0.00  0.00    +0.000 C 
ENDBRANCH  22  23
ENDBRANCH  10  22
TORSDOF 5
ENDMDL
MODEL 7
REMARK VINA RESULT:      -7.2      2.639      7.812
REMARK  Name = 
REMARK  9 active torsions:
REMARK  status: ('A' for Active; 'I' for Inactive)
REMARK    1  A    between atoms: C_1  and  O_2
REMARK    2  A    between atoms: O_2  and  C_3
REMARK    3  A    between atoms: C_7  and  C_8
REMARK    4  A    between atoms: C_8  and  N_9
REMARK    5  A    between atoms: N_14  and  C_15
REMARK    6  A    between atoms: N_18  and  C_19
REMARK    7  A    between atoms: C_19  and  C_20
REMARK    8  A    between atoms: C_20  and  C_21
REMARK    9  A    between atoms: C_20  and  C_22
REMARK                            x       y       z     vdW  Elec       q    Type
REMARK                         _______ _______ _______ _____ _____    ______ ____
ROOT
ATOM      1  N   UNL     1       2.705   8.104  18.219  0.00  0.00    +0.000 N 
ATOM      2  C   UNL     1       2.137   7.406  19.257  0.00  0.00    +0.000 A 
ATOM      3  C   UNL     1       2.552   6.096  19.145  0.00  0.00    +0.000 A 
ATOM      4  C   UNL     1       2.134   4.940  19.895  0.00  0.00    +0.000 A 
ATOM      5  O   UNL     1       1.328   5.016  20.813  0.00  0.00    +0.000 OA
ATOM      6  N   UNL     1       2.707   3.757  19.426  0.00  0.00    +0.000 N 
ATOM      7  C   UNL     1       2.250   2.517  20.023  0.00  0.00    +0.000 C 
ATOM      8  C   UNL     1       3.639   3.631  18.377  0.00  0.00    +0.000 A 
ATOM      9  O   UNL     1       4.108   2.526  18.078  0.00  0.00    +0.000 OA
ATOM     10  N   UNL     1       3.984   4.794  17.663  0.00  0.00    +0.000 N 
ATOM     11  C   UNL     1       3.440   6.010  18.064  0.00  0.00    +0.000 A 
ATOM     12  C   UNL     1       3.566   7.273  17.528  0.00  0.00    +0.000 A 
ENDROOT
BRANCH   1  13
ATOM     13  C   UNL     1       2.262   9.427  17.782  0.00  0.00    +0.000 C 
BRANCH  13  18
ATOM     14  C   UNL     1       0.261  10.981  20.623  0.00  0.00    +0.000 A 
ATOM     15  C   UNL     1      -1.035  10.930  20.106  0.00  0.00    +0.000 A 
ATOM     16  C   UNL     1      -1.268  10.408  18.833  0.00  0.00    +0.000 A 
ATOM     17  C   UNL     1      -0.205   9.918  18.074  0.00  0.00    +0.000 A 
ATOM     18  C   UNL     1       1.101   9.953  18.582  0.00  0.00    +0.000 A 
ATOM     19  C   UNL     1       1.324  10.499  19.856  0.00  0.00    +0.000 A 
BRANCH  14  21
ATOM     20  C   UNL     1      -0.808  12.119  22.411  0.00  0.00    +0.000 C 
ATOM     21  O   UNL     1       0.364  11.509  21.881  0.00  0.00    +0.000 OA
ENDBRANCH  14  21
ENDBRANCH  13  18
ENDBRANCH   1  13
BRANCH  10  22
ATOM     22  C   UNL     1       4.765   4.642  16.429  0.00  0.00    +0.000 C 
BRANCH  22  23
ATOM     23  C   UNL     1       6.207   5.182  16.487  0.00  0.00    +0.000 C 
ATOM     24  C   UNL     1       6.976   4.706  17.719  0.00  0.00    +0.000 C 
ATOM     25  C   UNL     1       6.970   4.738  15.230  0.00  0.00    +0.000 C 
ENDBRANCH  22  23
ENDBRANCH  10  22
TORSDOF 5
ENDMDL
MODEL 8
REMARK VINA RESULT:      -7.2      3.320      8.096
REMARK  Name = 
REMARK  9 active torsions:
REMARK  status: ('A' for Active; 'I' for Inactive)
REMARK    1  A    between atoms: C_1  and  O_2
REMARK    2  A    between atoms: O_2  and  C_3
REMARK    3  A    between atoms: C_7  and  C_8
REMARK    4  A    between atoms: C_8  and  N_9
REMARK    5  A    between atoms: N_14  and  C_15
REMARK    6  A    between atoms: N_18  and  C_19
REMARK    7  A    between atoms: C_19  and  C_20
REMARK    8  A    between atoms: C_20  and  C_21
REMARK    9  A    between atoms: C_20  and  C_22
REMARK                            x       y       z     vdW  Elec       q    Type
REMARK                         _______ _______ _______ _____ _____    ______ ____
ROOT
ATOM      1  N   UNL     1       2.290   7.949  18.071  0.00  0.00    +0.000 N 
ATOM      2  C   UNL     1       3.456   7.919  17.344  0.00  0.00    +0.000 A 
ATOM      3  C   UNL     1       4.142   6.784  17.717  0.00  0.00    +0.000 A 
ATOM      4  C   UNL     1       5.471   6.361  17.358  0.00  0.00    +0.000 A 
ATOM      5  O   UNL     1       6.172   7.004  16.588  0.00  0.00    +0.000 OA
ATOM      6  N   UNL     1       5.863   5.194  18.015  0.00  0.00    +0.000 N 
ATOM      7  C   UNL     1       7.233   4.757  17.829  0.00  0.00    +0.000 C 
ATOM      8  C   UNL     1       5.084   4.426  18.903  0.00  0.00    +0.000 A 
ATOM      9  O   UNL     1       5.530   3.383  19.394  0.00  0.00    +0.000 OA
ATOM     10  N   UNL     1       3.804   4.908  19.237  0.00  0.00    +0.000 N 
ATOM     11  C   UNL     1       3.351   6.076  18.632  0.00  0.00    +0.000 A 
ATOM     12  C   UNL     1       2.182   6.784  18.806  0.00  0.00    +0.000 A 
ENDROOT
BRANCH   1  13
ATOM     13  C   UNL     1       1.450   9.136  18.223  0.00  0.00    +0.000 C 
BRANCH  13  18
ATOM     14  C   UNL     1      -0.408  10.558  21.226  0.00  0.00    +0.000 A 
ATOM     15  C   UNL     1       0.153   9.818  22.270  0.00  0.00    +0.000 A 
ATOM     16  C   UNL     1       1.120   8.848  22.009  0.00  0.00    +0.000 A 
ATOM     17  C   UNL     1       1.547   8.622  20.701  0.00  0.00    +0.000 A 
ATOM     18  C   UNL     1       1.002   9.362  19.642  0.00  0.00    +0.000 A 
ATOM     19  C   UNL     1       0.015  10.321  19.917  0.00  0.00    +0.000 A 
BRANCH  14  21
ATOM     20  C   UNL     1      -1.495  11.693  23.005  0.00  0.00    +0.000 C 
ATOM     21  O   UNL     1      -1.342  11.482  21.606  0.00  0.00    +0.000 OA
ENDBRANCH  14  21
ENDBRANCH  13  18
ENDBRANCH   1  13
BRANCH  10  22
ATOM     22  C   UNL     1       3.081   4.248  20.333  0.00  0.00    +0.000 C 
BRANCH  22  23
ATOM     23  C   UNL     1       1.805   3.490  19.921  0.00  0.00    +0.000 C 
ATOM     24  C   UNL     1       2.065   2.396  18.886  0.00  0.00    +0.000 C 
ATOM     25  C   UNL     1       1.169   2.848  21.164  0.00  0.00    +0.000 C 
ENDBRANCH  22  23
ENDBRANCH  10  22
TORSDOF 5
ENDMDL
MODEL 9
REMARK VINA RESULT:      -7.2      2.633      7.415
REMARK  Name = 
REMARK  9 active torsions:
REMARK  status: ('A' for Active; 'I' for Inactive)
REMARK    1  A    between atoms: C_1  and  O_2
REMARK    2  A    between atoms: O_2  and  C_3
REMARK    3  A    between atoms: C_7  and  C_8
REMARK    4  A    between atoms: C_8  and  N_9
REMARK    5  A    between atoms: N_14  and  C_15
REMARK    6  A    between atoms: N_18  and  C_19
REMARK    7  A    between atoms: C_19  and  C_20
REMARK    8  A    between atoms: C_20  and  C_21
REMARK    9  A    between atoms: C_20  and  C_22
REMARK                            x       y       z     vdW  Elec       q    Type
REMARK                         _______ _______ _______ _____ _____    ______ ____
ROOT
ATOM      1  N   UNL     1       2.684   8.109  18.219  0.00  0.00    +0.000 N 
ATOM      2  C   UNL     1       2.093   7.396  19.234  0.00  0.00    +0.000 A 
ATOM      3  C   UNL     1       2.496   6.084  19.102  0.00  0.00    +0.000 A 
ATOM      4  C   UNL     1       2.055   4.917  19.823  0.00  0.00    +0.000 A 
ATOM      5  O   UNL     1       1.235   4.984  20.729  0.00  0.00    +0.000 OA
ATOM      6  N   UNL     1       2.624   3.738  19.339  0.00  0.00    +0.000 N 
ATOM      7  C   UNL     1       2.145   2.492  19.904  0.00  0.00    +0.000 C 
ATOM      8  C   UNL     1       3.572   3.624  18.303  0.00  0.00    +0.000 A 
ATOM      9  O   UNL     1       4.035   2.521  17.989  0.00  0.00    +0.000 OA
ATOM     10  N   UNL     1       3.940   4.798  17.618  0.00  0.00    +0.000 N 
ATOM     11  C   UNL     1       3.400   6.011  18.035  0.00  0.00    +0.000 A 
ATOM     12  C   UNL     1       3.547   7.282  17.526  0.00  0.00    +0.000 A 
ENDROOT
BRANCH   1  13
ATOM     13  C   UNL     1       2.260   9.444  17.802  0.00  0.00    +0.000 C 
BRANCH  13  18
ATOM     14  C   UNL     1      -1.324  10.413  18.641  0.00  0.00    +0.000 A 
ATOM     15  C   UNL     1      -1.180  10.889  19.946  0.00  0.00    +0.000 A 
ATOM     16  C   UNL     1       0.069  10.885  20.567  0.00  0.00    +0.000 A 
ATOM     17  C   UNL     1       1.189  10.420  19.878  0.00  0.00    +0.000 A 
ATOM     18  C   UNL     1       1.065   9.948  18.564  0.00  0.00    +0.000 A 
ATOM     19  C   UNL     1      -0.202   9.938  17.959  0.00  0.00    +0.000 A 
BRANCH  14  21
ATOM     20  C   UNL     1      -2.825   9.781  16.915  0.00  0.00    +0.000 C 
ATOM     21  O   UNL     1      -2.595  10.470  18.139  0.00  0.00    +0.000 OA
ENDBRANCH  14  21
ENDBRANCH  13  18
ENDBRANCH   1  13
BRANCH  10  22
ATOM     22  C   UNL     1       4.739   4.662  16.393  0.00  0.00    +0.000 C 
BRANCH  22  23
ATOM     23  C   UNL     1       6.179   5.202  16.480  0.00  0.00    +0.000 C 
ATOM     24  C   UNL     1       6.934   4.703  17.713  0.00  0.00    +0.000 C 
ATOM     25  C   UNL     1       6.959   4.783  15.225  0.00  0.00    +0.000 C 
ENDBRANCH  22  23
ENDBRANCH  10  22
TORSDOF 5
ENDMDL
