MODEL 1
REMARK VINA RESULT:      -6.0      0.000      0.000
REMARK  Name = 
REMARK  21 active torsions:
REMARK  status: ('A' for Active; 'I' for Inactive)
REMARK    1  A    between atoms: C_1  and  C_2
REMARK    2  A    between atoms: C_2  and  O_3
REMARK    3  A    between atoms: O_3  and  C_4
REMARK    4  A    between atoms: C_4  and  C_6
REMARK    5  A    between atoms: C_9  and  N_10
REMARK    6  A    between atoms: N_10  and  C_11
REMARK    7  A    between atoms: C_11  and  C_12
REMARK    8  A    between atoms: C_12  and  C_13
REMARK    9  A    between atoms: C_13  and  C_14
REMARK   10  A    between atoms: C_14  and  C_15
REMARK   11  A    between atoms: C_15  and  C_16
REMARK   12  A    between atoms: C_16  and  C_17
REMARK   13  A    between atoms: C_17  and  C_18
REMARK   14  A    between atoms: C_18  and  C_19
REMARK   15  A    between atoms: C_19  and  C_20
REMARK   16  A    between atoms: C_20  and  C_21
REMARK   17  A    between atoms: C_21  and  C_22
REMARK   18  A    between atoms: C_22  and  C_23
REMARK   19  A    between atoms: C_23  and  C_24
REMARK   20  A    between atoms: C_24  and  C_25
REMARK   21  A    between atoms: C_25  and  C_26
REMARK                            x       y       z     vdW  Elec       q    Type
REMARK                         _______ _______ _______ _____ _____    ______ ____
ROOT
ATOM      1  C   UNL     1       1.163   2.493  20.419  0.00  0.00    +0.000 C 
ENDROOT
BRANCH   1   2
ATOM      2  C   UNL     1       1.242   3.743  21.289  0.00  0.00    +0.000 C 
BRANCH   2   3
ATOM      3  C   UNL     1       2.398   4.634  20.854  0.00  0.00    +0.000 C 
BRANCH   3   4
ATOM      4  C   UNL     1       1.882   5.979  20.384  0.00  0.00    +0.000 C 
BRANCH   4   5
ATOM      5  C   UNL     1       2.248   6.199  18.926  0.00  0.00    +0.000 C 
BRANCH   5   6
ATOM      6  C   UNL     1       3.098   7.448  18.792  0.00  0.00    +0.000 C 
BRANCH   6   7
ATOM      7  C   UNL     1       2.726   8.196  17.525  0.00  0.00    +0.000 C 
BRANCH   7   8
ATOM      8  C   UNL     1       1.400   8.913  17.714  0.00  0.00    +0.000 C 
BRANCH   8   9
ATOM      9  C   UNL     1       1.458   9.795  18.947  0.00  0.00    +0.000 C 
BRANCH   9  10
ATOM     10  C   UNL     1       0.150   9.707  19.713  0.00  0.00    +0.000 C 
BRANCH  10  11
ATOM     11  C   UNL     1      -0.749  10.874  19.344  0.00  0.00    +0.000 C 
BRANCH  11  12
ATOM     12  C   UNL     1      -1.915  10.388  18.505  0.00  0.00    +0.000 C 
BRANCH  12  13
ATOM     13  C   UNL     1      -1.698  10.704  17.033  0.00  0.00    +0.000 C 
BRANCH  13  14
ATOM     14  C   UNL     1      -3.012  10.729  16.286  0.00  0.00    +0.000 C 
ATOM     15  F   UNL     1      -3.690   9.567  16.410  0.00  0.00    +0.000 F 
ATOM     16  F   UNL     1      -3.811  11.714  16.750  0.00  0.00    +0.000 F 
ATOM     17  F   UNL     1      -2.811  10.944  14.971  0.00  0.00    +0.000 F 
ENDBRANCH  13  14
ENDBRANCH  12  13
ENDBRANCH  11  12
ENDBRANCH  10  11
ENDBRANCH   9  10
ENDBRANCH   8   9
ENDBRANCH   7   8
ENDBRANCH   6   7
ENDBRANCH   5   6
ENDBRANCH   4   5
ENDBRANCH   3   4
ENDBRANCH   2   3
ENDBRANCH   1   2
BRANCH   1  18
ATOM     18  C   UNL     1       1.270   2.831  18.928  0.00  0.00    +0.000 C 
BRANCH  18  19
ATOM     19  C   UNL     1       2.145   1.802  18.210  0.00  0.00    +0.000 C 
BRANCH  19  20
ATOM     20  N   UNL     1       3.542   1.981  18.560  0.00  0.00    +0.000 N 
ATOM     21  H   UNL     1       3.791   1.731  19.505  0.00  0.00    +0.000 HD
BRANCH  20  25
ATOM     22  C   UNL     1       5.826   5.170  16.985  0.00  0.00    +0.000 A 
ATOM     23  C   UNL     1       5.835   4.888  18.358  0.00  0.00    +0.000 A 
ATOM     24  C   UNL     1       5.074   3.821  18.854  0.00  0.00    +0.000 A 
ATOM     25  C   UNL     1       4.252   3.070  18.022  0.00  0.00    +0.000 A 
ATOM     26  C   UNL     1       4.233   3.381  16.659  0.00  0.00    +0.000 A 
ATOM     27  C   UNL     1       5.009   4.423  16.136  0.00  0.00    +0.000 A 
BRANCH  22  28
ATOM     28  C   UNL     1       6.727   6.235  16.460  0.00  0.00    +0.000 C 
ATOM     29  O   UNL     1       7.581   6.028  15.630  0.00  0.00    +0.000 OA
BRANCH  28  30
ATOM     30  O   UNL     1       6.506   7.405  17.123  0.00  0.00    +0.000 OA
BRANCH  30  32
ATOM     31  C   UNL     1       8.308   7.420  18.701  0.00  0.00    +0.000 C 
ATOM     32  C   UNL     1       7.707   8.099  17.482  0.00  0.00    +0.000 C 
ENDBRANCH  30  32
ENDBRANCH  28  30
ENDBRANCH  22  28
ENDBRANCH  20  25
ENDBRANCH  19  20
ENDBRANCH  18  19
ENDBRANCH   1  18
TORSDOF 20
ENDMDL
MODEL 2
REMARK VINA RESULT:      -6.0      5.378      9.475
REMARK  Name = 
REMARK  21 active torsions:
REMARK  status: ('A' for Active; 'I' for Inactive)
REMARK    1  A    between atoms: C_1  and  C_2
REMARK    2  A    between atoms: C_2  and  O_3
REMARK    3  A    between atoms: O_3  and  C_4
REMARK    4  A    between atoms: C_4  and  C_6
REMARK    5  A    between atoms: C_9  and  N_10
REMARK    6  A    between atoms: N_10  and  C_11
REMARK    7  A    between atoms: C_11  and  C_12
REMARK    8  A    between atoms: C_12  and  C_13
REMARK    9  A    between atoms: C_13  and  C_14
REMARK   10  A    between atoms: C_14  and  C_15
REMARK   11  A    between atoms: C_15  and  C_16
REMARK   12  A    between atoms: C_16  and  C_17
REMARK   13  A    between atoms: C_17  and  C_18
REMARK   14  A    between atoms: C_18  and  C_19
REMARK   15  A    between atoms: C_19  and  C_20
REMARK   16  A    between atoms: C_20  and  C_21
REMARK   17  A    between atoms: C_21  and  C_22
REMARK   18  A    between atoms: C_22  and  C_23
REMARK   19  A    between atoms: C_23  and  C_24
REMARK   20  A    between atoms: C_24  and  C_25
REMARK   21  A    between atoms: C_25  and  C_26
REMARK                            x       y       z     vdW  Elec       q    Type
REMARK                         _______ _______ _______ _____ _____    ______ ____
ROOT
ATOM      1  C   UNL     1       2.068   7.040  19.289  0.00  0.00    +0.000 C 
ENDROOT
BRANCH   1   2
ATOM      2  C   UNL     1       3.114   6.094  19.869  0.00  0.00    +0.000 C 
BRANCH   2   3
ATOM      3  C   UNL     1       2.470   5.086  20.811  0.00  0.00    +0.000 C 
BRANCH   3   4
ATOM      4  C   UNL     1       1.270   4.436  20.152  0.00  0.00    +0.000 C 
BRANCH   4   5
ATOM      5  C   UNL     1       1.115   3.007  20.641  0.00  0.00    +0.000 C 
BRANCH   5   6
ATOM      6  C   UNL     1       1.385   2.041  19.502  0.00  0.00    +0.000 C 
BRANCH   6   7
ATOM      7  C   UNL     1       2.763   2.298  18.919  0.00  0.00    +0.000 C 
BRANCH   7   8
ATOM      8  C   UNL     1       2.674   2.419  17.408  0.00  0.00    +0.000 C 
BRANCH   8   9
ATOM      9  C   UNL     1       2.965   3.847  16.984  0.00  0.00    +0.000 C 
BRANCH   9  10
ATOM     10  C   UNL     1       4.427   4.176  17.226  0.00  0.00    +0.000 C 
BRANCH  10  11
ATOM     11  C   UNL     1       4.927   5.138  16.162  0.00  0.00    +0.000 C 
BRANCH  11  12
ATOM     12  C   UNL     1       6.431   5.303  16.274  0.00  0.00    +0.000 C 
BRANCH  12  13
ATOM     13  C   UNL     1       6.788   6.397  17.269  0.00  0.00    +0.000 C 
BRANCH  13  14
ATOM     14  C   UNL     1       7.420   5.812  18.511  0.00  0.00    +0.000 C 
ATOM     15  F   UNL     1       7.992   4.612  18.274  0.00  0.00    +0.000 F 
ATOM     16  F   UNL     1       8.380   6.630  18.994  0.00  0.00    +0.000 F 
ATOM     17  F   UNL     1       6.499   5.639  19.480  0.00  0.00    +0.000 F 
ENDBRANCH  13  14
ENDBRANCH  12  13
ENDBRANCH  11  12
ENDBRANCH  10  11
ENDBRANCH   9  10
ENDBRANCH   8   9
ENDBRANCH   7   8
ENDBRANCH   6   7
ENDBRANCH   5   6
ENDBRANCH   4   5
ENDBRANCH   3   4
ENDBRANCH   2   3
ENDBRANCH   1   2
BRANCH   1  18
ATOM     18  C   UNL     1       2.669   7.970  18.230  0.00  0.00    +0.000 C 
BRANCH  18  19
ATOM     19  C   UNL     1       1.574   8.827  17.591  0.00  0.00    +0.000 C 
BRANCH  19  20
ATOM     20  N   UNL     1       0.998   9.735  18.566  0.00  0.00    +0.000 N 
ATOM     21  H   UNL     1       1.232   9.547  19.529  0.00  0.00    +0.000 HD
BRANCH  20  25
ATOM     22  C   UNL     1      -2.957  11.100  17.967  0.00  0.00    +0.000 A 
ATOM     23  C   UNL     1      -2.402  10.117  17.137  0.00  0.00    +0.000 A 
ATOM     24  C   UNL     1      -1.090   9.676  17.360  0.00  0.00    +0.000 A 
ATOM     25  C   UNL     1      -0.297  10.242  18.352  0.00  0.00    +0.000 A 
ATOM     26  C   UNL     1      -0.856  11.241  19.154  0.00  0.00    +0.000 A 
ATOM     27  C   UNL     1      -2.175  11.674  18.970  0.00  0.00    +0.000 A 
BRANCH  22  28
ATOM     28  C   UNL     1      -4.389  11.475  17.787  0.00  0.00    +0.000 C 
ATOM     29  O   UNL     1      -4.818  11.973  16.772  0.00  0.00    +0.000 OA
BRANCH  28  30
ATOM     30  O   UNL     1      -5.077  11.269  18.945  0.00  0.00    +0.000 OA
BRANCH  30  32
ATOM     31  C   UNL     1      -5.795  12.466  20.891  0.00  0.00    +0.000 C 
ATOM     32  C   UNL     1      -5.835  12.406  19.374  0.00  0.00    +0.000 C 
ENDBRANCH  30  32
ENDBRANCH  28  30
ENDBRANCH  22  28
ENDBRANCH  20  25
ENDBRANCH  19  20
ENDBRANCH  18  19
ENDBRANCH   1  18
TORSDOF 20
ENDMDL
MODEL 3
REMARK VINA RESULT:      -5.8      4.600      8.632
REMARK  Name = 
REMARK  21 active torsions:
REMARK  status: ('A' for Active; 'I' for Inactive)
REMARK    1  A    between atoms: C_1  and  C_2
REMARK    2  A    between atoms: C_2  and  O_3
REMARK    3  A    between atoms: O_3  and  C_4
REMARK    4  A    between atoms: C_4  and  C_6
REMARK    5  A    between atoms: C_9  and  N_10
REMARK    6  A    between atoms: N_10  and  C_11
REMARK    7  A    between atoms: C_11  and  C_12
REMARK    8  A    between atoms: C_12  and  C_13
REMARK    9  A    between atoms: C_13  and  C_14
REMARK   10  A    between atoms: C_14  and  C_15
REMARK   11  A    between atoms: C_15  and  C_16
REMARK   12  A    between atoms: C_16  and  C_17
REMARK   13  A    between atoms: C_17  and  C_18
REMARK   14  A    between atoms: C_18  and  C_19
REMARK   15  A    between atoms: C_19  and  C_20
REMARK   16  A    between atoms: C_20  and  C_21
REMARK   17  A    between atoms: C_21  and  C_22
REMARK   18  A    between atoms: C_22  and  C_23
REMARK   19  A    between atoms: C_23  and  C_24
REMARK   20  A    between atoms: C_24  and  C_25
REMARK   21  A    between atoms: C_25  and  C_26
REMARK                            x       y       z     vdW  Elec       q    Type
REMARK                         _______ _______ _______ _____ _____    ______ ____
ROOT
ATOM      1  C   UNL     1       2.245   6.690  18.252  0.00  0.00    +0.000 C 
ENDROOT
BRANCH   1   2
ATOM      2  C   UNL     1       3.072   7.895  17.814  0.00  0.00    +0.000 C 
BRANCH   2   3
ATOM      3  C   UNL     1       4.486   7.472  17.439  0.00  0.00    +0.000 C 
BRANCH   3   4
ATOM      4  C   UNL     1       4.478   6.689  16.142  0.00  0.00    +0.000 C 
BRANCH   4   5
ATOM      5  C   UNL     1       5.873   6.173  15.835  0.00  0.00    +0.000 C 
BRANCH   5   6
ATOM      6  C   UNL     1       6.773   6.376  17.038  0.00  0.00    +0.000 C 
BRANCH   6   7
ATOM      7  C   UNL     1       7.421   5.060  17.430  0.00  0.00    +0.000 C 
BRANCH   7   8
ATOM      8  C   UNL     1       7.156   4.765  18.896  0.00  0.00    +0.000 C 
BRANCH   8   9
ATOM      9  C   UNL     1       5.682   4.954  19.205  0.00  0.00    +0.000 C 
BRANCH   9  10
ATOM     10  C   UNL     1       4.962   3.619  19.151  0.00  0.00    +0.000 C 
BRANCH  10  11
ATOM     11  C   UNL     1       4.258   3.461  17.814  0.00  0.00    +0.000 C 
BRANCH  11  12
ATOM     12  C   UNL     1       3.231   2.349  17.895  0.00  0.00    +0.000 C 
BRANCH  12  13
ATOM     13  C   UNL     1       2.429   2.438  19.185  0.00  0.00    +0.000 C 
BRANCH  13  14
ATOM     14  C   UNL     1       1.027   2.939  18.915  0.00  0.00    +0.000 C 
ATOM     15  F   UNL     1       0.986   3.803  17.878  0.00  0.00    +0.000 F 
ATOM     16  F   UNL     1       0.198   1.914  18.622  0.00  0.00    +0.000 F 
ATOM     17  F   UNL     1       0.532   3.576  19.995  0.00  0.00    +0.000 F 
ENDBRANCH  13  14
ENDBRANCH  12  13
ENDBRANCH  11  12
ENDBRANCH  10  11
ENDBRANCH   9  10
ENDBRANCH   8   9
ENDBRANCH   7   8
ENDBRANCH   6   7
ENDBRANCH   5   6
ENDBRANCH   4   5
ENDBRANCH   3   4
ENDBRANCH   2   3
ENDBRANCH   1   2
BRANCH   1  18
ATOM     18  C   UNL     1       2.572   6.267  19.688  0.00  0.00    +0.000 C 
BRANCH  18  19
ATOM     19  C   UNL     1       1.451   6.695  20.638  0.00  0.00    +0.000 C 
BRANCH  19  20
ATOM     20  N   UNL     1       1.827   7.889  21.372  0.00  0.00    +0.000 N 
ATOM     21  H   UNL     1       2.412   7.738  22.181  0.00  0.00    +0.000 HD
BRANCH  20  25
ATOM     22  C   UNL     1      -0.830  11.144  21.827  0.00  0.00    +0.000 A 
ATOM     23  C   UNL     1      -0.518  10.312  22.912  0.00  0.00    +0.000 A 
ATOM     24  C   UNL     1       0.371   9.243  22.736  0.00  0.00    +0.000 A 
ATOM     25  C   UNL     1       0.905   8.944  21.488  0.00  0.00    +0.000 A 
ATOM     26  C   UNL     1       0.563   9.766  20.410  0.00  0.00    +0.000 A 
ATOM     27  C   UNL     1      -0.298  10.859  20.569  0.00  0.00    +0.000 A 
BRANCH  22  28
ATOM     28  C   UNL     1      -1.688  12.341  22.057  0.00  0.00    +0.000 C 
ATOM     29  O   UNL     1      -2.288  12.903  21.172  0.00  0.00    +0.000 OA
BRANCH  28  30
ATOM     30  O   UNL     1      -1.597  12.739  23.358  0.00  0.00    +0.000 OA
BRANCH  30  32
ATOM     31  C   UNL     1      -2.378  14.786  24.326  0.00  0.00    +0.000 C 
ATOM     32  C   UNL     1      -1.277  14.127  23.514  0.00  0.00    +0.000 C 
ENDBRANCH  30  32
ENDBRANCH  28  30
ENDBRANCH  22  28
ENDBRANCH  20  25
ENDBRANCH  19  20
ENDBRANCH  18  19
ENDBRANCH   1  18
TORSDOF 20
ENDMDL
MODEL 4
REMARK VINA RESULT:      -5.8      2.262      4.011
REMARK  Name = 
REMARK  21 active torsions:
REMARK  status: ('A' for Active; 'I' for Inactive)
REMARK    1  A    between atoms: C_1  and  C_2
REMARK    2  A    between atoms: C_2  and  O_3
REMARK    3  A    between atoms: O_3  and  C_4
REMARK    4  A    between atoms: C_4  and  C_6
REMARK    5  A    between atoms: C_9  and  N_10
REMARK    6  A    between atoms: N_10  and  C_11
REMARK    7  A    between atoms: C_11  and  C_12
REMARK    8  A    between atoms: C_12  and  C_13
REMARK    9  A    between atoms: C_13  and  C_14
REMARK   10  A    between atoms: C_14  and  C_15
REMARK   11  A    between atoms: C_15  and  C_16
REMARK   12  A    between atoms: C_16  and  C_17
REMARK   13  A    between atoms: C_17  and  C_18
REMARK   14  A    between atoms: C_18  and  C_19
REMARK   15  A    between atoms: C_19  and  C_20
REMARK   16  A    between atoms: C_20  and  C_21
REMARK   17  A    between atoms: C_21  and  C_22
REMARK   18  A    between atoms: C_22  and  C_23
REMARK   19  A    between atoms: C_23  and  C_24
REMARK   20  A    between atoms: C_24  and  C_25
REMARK   21  A    between atoms: C_25  and  C_26
REMARK                            x       y       z     vdW  Elec       q    Type
REMARK                         _______ _______ _______ _____ _____    ______ ____
ROOT
ATOM      1  C   UNL     1       3.567   3.577  18.031  0.00  0.00    +0.000 C 
ENDROOT
BRANCH   1   2
ATOM      2  C   UNL     1       3.137   2.114  18.036  0.00  0.00    +0.000 C 
BRANCH   2   3
ATOM      3  C   UNL     1       1.800   1.945  18.746  0.00  0.00    +0.000 C 
BRANCH   3   4
ATOM      4  C   UNL     1       1.261   3.291  19.186  0.00  0.00    +0.000 C 
BRANCH   4   5
ATOM      5  C   UNL     1       1.255   3.381  20.702  0.00  0.00    +0.000 C 
BRANCH   5   6
ATOM      6  C   UNL     1       1.928   4.667  21.144  0.00  0.00    +0.000 C 
BRANCH   6   7
ATOM      7  C   UNL     1       1.307   5.852  20.427  0.00  0.00    +0.000 C 
BRANCH   7   8
ATOM      8  C   UNL     1       2.392   6.708  19.799  0.00  0.00    +0.000 C 
BRANCH   8   9
ATOM      9  C   UNL     1       2.038   7.019  18.357  0.00  0.00    +0.000 C 
BRANCH   9  10
ATOM     10  C   UNL     1       2.695   8.319  17.927  0.00  0.00    +0.000 C 
BRANCH  10  11
ATOM     11  C   UNL     1       1.821   9.498  18.320  0.00  0.00    +0.000 C 
BRANCH  11  12
ATOM     12  C   UNL     1       0.466   9.389  17.646  0.00  0.00    +0.000 C 
BRANCH  12  13
ATOM     13  C   UNL     1      -0.580  10.205  18.390  0.00  0.00    +0.000 C 
BRANCH  13  14
ATOM     14  C   UNL     1      -1.836  10.356  17.561  0.00  0.00    +0.000 C 
ATOM     15  F   UNL     1      -1.870   9.489  16.527  0.00  0.00    +0.000 F 
ATOM     16  F   UNL     1      -2.938  10.135  18.311  0.00  0.00    +0.000 F 
ATOM     17  F   UNL     1      -1.926  11.601  17.052  0.00  0.00    +0.000 F 
ENDBRANCH  13  14
ENDBRANCH  12  13
ENDBRANCH  11  12
ENDBRANCH  10  11
ENDBRANCH   9  10
ENDBRANCH   8   9
ENDBRANCH   7   8
ENDBRANCH   6   7
ENDBRANCH   5   6
ENDBRANCH   4   5
ENDBRANCH   3   4
ENDBRANCH   2   3
ENDBRANCH   1   2
BRANCH   1  18
ATOM     18  C   UNL     1       4.914   3.775  18.734  0.00  0.00    +0.000 C 
BRANCH  18  19
ATOM     19  C   UNL     1       5.071   5.229  19.184  0.00  0.00    +0.000 C 
BRANCH  19  20
ATOM     20  N   UNL     1       6.024   5.928  18.340  0.00  0.00    +0.000 N 
ATOM     21  H   UNL     1       6.123   6.916  18.519  0.00  0.00    +0.000 HD
BRANCH  20  25
ATOM     22  C   UNL     1       6.406   4.610  14.343  0.00  0.00    +0.000 A 
ATOM     23  C   UNL     1       7.357   4.258  15.310  0.00  0.00    +0.000 A 
ATOM     24  C   UNL     1       7.204   4.703  16.631  0.00  0.00    +0.000 A 
ATOM     25  C   UNL     1       6.160   5.546  16.993  0.00  0.00    +0.000 A 
ATOM     26  C   UNL     1       5.235   5.910  16.011  0.00  0.00    +0.000 A 
ATOM     27  C   UNL     1       5.350   5.452  14.692  0.00  0.00    +0.000 A 
BRANCH  22  28
ATOM     28  C   UNL     1       6.524   4.037  12.971  0.00  0.00    +0.000 C 
ATOM     29  O   UNL     1       7.107   4.594  12.071  0.00  0.00    +0.000 OA
BRANCH  28  30
ATOM     30  O   UNL     1       5.804   2.884  12.883  0.00  0.00    +0.000 OA
BRANCH  30  32
ATOM     31  C   UNL     1       4.015   3.510  11.419  0.00  0.00    +0.000 C 
ATOM     32  C   UNL     1       5.254   2.647  11.581  0.00  0.00    +0.000 C 
ENDBRANCH  30  32
ENDBRANCH  28  30
ENDBRANCH  22  28
ENDBRANCH  20  25
ENDBRANCH  19  20
ENDBRANCH  18  19
ENDBRANCH   1  18
TORSDOF 20
ENDMDL
MODEL 5
REMARK VINA RESULT:      -5.8      5.169      9.530
REMARK  Name = 
REMARK  21 active torsions:
REMARK  status: ('A' for Active; 'I' for Inactive)
REMARK    1  A    between atoms: C_1  and  C_2
REMARK    2  A    between atoms: C_2  and  O_3
REMARK    3  A    between atoms: O_3  and  C_4
REMARK    4  A    between atoms: C_4  and  C_6
REMARK    5  A    between atoms: C_9  and  N_10
REMARK    6  A    between atoms: N_10  and  C_11
REMARK    7  A    between atoms: C_11  and  C_12
REMARK    8  A    between atoms: C_12  and  C_13
REMARK    9  A    between atoms: C_13  and  C_14
REMARK   10  A    between atoms: C_14  and  C_15
REMARK   11  A    between atoms: C_15  and  C_16
REMARK   12  A    between atoms: C_16  and  C_17
REMARK   13  A    between atoms: C_17  and  C_18
REMARK   14  A    between atoms: C_18  and  C_19
REMARK   15  A    between atoms: C_19  and  C_20
REMARK   16  A    between atoms: C_20  and  C_21
REMARK   17  A    between atoms: C_21  and  C_22
REMARK   18  A    between atoms: C_22  and  C_23
REMARK   19  A    between atoms: C_23  and  C_24
REMARK   20  A    between atoms: C_24  and  C_25
REMARK   21  A    between atoms: C_25  and  C_26
REMARK                            x       y       z     vdW  Elec       q    Type
REMARK                         _______ _______ _______ _____ _____    ______ ____
ROOT
ATOM      1  C   UNL     1       1.122   7.754  20.895  0.00  0.00    +0.000 C 
ENDROOT
BRANCH   1   2
ATOM      2  C   UNL     1       2.192   7.484  19.843  0.00  0.00    +0.000 C 
BRANCH   2   3
ATOM      3  C   UNL     1       2.165   6.025  19.405  0.00  0.00    +0.000 C 
BRANCH   3   4
ATOM      4  C   UNL     1       2.358   5.111  20.598  0.00  0.00    +0.000 C 
BRANCH   4   5
ATOM      5  C   UNL     1       1.257   4.066  20.640  0.00  0.00    +0.000 C 
BRANCH   5   6
ATOM      6  C   UNL     1       1.783   2.742  20.118  0.00  0.00    +0.000 C 
BRANCH   6   7
ATOM      7  C   UNL     1       1.158   2.429  18.771  0.00  0.00    +0.000 C 
BRANCH   7   8
ATOM      8  C   UNL     1       2.219   1.930  17.807  0.00  0.00    +0.000 C 
BRANCH   8   9
ATOM      9  C   UNL     1       3.582   2.459  18.215  0.00  0.00    +0.000 C 
BRANCH   9  10
ATOM     10  C   UNL     1       4.111   3.408  17.156  0.00  0.00    +0.000 C 
BRANCH  10  11
ATOM     11  C   UNL     1       5.097   4.383  17.777  0.00  0.00    +0.000 C 
BRANCH  11  12
ATOM     12  C   UNL     1       6.341   4.485  16.916  0.00  0.00    +0.000 C 
BRANCH  12  13
ATOM     13  C   UNL     1       7.570   4.776  17.765  0.00  0.00    +0.000 C 
BRANCH  13  14
ATOM     14  C   UNL     1       7.371   6.028  18.591  0.00  0.00    +0.000 C 
ATOM     15  F   UNL     1       8.543   6.613  18.918  0.00  0.00    +0.000 F 
ATOM     16  F   UNL     1       6.638   6.939  17.915  0.00  0.00    +0.000 F 
ATOM     17  F   UNL     1       6.724   5.745  19.739  0.00  0.00    +0.000 F 
ENDBRANCH  13  14
ENDBRANCH  12  13
ENDBRANCH  11  12
ENDBRANCH  10  11
ENDBRANCH   9  10
ENDBRANCH   8   9
ENDBRANCH   7   8
ENDBRANCH   6   7
ENDBRANCH   5   6
ENDBRANCH   4   5
ENDBRANCH   3   4
ENDBRANCH   2   3
ENDBRANCH   1   2
BRANCH   1  18
ATOM     18  C   UNL     1       1.521   8.902  21.829  0.00  0.00    +0.000 C 
BRANCH  18  19
ATOM     19  C   UNL     1       0.435   9.979  21.843  0.00  0.00    +0.000 C 
BRANCH  19  20
ATOM     20  N   UNL     1       0.537  10.826  20.668  0.00  0.00    +0.000 N 
ATOM     21  H   UNL     1       0.986  11.719  20.811  0.00  0.00    +0.000 HD
BRANCH  20  25
ATOM     22  C   UNL     1      -2.564  10.991  17.802  0.00  0.00    +0.000 A 
ATOM     23  C   UNL     1      -2.633  11.748  18.980  0.00  0.00    +0.000 A 
ATOM     24  C   UNL     1      -1.588  11.680  19.912  0.00  0.00    +0.000 A 
ATOM     25  C   UNL     1      -0.508  10.825  19.726  0.00  0.00    +0.000 A 
ATOM     26  C   UNL     1      -0.467  10.057  18.559  0.00  0.00    +0.000 A 
ATOM     27  C   UNL     1      -1.484  10.132  17.599  0.00  0.00    +0.000 A 
BRANCH  22  28
ATOM     28  C   UNL     1      -3.628  11.161  16.771  0.00  0.00    +0.000 C 
ATOM     29  O   UNL     1      -3.391  11.387  15.608  0.00  0.00    +0.000 OA
BRANCH  28  30
ATOM     30  O   UNL     1      -4.858  11.125  17.357  0.00  0.00    +0.000 OA
BRANCH  30  32
ATOM     31  C   UNL     1      -6.157  12.886  18.331  0.00  0.00    +0.000 C 
ATOM     32  C   UNL     1      -5.682  12.252  17.035  0.00  0.00    +0.000 C 
ENDBRANCH  30  32
ENDBRANCH  28  30
ENDBRANCH  22  28
ENDBRANCH  20  25
ENDBRANCH  19  20
ENDBRANCH  18  19
ENDBRANCH   1  18
TORSDOF 20
ENDMDL
MODEL 6
REMARK VINA RESULT:      -5.7      5.373      9.377
REMARK  Name = 
REMARK  21 active torsions:
REMARK  status: ('A' for Active; 'I' for Inactive)
REMARK    1  A    between atoms: C_1  and  C_2
REMARK    2  A    between atoms: C_2  and  O_3
REMARK    3  A    between atoms: O_3  and  C_4
REMARK    4  A    between atoms: C_4  and  C_6
REMARK    5  A    between atoms: C_9  and  N_10
REMARK    6  A    between atoms: N_10  and  C_11
REMARK    7  A    between atoms: C_11  and  C_12
REMARK    8  A    between atoms: C_12  and  C_13
REMARK    9  A    between atoms: C_13  and  C_14
REMARK   10  A    between atoms: C_14  and  C_15
REMARK   11  A    between atoms: C_15  and  C_16
REMARK   12  A    between atoms: C_16  and  C_17
REMARK   13  A    between atoms: C_17  and  C_18
REMARK   14  A    between atoms: C_18  and  C_19
REMARK   15  A    between atoms: C_19  and  C_20
REMARK   16  A    between atoms: C_20  and  C_21
REMARK   17  A    between atoms: C_21  and  C_22
REMARK   18  A    between atoms: C_22  and  C_23
REMARK   19  A    between atoms: C_23  and  C_24
REMARK   20  A    between atoms: C_24  and  C_25
REMARK   21  A    between atoms: C_25  and  C_26
REMARK                            x       y       z     vdW  Elec       q    Type
REMARK                         _______ _______ _______ _____ _____    ______ ____
ROOT
ATOM      1  C   UNL     1       3.531   7.136  18.037  0.00  0.00    +0.000 C 
ENDROOT
BRANCH   1   2
ATOM      2  C   UNL     1       3.345   6.405  19.363  0.00  0.00    +0.000 C 
BRANCH   2   3
ATOM      3  C   UNL     1       1.873   6.103  19.612  0.00  0.00    +0.000 C 
BRANCH   3   4
ATOM      4  C   UNL     1       1.703   5.324  20.900  0.00  0.00    +0.000 C 
BRANCH   4   5
ATOM      5  C   UNL     1       1.646   3.835  20.607  0.00  0.00    +0.000 C 
BRANCH   5   6
ATOM      6  C   UNL     1       1.384   3.611  19.130  0.00  0.00    +0.000 C 
BRANCH   6   7
ATOM      7  C   UNL     1       1.684   2.170  18.762  0.00  0.00    +0.000 C 
BRANCH   7   8
ATOM      8  C   UNL     1       2.737   2.120  17.669  0.00  0.00    +0.000 C 
BRANCH   8   9
ATOM      9  C   UNL     1       3.651   3.327  17.772  0.00  0.00    +0.000 C 
BRANCH   9  10
ATOM     10  C   UNL     1       4.063   3.790  16.387  0.00  0.00    +0.000 C 
BRANCH  10  11
ATOM     11  C   UNL     1       5.364   4.569  16.465  0.00  0.00    +0.000 C 
BRANCH  11  12
ATOM     12  C   UNL     1       6.052   4.305  17.791  0.00  0.00    +0.000 C 
BRANCH  12  13
ATOM     13  C   UNL     1       7.484   4.817  17.774  0.00  0.00    +0.000 C 
BRANCH  13  14
ATOM     14  C   UNL     1       7.759   5.692  18.976  0.00  0.00    +0.000 C 
ATOM     15  F   UNL     1       6.678   5.810  19.777  0.00  0.00    +0.000 F 
ATOM     16  F   UNL     1       8.762   5.184  19.723  0.00  0.00    +0.000 F 
ATOM     17  F   UNL     1       8.117   6.933  18.592  0.00  0.00    +0.000 F 
ENDBRANCH  13  14
ENDBRANCH  12  13
ENDBRANCH  11  12
ENDBRANCH  10  11
ENDBRANCH   9  10
ENDBRANCH   8   9
ENDBRANCH   7   8
ENDBRANCH   6   7
ENDBRANCH   5   6
ENDBRANCH   4   5
ENDBRANCH   3   4
ENDBRANCH   2   3
ENDBRANCH   1   2
BRANCH   1  18
ATOM     18  C   UNL     1       2.213   7.726  17.523  0.00  0.00    +0.000 C 
BRANCH  18  19
ATOM     19  C   UNL     1       2.161   9.230  17.795  0.00  0.00    +0.000 C 
BRANCH  19  20
ATOM     20  N   UNL     1       0.787   9.685  17.904  0.00  0.00    +0.000 N 
ATOM     21  H   UNL     1       0.352   9.973  17.040  0.00  0.00    +0.000 HD
BRANCH  20  25
ATOM     22  C   UNL     1      -0.568  11.874  21.256  0.00  0.00    +0.000 A 
ATOM     23  C   UNL     1      -0.451  12.482  19.999  0.00  0.00    +0.000 A 
ATOM     24  C   UNL     1      -0.005  11.733  18.902  0.00  0.00    +0.000 A 
ATOM     25  C   UNL     1       0.390  10.408  19.044  0.00  0.00    +0.000 A 
ATOM     26  C   UNL     1       0.293   9.823  20.309  0.00  0.00    +0.000 A 
ATOM     27  C   UNL     1      -0.180  10.543  21.413  0.00  0.00    +0.000 A 
BRANCH  22  28
ATOM     28  C   UNL     1      -1.150  12.654  22.386  0.00  0.00    +0.000 C 
ATOM     29  O   UNL     1      -0.494  13.051  23.320  0.00  0.00    +0.000 OA
BRANCH  28  30
ATOM     30  O   UNL     1      -2.502  12.744  22.245  0.00  0.00    +0.000 OA
BRANCH  30  32
ATOM     31  C   UNL     1      -3.874  12.316  24.161  0.00  0.00    +0.000 C 
ATOM     32  C   UNL     1      -3.155  13.380  23.351  0.00  0.00    +0.000 C 
ENDBRANCH  30  32
ENDBRANCH  28  30
ENDBRANCH  22  28
ENDBRANCH  20  25
ENDBRANCH  19  20
ENDBRANCH  18  19
ENDBRANCH   1  18
TORSDOF 20
ENDMDL
MODEL 7
REMARK VINA RESULT:      -5.7      5.042      8.319
REMARK  Name = 
REMARK  21 active torsions:
REMARK  status: ('A' for Active; 'I' for Inactive)
REMARK    1  A    between atoms: C_1  and  C_2
REMARK    2  A    between atoms: C_2  and  O_3
REMARK    3  A    between atoms: O_3  and  C_4
REMARK    4  A    between atoms: C_4  and  C_6
REMARK    5  A    between atoms: C_9  and  N_10
REMARK    6  A    between atoms: N_10  and  C_11
REMARK    7  A    between atoms: C_11  and  C_12
REMARK    8  A    between atoms: C_12  and  C_13
REMARK    9  A    between atoms: C_13  and  C_14
REMARK   10  A    between atoms: C_14  and  C_15
REMARK   11  A    between atoms: C_15  and  C_16
REMARK   12  A    between atoms: C_16  and  C_17
REMARK   13  A    between atoms: C_17  and  C_18
REMARK   14  A    between atoms: C_18  and  C_19
REMARK   15  A    between atoms: C_19  and  C_20
REMARK   16  A    between atoms: C_20  and  C_21
REMARK   17  A    between atoms: C_21  and  C_22
REMARK   18  A    between atoms: C_22  and  C_23
REMARK   19  A    between atoms: C_23  and  C_24
REMARK   20  A    between atoms: C_24  and  C_25
REMARK   21  A    between atoms: C_25  and  C_26
REMARK                            x       y       z     vdW  Elec       q    Type
REMARK                         _______ _______ _______ _____ _____    ______ ____
ROOT
ATOM      1  C   UNL     1       0.936   4.388  20.379  0.00  0.00    +0.000 C 
ENDROOT
BRANCH   1   2
ATOM      2  C   UNL     1       1.049   2.872  20.263  0.00  0.00    +0.000 C 
BRANCH   2   3
ATOM      3  C   UNL     1       0.852   2.423  18.821  0.00  0.00    +0.000 C 
BRANCH   3   4
ATOM      4  C   UNL     1       2.181   2.050  18.197  0.00  0.00    +0.000 C 
BRANCH   4   5
ATOM      5  C   UNL     1       2.732   3.220  17.401  0.00  0.00    +0.000 C 
BRANCH   5   6
ATOM      6  C   UNL     1       4.248   3.177  17.403  0.00  0.00    +0.000 C 
BRANCH   6   7
ATOM      7  C   UNL     1       4.805   4.493  17.913  0.00  0.00    +0.000 C 
BRANCH   7   8
ATOM      8  C   UNL     1       4.393   5.626  16.988  0.00  0.00    +0.000 C 
BRANCH   8   9
ATOM      9  C   UNL     1       5.621   6.238  16.340  0.00  0.00    +0.000 C 
BRANCH   9  10
ATOM     10  C   UNL     1       6.820   5.326  16.526  0.00  0.00    +0.000 C 
BRANCH  10  11
ATOM     11  C   UNL     1       7.056   4.514  15.265  0.00  0.00    +0.000 C 
BRANCH  11  12
ATOM     12  C   UNL     1       6.082   4.937  14.182  0.00  0.00    +0.000 C 
BRANCH  12  13
ATOM     13  C   UNL     1       5.380   3.730  13.578  0.00  0.00    +0.000 C 
BRANCH  13  14
ATOM     14  C   UNL     1       5.990   3.362  12.244  0.00  0.00    +0.000 C 
ATOM     15  F   UNL     1       7.114   2.626  12.385  0.00  0.00    +0.000 F 
ATOM     16  F   UNL     1       5.124   2.641  11.501  0.00  0.00    +0.000 F 
ATOM     17  F   UNL     1       6.313   4.469  11.546  0.00  0.00    +0.000 F 
ENDBRANCH  13  14
ENDBRANCH  12  13
ENDBRANCH  11  12
ENDBRANCH  10  11
ENDBRANCH   9  10
ENDBRANCH   8   9
ENDBRANCH   7   8
ENDBRANCH   6   7
ENDBRANCH   5   6
ENDBRANCH   4   5
ENDBRANCH   3   4
ENDBRANCH   2   3
ENDBRANCH   1   2
BRANCH   1  18
ATOM     18  C   UNL     1       2.296   5.040  20.648  0.00  0.00    +0.000 C 
BRANCH  18  19
ATOM     19  C   UNL     1       2.347   6.440  20.033  0.00  0.00    +0.000 C 
BRANCH  19  20
ATOM     20  N   UNL     1       1.811   7.426  20.953  0.00  0.00    +0.000 N 
ATOM     21  H   UNL     1       1.360   7.056  21.776  0.00  0.00    +0.000 HD
BRANCH  20  25
ATOM     22  C   UNL     1       0.219  11.074  19.531  0.00  0.00    +0.000 A 
ATOM     23  C   UNL     1      -0.035  10.639  20.839  0.00  0.00    +0.000 A 
ATOM     24  C   UNL     1       0.510   9.429  21.288  0.00  0.00    +0.000 A 
ATOM     25  C   UNL     1       1.248   8.609  20.442  0.00  0.00    +0.000 A 
ATOM     26  C   UNL     1       1.470   9.044  19.132  0.00  0.00    +0.000 A 
ATOM     27  C   UNL     1       0.962  10.265  18.671  0.00  0.00    +0.000 A 
BRANCH  22  28
ATOM     28  C   UNL     1      -0.274  12.415  19.106  0.00  0.00    +0.000 C 
ATOM     29  O   UNL     1      -1.132  12.569  18.269  0.00  0.00    +0.000 OA
BRANCH  28  30
ATOM     30  O   UNL     1       0.451  13.395  19.716  0.00  0.00    +0.000 OA
BRANCH  30  32
ATOM     31  C   UNL     1       1.342  15.613  19.563  0.00  0.00    +0.000 C 
ATOM     32  C   UNL     1       1.029  14.336  18.803  0.00  0.00    +0.000 C 
ENDBRANCH  30  32
ENDBRANCH  28  30
ENDBRANCH  22  28
ENDBRANCH  20  25
ENDBRANCH  19  20
ENDBRANCH  18  19
ENDBRANCH   1  18
TORSDOF 20
ENDMDL
MODEL 8
REMARK VINA RESULT:      -5.7      2.898      3.722
REMARK  Name = 
REMARK  21 active torsions:
REMARK  status: ('A' for Active; 'I' for Inactive)
REMARK    1  A    between atoms: C_1  and  C_2
REMARK    2  A    between atoms: C_2  and  O_3
REMARK    3  A    between atoms: O_3  and  C_4
REMARK    4  A    between atoms: C_4  and  C_6
REMARK    5  A    between atoms: C_9  and  N_10
REMARK    6  A    between atoms: N_10  and  C_11
REMARK    7  A    between atoms: C_11  and  C_12
REMARK    8  A    between atoms: C_12  and  C_13
REMARK    9  A    between atoms: C_13  and  C_14
REMARK   10  A    between atoms: C_14  and  C_15
REMARK   11  A    between atoms: C_15  and  C_16
REMARK   12  A    between atoms: C_16  and  C_17
REMARK   13  A    between atoms: C_17  and  C_18
REMARK   14  A    between atoms: C_18  and  C_19
REMARK   15  A    between atoms: C_19  and  C_20
REMARK   16  A    between atoms: C_20  and  C_21
REMARK   17  A    between atoms: C_21  and  C_22
REMARK   18  A    between atoms: C_22  and  C_23
REMARK   19  A    between atoms: C_23  and  C_24
REMARK   20  A    between atoms: C_24  and  C_25
REMARK   21  A    between atoms: C_25  and  C_26
REMARK                            x       y       z     vdW  Elec       q    Type
REMARK                         _______ _______ _______ _____ _____    ______ ____
ROOT
ATOM      1  C   UNL     1       1.097   4.347  19.843  0.00  0.00    +0.000 C 
ENDROOT
BRANCH   1   2
ATOM      2  C   UNL     1       1.673   5.605  20.484  0.00  0.00    +0.000 C 
BRANCH   2   3
ATOM      3  C   UNL     1       2.798   6.179  19.632  0.00  0.00    +0.000 C 
BRANCH   3   4
ATOM      4  C   UNL     1       2.261   6.666  18.302  0.00  0.00    +0.000 C 
BRANCH   4   5
ATOM      5  C   UNL     1       2.916   7.983  17.924  0.00  0.00    +0.000 C 
BRANCH   5   6
ATOM      6  C   UNL     1       1.850   9.024  17.636  0.00  0.00    +0.000 C 
BRANCH   6   7
ATOM      7  C   UNL     1       0.891   9.123  18.808  0.00  0.00    +0.000 C 
BRANCH   7   8
ATOM      8  C   UNL     1       0.291  10.517  18.874  0.00  0.00    +0.000 C 
BRANCH   8   9
ATOM      9  C   UNL     1       1.287  11.481  19.492  0.00  0.00    +0.000 C 
BRANCH   9  10
ATOM     10  C   UNL     1       0.959  11.699  20.958  0.00  0.00    +0.000 C 
BRANCH  10  11
ATOM     11  C   UNL     1      -0.503  11.380  21.218  0.00  0.00    +0.000 C 
BRANCH  11  12
ATOM     12  C   UNL     1      -0.917  11.907  22.579  0.00  0.00    +0.000 C 
BRANCH  12  13
ATOM     13  C   UNL     1      -2.313  12.508  22.530  0.00  0.00    +0.000 C 
BRANCH  13  14
ATOM     14  C   UNL     1      -2.419  13.702  23.452  0.00  0.00    +0.000 C 
ATOM     15  F   UNL     1      -3.117  13.419  24.573  0.00  0.00    +0.000 F 
ATOM     16  F   UNL     1      -1.195  14.126  23.834  0.00  0.00    +0.000 F 
ATOM     17  F   UNL     1      -3.039  14.728  22.836  0.00  0.00    +0.000 F 
ENDBRANCH  13  14
ENDBRANCH  12  13
ENDBRANCH  11  12
ENDBRANCH  10  11
ENDBRANCH   9  10
ENDBRANCH   8   9
ENDBRANCH   7   8
ENDBRANCH   6   7
ENDBRANCH   5   6
ENDBRANCH   4   5
ENDBRANCH   3   4
ENDBRANCH   2   3
ENDBRANCH   1   2
BRANCH   1  18
ATOM     18  C   UNL     1       1.248   3.125  20.756  0.00  0.00    +0.000 C 
BRANCH  18  19
ATOM     19  C   UNL     1       2.692   2.619  20.734  0.00  0.00    +0.000 C 
BRANCH  19  20
ATOM     20  N   UNL     1       3.073   2.209  19.395  0.00  0.00    +0.000 N 
ATOM     21  H   UNL     1       3.185   1.216  19.257  0.00  0.00    +0.000 HD
BRANCH  20  25
ATOM     22  C   UNL     1       5.571   4.762  17.135  0.00  0.00    +0.000 A 
ATOM     23  C   UNL     1       4.483   4.109  16.540  0.00  0.00    +0.000 A 
ATOM     24  C   UNL     1       3.665   3.273  17.313  0.00  0.00    +0.000 A 
ATOM     25  C   UNL     1       3.948   3.020  18.650  0.00  0.00    +0.000 A 
ATOM     26  C   UNL     1       5.053   3.658  19.222  0.00  0.00    +0.000 A 
ATOM     27  C   UNL     1       5.865   4.522  18.477  0.00  0.00    +0.000 A 
BRANCH  22  28
ATOM     28  C   UNL     1       6.361   5.734  16.326  0.00  0.00    +0.000 C 
ATOM     29  O   UNL     1       6.236   5.854  15.130  0.00  0.00    +0.000 OA
BRANCH  28  30
ATOM     30  O   UNL     1       7.281   6.359  17.113  0.00  0.00    +0.000 OA
BRANCH  30  32
ATOM     31  C   UNL     1       8.209   8.416  17.917  0.00  0.00    +0.000 C 
ATOM     32  C   UNL     1       6.958   7.724  17.403  0.00  0.00    +0.000 C 
ENDBRANCH  30  32
ENDBRANCH  28  30
ENDBRANCH  22  28
ENDBRANCH  20  25
ENDBRANCH  19  20
ENDBRANCH  18  19
ENDBRANCH   1  18
TORSDOF 20
ENDMDL
MODEL 9
REMARK VINA RESULT:      -5.6      3.152      5.374
REMARK  Name = 
REMARK  21 active torsions:
REMARK  status: ('A' for Active; 'I' for Inactive)
REMARK    1  A    between atoms: C_1  and  C_2
REMARK    2  A    between atoms: C_2  and  O_3
REMARK    3  A    between atoms: O_3  and  C_4
REMARK    4  A    between atoms: C_4  and  C_6
REMARK    5  A    between atoms: C_9  and  N_10
REMARK    6  A    between atoms: N_10  and  C_11
REMARK    7  A    between atoms: C_11  and  C_12
REMARK    8  A    between atoms: C_12  and  C_13
REMARK    9  A    between atoms: C_13  and  C_14
REMARK   10  A    between atoms: C_14  and  C_15
REMARK   11  A    between atoms: C_15  and  C_16
REMARK   12  A    between atoms: C_16  and  C_17
REMARK   13  A    between atoms: C_17  and  C_18
REMARK   14  A    between atoms: C_18  and  C_19
REMARK   15  A    between atoms: C_19  and  C_20
REMARK   16  A    between atoms: C_20  and  C_21
REMARK   17  A    between atoms: C_21  and  C_22
REMARK   18  A    between atoms: C_22  and  C_23
REMARK   19  A    between atoms: C_23  and  C_24
REMARK   20  A    between atoms: C_24  and  C_25
REMARK   21  A    between atoms: C_25  and  C_26
REMARK                            x       y       z     vdW  Elec       q    Type
REMARK                         _______ _______ _______ _____ _____    ______ ____
ROOT
ATOM      1  C   UNL     1       2.016   8.374  18.944  0.00  0.00    +0.000 C 
ENDROOT
BRANCH   1   2
ATOM      2  C   UNL     1       1.683   9.382  17.849  0.00  0.00    +0.000 C 
BRANCH   2   3
ATOM      3  C   UNL     1       0.439  10.182  18.211  0.00  0.00    +0.000 C 
BRANCH   3   4
ATOM      4  C   UNL     1      -0.812   9.434  17.798  0.00  0.00    +0.000 C 
BRANCH   4   5
ATOM      5  C   UNL     1      -1.779  10.376  17.103  0.00  0.00    +0.000 C 
BRANCH   5   6
ATOM      6  C   UNL     1      -3.167  10.219  17.695  0.00  0.00    +0.000 C 
BRANCH   6   7
ATOM      7  C   UNL     1      -3.833  11.576  17.824  0.00  0.00    +0.000 C 
BRANCH   7   8
ATOM      8  C   UNL     1      -3.822  12.027  19.274  0.00  0.00    +0.000 C 
BRANCH   8   9
ATOM      9  C   UNL     1      -2.463  12.604  19.628  0.00  0.00    +0.000 C 
BRANCH   9  10
ATOM     10  C   UNL     1      -2.216  12.477  21.120  0.00  0.00    +0.000 C 
BRANCH  10  11
ATOM     11  C   UNL     1      -0.792  12.893  21.448  0.00  0.00    +0.000 C 
BRANCH  11  12
ATOM     12  C   UNL     1       0.108  11.673  21.500  0.00  0.00    +0.000 C 
BRANCH  12  13
ATOM     13  C   UNL     1      -0.693  10.417  21.808  0.00  0.00    +0.000 C 
BRANCH  13  14
ATOM     14  C   UNL     1       0.213   9.302  22.282  0.00  0.00    +0.000 C 
ATOM     15  F   UNL     1       0.096   9.081  23.609  0.00  0.00    +0.000 F 
ATOM     16  F   UNL     1      -0.077   8.144  21.651  0.00  0.00    +0.000 F 
ATOM     17  F   UNL     1       1.504   9.597  22.032  0.00  0.00    +0.000 F 
ENDBRANCH  13  14
ENDBRANCH  12  13
ENDBRANCH  11  12
ENDBRANCH  10  11
ENDBRANCH   9  10
ENDBRANCH   8   9
ENDBRANCH   7   8
ENDBRANCH   6   7
ENDBRANCH   5   6
ENDBRANCH   4   5
ENDBRANCH   3   4
ENDBRANCH   2   3
ENDBRANCH   1   2
BRANCH   1  18
ATOM     18  C   UNL     1       2.763   7.157  18.388  0.00  0.00    +0.000 C 
BRANCH  18  19
ATOM     19  C   UNL     1       2.799   6.033  19.426  0.00  0.00    +0.000 C 
BRANCH  19  20
ATOM     20  N   UNL     1       4.109   5.409  19.463  0.00  0.00    +0.000 N 
ATOM     21  H   UNL     1       4.674   5.627  20.270  0.00  0.00    +0.000 HD
BRANCH  20  25
ATOM     22  C   UNL     1       6.101   4.919  15.768  0.00  0.00    +0.000 A 
ATOM     23  C   UNL     1       5.074   4.046  16.153  0.00  0.00    +0.000 A 
ATOM     24  C   UNL     1       4.424   4.234  17.381  0.00  0.00    +0.000 A 
ATOM     25  C   UNL     1       4.821   5.233  18.263  0.00  0.00    +0.000 A 
ATOM     26  C   UNL     1       5.865   6.078  17.876  0.00  0.00    +0.000 A 
ATOM     27  C   UNL     1       6.507   5.929  16.640  0.00  0.00    +0.000 A 
BRANCH  22  28
ATOM     28  C   UNL     1       6.703   4.773  14.411  0.00  0.00    +0.000 C 
ATOM     29  O   UNL     1       7.710   5.348  14.071  0.00  0.00    +0.000 OA
BRANCH  28  30
ATOM     30  O   UNL     1       5.902   4.002  13.624  0.00  0.00    +0.000 OA
BRANCH  30  32
ATOM     31  C   UNL     1       5.692   2.520  11.754  0.00  0.00    +0.000 C 
ATOM     32  C   UNL     1       6.493   3.656  12.365  0.00  0.00    +0.000 C 
ENDBRANCH  30  32
ENDBRANCH  28  30
ENDBRANCH  22  28
ENDBRANCH  20  25
ENDBRANCH  19  20
ENDBRANCH  18  19
ENDBRANCH   1  18
TORSDOF 20
ENDMDL
