MODEL 1
REMARK VINA RESULT:      -9.4      0.000      0.000
REMARK  Name = 
REMARK  3 active torsions:
REMARK  status: ('A' for Active; 'I' for Inactive)
REMARK    1  A    between atoms: C_1  and  C_2
REMARK    2  A    between atoms: C_4  and  C_5
REMARK    3  A    between atoms: C_17  and  C_18
REMARK                            x       y       z     vdW  Elec       q    Type
REMARK                         _______ _______ _______ _____ _____    ______ ____
ROOT
ATOM      1  C   UNL     1       2.475   4.934  20.748  0.00  0.00    +0.000 C 
ATOM      2  C   UNL     1       3.120   5.421  19.495  0.00  0.00    +0.000 A 
ATOM      3  S   UNL     1       4.247   4.404  18.685  0.00  0.00    +0.000 S 
ATOM      4  C   UNL     1       4.429   5.578  17.433  0.00  0.00    +0.000 A 
ATOM      5  N   UNL     1       3.680   6.651  17.589  0.00  0.00    +0.000 NA
ATOM      6  C   UNL     1       2.979   6.607  18.789  0.00  0.00    +0.000 A 
ENDROOT
BRANCH   4   7
ATOM      7  C   UNL     1       5.312   5.318  16.349  0.00  0.00    +0.000 A 
ATOM      8  C   UNL     1       4.903   4.550  15.326  0.00  0.00    +0.000 A 
ATOM      9  C   UNL     1       5.779   4.335  14.184  0.00  0.00    +0.000 A 
ATOM     10  C   UNL     1       5.417   3.520  13.109  0.00  0.00    +0.000 A 
ATOM     11  C   UNL     1       6.276   3.385  12.011  0.00  0.00    +0.000 A 
ATOM     12  C   UNL     1       7.496   4.067  11.982  0.00  0.00    +0.000 A 
ATOM     13  C   UNL     1       7.868   4.873  13.056  0.00  0.00    +0.000 A 
ATOM     14  C   UNL     1       7.006   4.990  14.145  0.00  0.00    +0.000 A 
ATOM     15  O   UNL     1       7.430   5.792  15.220  0.00  0.00    +0.000 OA
ATOM     16  C   UNL     1       6.654   5.945  16.367  0.00  0.00    +0.000 A 
ATOM     17  O   UNL     1       7.081   6.567  17.336  0.00  0.00    +0.000 OA
ENDBRANCH   4   7
BRANCH   6  18
ATOM     18  C   UNL     1       2.144   7.745  19.176  0.00  0.00    +0.000 A 
ATOM     19  C   UNL     1       1.688   8.691  18.250  0.00  0.00    +0.000 A 
ATOM     20  C   UNL     1       0.900   9.774  18.651  0.00  0.00    +0.000 A 
ATOM     21  C   UNL     1       0.523   9.910  19.987  0.00  0.00    +0.000 A 
ATOM     22 CL   UNL     1      -0.455  11.268  20.410  0.00  0.00    +0.000 Cl
ATOM     23  C   UNL     1       0.933   8.952  20.920  0.00  0.00    +0.000 A 
ATOM     24 CL   UNL     1       0.478   9.034  22.585  0.00  0.00    +0.000 Cl
ATOM     25  C   UNL     1       1.738   7.878  20.515  0.00  0.00    +0.000 A 
ENDBRANCH   6  18
TORSDOF 2
ENDMDL
MODEL 2
REMARK VINA RESULT:      -9.4      0.692      1.427
REMARK  Name = 
REMARK  3 active torsions:
REMARK  status: ('A' for Active; 'I' for Inactive)
REMARK    1  A    between atoms: C_1  and  C_2
REMARK    2  A    between atoms: C_4  and  C_5
REMARK    3  A    between atoms: C_17  and  C_18
REMARK                            x       y       z     vdW  Elec       q    Type
REMARK                         _______ _______ _______ _____ _____    ______ ____
ROOT
ATOM      1  C   UNL     1       2.359   4.409  20.877  0.00  0.00    +0.000 C 
ATOM      2  C   UNL     1       3.031   5.011  19.689  0.00  0.00    +0.000 A 
ATOM      3  S   UNL     1       4.132   4.053  18.778  0.00  0.00    +0.000 S 
ATOM      4  C   UNL     1       4.364   5.352  17.665  0.00  0.00    +0.000 A 
ATOM      5  N   UNL     1       3.647   6.425  17.935  0.00  0.00    +0.000 NA
ATOM      6  C   UNL     1       2.934   6.272  19.118  0.00  0.00    +0.000 A 
ENDROOT
BRANCH   4   7
ATOM      7  C   UNL     1       5.248   5.185  16.564  0.00  0.00    +0.000 A 
ATOM      8  C   UNL     1       4.865   4.451  15.507  0.00  0.00    +0.000 A 
ATOM      9  C   UNL     1       5.740   4.332  14.350  0.00  0.00    +0.000 A 
ATOM     10  C   UNL     1       5.405   3.556  13.237  0.00  0.00    +0.000 A 
ATOM     11  C   UNL     1       6.260   3.514  12.129  0.00  0.00    +0.000 A 
ATOM     12  C   UNL     1       7.448   4.249  12.127  0.00  0.00    +0.000 A 
ATOM     13  C   UNL     1       7.794   5.017  13.238  0.00  0.00    +0.000 A 
ATOM     14  C   UNL     1       6.936   5.041  14.337  0.00  0.00    +0.000 A 
ATOM     15  O   UNL     1       7.334   5.807  15.448  0.00  0.00    +0.000 OA
ATOM     16  C   UNL     1       6.562   5.868  16.605  0.00  0.00    +0.000 A 
ATOM     17  O   UNL     1       6.970   6.459  17.601  0.00  0.00    +0.000 OA
ENDBRANCH   4   7
BRANCH   6  18
ATOM     18  C   UNL     1       2.132   7.386  19.624  0.00  0.00    +0.000 A 
ATOM     19  C   UNL     1       1.609   7.404  20.924  0.00  0.00    +0.000 A 
ATOM     20  C   UNL     1       0.836   8.478  21.376  0.00  0.00    +0.000 A 
ATOM     21  C   UNL     1       0.603   9.574  20.545  0.00  0.00    +0.000 A 
ATOM     22 CL   UNL     1      -0.354  10.867  21.172  0.00  0.00    +0.000 Cl
ATOM     23  C   UNL     1       1.153   9.593  19.259  0.00  0.00    +0.000 A 
ATOM     24 CL   UNL     1       0.937  10.930  18.186  0.00  0.00    +0.000 Cl
ATOM     25  C   UNL     1       1.911   8.506  18.805  0.00  0.00    +0.000 A 
ENDBRANCH   6  18
TORSDOF 2
ENDMDL
MODEL 3
REMARK VINA RESULT:      -8.3      4.113      8.603
REMARK  Name = 
REMARK  3 active torsions:
REMARK  status: ('A' for Active; 'I' for Inactive)
REMARK    1  A    between atoms: C_1  and  C_2
REMARK    2  A    between atoms: C_4  and  C_5
REMARK    3  A    between atoms: C_17  and  C_18
REMARK                            x       y       z     vdW  Elec       q    Type
REMARK                         _______ _______ _______ _____ _____    ______ ____
ROOT
ATOM      1  C   UNL     1       4.302   3.211  18.942  0.00  0.00    +0.000 C 
ATOM      2  C   UNL     1       3.838   4.618  18.774  0.00  0.00    +0.000 A 
ATOM      3  S   UNL     1       2.654   5.243  19.855  0.00  0.00    +0.000 S 
ATOM      4  C   UNL     1       2.740   6.784  19.082  0.00  0.00    +0.000 A 
ATOM      5  N   UNL     1       3.615   6.842  18.097  0.00  0.00    +0.000 NA
ATOM      6  C   UNL     1       4.199   5.603  17.866  0.00  0.00    +0.000 A 
ENDROOT
BRANCH   4   7
ATOM      7  C   UNL     1       1.924   7.850  19.549  0.00  0.00    +0.000 A 
ATOM      8  C   UNL     1       1.456   7.829  20.808  0.00  0.00    +0.000 A 
ATOM      9  C   UNL     1       0.676   8.951  21.311  0.00  0.00    +0.000 A 
ATOM     10  C   UNL     1       0.138   8.966  22.600  0.00  0.00    +0.000 A 
ATOM     11  C   UNL     1      -0.563  10.090  23.053  0.00  0.00    +0.000 A 
ATOM     12  C   UNL     1      -0.725  11.202  22.222  0.00  0.00    +0.000 A 
ATOM     13  C   UNL     1      -0.200  11.189  20.932  0.00  0.00    +0.000 A 
ATOM     14  C   UNL     1       0.488  10.059  20.493  0.00  0.00    +0.000 A 
ATOM     15  O   UNL     1       0.979  10.075  19.175  0.00  0.00    +0.000 OA
ATOM     16  C   UNL     1       1.651   8.982  18.634  0.00  0.00    +0.000 A 
ATOM     17  O   UNL     1       1.987   8.973  17.452  0.00  0.00    +0.000 OA
ENDBRANCH   4   7
BRANCH   6  18
ATOM     18  C   UNL     1       5.147   5.449  16.761  0.00  0.00    +0.000 A 
ATOM     19  C   UNL     1       6.460   5.932  16.827  0.00  0.00    +0.000 A 
ATOM     20  C   UNL     1       7.340   5.781  15.751  0.00  0.00    +0.000 A 
ATOM     21  C   UNL     1       6.931   5.107  14.600  0.00  0.00    +0.000 A 
ATOM     22 CL   UNL     1       8.072   4.951  13.314  0.00  0.00    +0.000 Cl
ATOM     23  C   UNL     1       5.637   4.579  14.533  0.00  0.00    +0.000 A 
ATOM     24 CL   UNL     1       5.071   3.704  13.155  0.00  0.00    +0.000 Cl
ATOM     25  C   UNL     1       4.754   4.751  15.607  0.00  0.00    +0.000 A 
ENDBRANCH   6  18
TORSDOF 2
ENDMDL
MODEL 4
REMARK VINA RESULT:      -8.0      4.370      6.741
REMARK  Name = 
REMARK  3 active torsions:
REMARK  status: ('A' for Active; 'I' for Inactive)
REMARK    1  A    between atoms: C_1  and  C_2
REMARK    2  A    between atoms: C_4  and  C_5
REMARK    3  A    between atoms: C_17  and  C_18
REMARK                            x       y       z     vdW  Elec       q    Type
REMARK                         _______ _______ _______ _____ _____    ______ ____
ROOT
ATOM      1  C   UNL     1      -0.311  13.835  18.701  0.00  0.00    +0.000 C 
ATOM      2  C   UNL     1      -0.207  12.348  18.662  0.00  0.00    +0.000 A 
ATOM      3  S   UNL     1       1.334  11.611  18.866  0.00  0.00    +0.000 S 
ATOM      4  C   UNL     1       0.616  10.045  18.772  0.00  0.00    +0.000 A 
ATOM      5  N   UNL     1      -0.694  10.063  18.626  0.00  0.00    +0.000 NA
ATOM      6  C   UNL     1      -1.170  11.362  18.495  0.00  0.00    +0.000 A 
ENDROOT
BRANCH   4   7
ATOM      7  C   UNL     1       1.435   8.888  18.882  0.00  0.00    +0.000 A 
ATOM      8  C   UNL     1       2.220   8.528  17.853  0.00  0.00    +0.000 A 
ATOM      9  C   UNL     1       3.110   7.384  17.985  0.00  0.00    +0.000 A 
ATOM     10  C   UNL     1       3.924   6.947  16.937  0.00  0.00    +0.000 A 
ATOM     11  C   UNL     1       4.798   5.870  17.130  0.00  0.00    +0.000 A 
ATOM     12  C   UNL     1       4.865   5.231  18.371  0.00  0.00    +0.000 A 
ATOM     13  C   UNL     1       4.049   5.655  19.418  0.00  0.00    +0.000 A 
ATOM     14  C   UNL     1       3.178   6.723  19.207  0.00  0.00    +0.000 A 
ATOM     15  O   UNL     1       2.352   7.103  20.280  0.00  0.00    +0.000 OA
ATOM     16  C   UNL     1       1.426   8.136  20.157  0.00  0.00    +0.000 A 
ATOM     17  O   UNL     1       0.644   8.390  21.070  0.00  0.00    +0.000 OA
ENDBRANCH   4   7
BRANCH   6  18
ATOM     18  C   UNL     1      -2.596  11.586  18.251  0.00  0.00    +0.000 A 
ATOM     19  C   UNL     1      -3.199  11.304  17.019  0.00  0.00    +0.000 A 
ATOM     20  C   UNL     1      -4.562  11.538  16.812  0.00  0.00    +0.000 A 
ATOM     21  C   UNL     1      -5.355  12.026  17.850  0.00  0.00    +0.000 A 
ATOM     22 CL   UNL     1      -7.031  12.286  17.524  0.00  0.00    +0.000 Cl
ATOM     23  C   UNL     1      -4.780  12.273  19.100  0.00  0.00    +0.000 A 
ATOM     24 CL   UNL     1      -5.705  12.846  20.442  0.00  0.00    +0.000 Cl
ATOM     25  C   UNL     1      -3.409  12.054  19.297  0.00  0.00    +0.000 A 
ENDBRANCH   6  18
TORSDOF 2
ENDMDL
MODEL 5
REMARK VINA RESULT:      -7.9      5.069      9.467
REMARK  Name = 
REMARK  3 active torsions:
REMARK  status: ('A' for Active; 'I' for Inactive)
REMARK    1  A    between atoms: C_1  and  C_2
REMARK    2  A    between atoms: C_4  and  C_5
REMARK    3  A    between atoms: C_17  and  C_18
REMARK                            x       y       z     vdW  Elec       q    Type
REMARK                         _______ _______ _______ _____ _____    ______ ____
ROOT
ATOM      1  C   UNL     1       3.289   7.751  17.003  0.00  0.00    +0.000 C 
ATOM      2  C   UNL     1       2.568   8.026  18.279  0.00  0.00    +0.000 A 
ATOM      3  S   UNL     1       1.792   9.547  18.490  0.00  0.00    +0.000 S 
ATOM      4  C   UNL     1       1.203   9.050  20.034  0.00  0.00    +0.000 A 
ATOM      5  N   UNL     1       1.538   7.819  20.365  0.00  0.00    +0.000 NA
ATOM      6  C   UNL     1       2.367   7.246  19.409  0.00  0.00    +0.000 A 
ENDROOT
BRANCH   4   7
ATOM      7  C   UNL     1       0.410   9.944  20.804  0.00  0.00    +0.000 A 
ATOM      8  C   UNL     1      -0.543  10.676  20.204  0.00  0.00    +0.000 A 
ATOM      9  C   UNL     1      -1.402  11.542  20.998  0.00  0.00    +0.000 A 
ATOM     10  C   UNL     1      -2.386  12.349  20.422  0.00  0.00    +0.000 A 
ATOM     11  C   UNL     1      -3.218  13.128  21.235  0.00  0.00    +0.000 A 
ATOM     12  C   UNL     1      -3.073  13.099  22.625  0.00  0.00    +0.000 A 
ATOM     13  C   UNL     1      -2.087  12.305  23.206  0.00  0.00    +0.000 A 
ATOM     14  C   UNL     1      -1.260  11.542  22.382  0.00  0.00    +0.000 A 
ATOM     15  O   UNL     1      -0.259  10.775  23.006  0.00  0.00    +0.000 OA
ATOM     16  C   UNL     1       0.636  10.006  22.266  0.00  0.00    +0.000 A 
ATOM     17  O   UNL     1       1.565   9.421  22.818  0.00  0.00    +0.000 OA
ENDBRANCH   4   7
BRANCH   6  18
ATOM     18  C   UNL     1       2.905   5.903  19.633  0.00  0.00    +0.000 A 
ATOM     19  C   UNL     1       4.152   5.502  19.139  0.00  0.00    +0.000 A 
ATOM     20  C   UNL     1       4.635   4.209  19.360  0.00  0.00    +0.000 A 
ATOM     21  C   UNL     1       3.890   3.301  20.114  0.00  0.00    +0.000 A 
ATOM     22 CL   UNL     1       4.550   1.724  20.351  0.00  0.00    +0.000 Cl
ATOM     23  C   UNL     1       2.661   3.697  20.651  0.00  0.00    +0.000 A 
ATOM     24 CL   UNL     1       1.699   2.641  21.623  0.00  0.00    +0.000 Cl
ATOM     25  C   UNL     1       2.174   4.989  20.411  0.00  0.00    +0.000 A 
ENDBRANCH   6  18
TORSDOF 2
ENDMDL
MODEL 6
REMARK VINA RESULT:      -7.7      2.852      4.185
REMARK  Name = 
REMARK  3 active torsions:
REMARK  status: ('A' for Active; 'I' for Inactive)
REMARK    1  A    between atoms: C_1  and  C_2
REMARK    2  A    between atoms: C_4  and  C_5
REMARK    3  A    between atoms: C_17  and  C_18
REMARK                            x       y       z     vdW  Elec       q    Type
REMARK                         _______ _______ _______ _____ _____    ______ ____
ROOT
ATOM      1  C   UNL     1       0.407   9.059  21.962  0.00  0.00    +0.000 C 
ATOM      2  C   UNL     1       1.104   8.711  20.690  0.00  0.00    +0.000 A 
ATOM      3  S   UNL     1       1.827   7.158  20.531  0.00  0.00    +0.000 S 
ATOM      4  C   UNL     1       2.291   7.524  18.909  0.00  0.00    +0.000 A 
ATOM      5  N   UNL     1       1.910   8.718  18.498  0.00  0.00    +0.000 NA
ATOM      6  C   UNL     1       1.292   9.430  19.518  0.00  0.00    +0.000 A 
ENDROOT
BRANCH   4   7
ATOM      7  C   UNL     1       2.997   6.555  18.145  0.00  0.00    +0.000 A 
ATOM      8  C   UNL     1       4.142   6.895  17.532  0.00  0.00    +0.000 A 
ATOM      9  C   UNL     1       4.903   5.890  16.804  0.00  0.00    +0.000 A 
ATOM     10  C   UNL     1       6.083   6.195  16.121  0.00  0.00    +0.000 A 
ATOM     11  C   UNL     1       6.802   5.182  15.477  0.00  0.00    +0.000 A 
ATOM     12  C   UNL     1       6.348   3.861  15.516  0.00  0.00    +0.000 A 
ATOM     13  C   UNL     1       5.166   3.550  16.186  0.00  0.00    +0.000 A 
ATOM     14  C   UNL     1       4.457   4.572  16.815  0.00  0.00    +0.000 A 
ATOM     15  O   UNL     1       3.255   4.222  17.457  0.00  0.00    +0.000 OA
ATOM     16  C   UNL     1       2.459   5.177  18.086  0.00  0.00    +0.000 A 
ATOM     17  O   UNL     1       1.366   4.871  18.555  0.00  0.00    +0.000 OA
ENDBRANCH   4   7
BRANCH   6  18
ATOM     18  C   UNL     1       0.861  10.808  19.275  0.00  0.00    +0.000 A 
ATOM     19  C   UNL     1      -0.459  11.228  19.481  0.00  0.00    +0.000 A 
ATOM     20  C   UNL     1      -0.845  12.548  19.230  0.00  0.00    +0.000 A 
ATOM     21  C   UNL     1       0.097  13.484  18.801  0.00  0.00    +0.000 A 
ATOM     22 CL   UNL     1      -0.448  15.097  18.516  0.00  0.00    +0.000 Cl
ATOM     23  C   UNL     1       1.429  13.093  18.631  0.00  0.00    +0.000 A 
ATOM     24 CL   UNL     1       2.658  14.203  18.135  0.00  0.00    +0.000 Cl
ATOM     25  C   UNL     1       1.806  11.764  18.866  0.00  0.00    +0.000 A 
ENDBRANCH   6  18
TORSDOF 2
ENDMDL
MODEL 7
REMARK VINA RESULT:      -7.7      4.084      8.895
REMARK  Name = 
REMARK  3 active torsions:
REMARK  status: ('A' for Active; 'I' for Inactive)
REMARK    1  A    between atoms: C_1  and  C_2
REMARK    2  A    between atoms: C_4  and  C_5
REMARK    3  A    between atoms: C_17  and  C_18
REMARK                            x       y       z     vdW  Elec       q    Type
REMARK                         _______ _______ _______ _____ _____    ______ ____
ROOT
ATOM      1  C   UNL     1       2.698   3.940  20.377  0.00  0.00    +0.000 C 
ATOM      2  C   UNL     1       2.463   5.370  20.023  0.00  0.00    +0.000 A 
ATOM      3  S   UNL     1       1.302   6.272  20.916  0.00  0.00    +0.000 S 
ATOM      4  C   UNL     1       1.678   7.688  20.004  0.00  0.00    +0.000 A 
ATOM      5  N   UNL     1       2.628   7.512  19.107  0.00  0.00    +0.000 NA
ATOM      6  C   UNL     1       3.039   6.186  19.060  0.00  0.00    +0.000 A 
ENDROOT
BRANCH   4   7
ATOM      7  C   UNL     1       0.995   8.904  20.280  0.00  0.00    +0.000 A 
ATOM      8  C   UNL     1       0.378   9.068  21.461  0.00  0.00    +0.000 A 
ATOM      9  C   UNL     1      -0.266  10.336  21.774  0.00  0.00    +0.000 A 
ATOM     10  C   UNL     1      -0.949  10.550  22.974  0.00  0.00    +0.000 A 
ATOM     11  C   UNL     1      -1.509  11.804  23.247  0.00  0.00    +0.000 A 
ATOM     12  C   UNL     1      -1.386  12.847  22.326  0.00  0.00    +0.000 A 
ATOM     13  C   UNL     1      -0.715  12.638  21.123  0.00  0.00    +0.000 A 
ATOM     14  C   UNL     1      -0.170  11.381  20.861  0.00  0.00    +0.000 A 
ATOM     15  O   UNL     1       0.475  11.203  19.624  0.00  0.00    +0.000 OA
ATOM     16  C   UNL     1       1.023   9.976  19.258  0.00  0.00    +0.000 A 
ATOM     17  O   UNL     1       1.495   9.809  18.136  0.00  0.00    +0.000 OA
ENDBRANCH   4   7
BRANCH   6  18
ATOM     18  C   UNL     1       4.041   5.777  18.073  0.00  0.00    +0.000 A 
ATOM     19  C   UNL     1       3.834   4.705  17.196  0.00  0.00    +0.000 A 
ATOM     20  C   UNL     1       4.814   4.330  16.271  0.00  0.00    +0.000 A 
ATOM     21  C   UNL     1       6.007   5.048  16.184  0.00  0.00    +0.000 A 
ATOM     22 CL   UNL     1       7.168   4.532  15.015  0.00  0.00    +0.000 Cl
ATOM     23  C   UNL     1       6.213   6.148  17.022  0.00  0.00    +0.000 A 
ATOM     24 CL   UNL     1       7.650   7.105  16.948  0.00  0.00    +0.000 Cl
ATOM     25  C   UNL     1       5.235   6.507  17.960  0.00  0.00    +0.000 A 
ENDBRANCH   6  18
TORSDOF 2
ENDMDL
MODEL 8
REMARK VINA RESULT:      -7.7      2.587      3.953
REMARK  Name = 
REMARK  3 active torsions:
REMARK  status: ('A' for Active; 'I' for Inactive)
REMARK    1  A    between atoms: C_1  and  C_2
REMARK    2  A    between atoms: C_4  and  C_5
REMARK    3  A    between atoms: C_17  and  C_18
REMARK                            x       y       z     vdW  Elec       q    Type
REMARK                         _______ _______ _______ _____ _____    ______ ____
ROOT
ATOM      1  C   UNL     1       0.477   8.899  21.982  0.00  0.00    +0.000 C 
ATOM      2  C   UNL     1       1.160   8.579  20.696  0.00  0.00    +0.000 A 
ATOM      3  S   UNL     1       1.894   7.035  20.501  0.00  0.00    +0.000 S 
ATOM      4  C   UNL     1       2.335   7.433  18.881  0.00  0.00    +0.000 A 
ATOM      5  N   UNL     1       1.940   8.630  18.494  0.00  0.00    +0.000 NA
ATOM      6  C   UNL     1       1.328   9.319  19.534  0.00  0.00    +0.000 A 
ENDROOT
BRANCH   4   7
ATOM      7  C   UNL     1       3.040   6.483  18.091  0.00  0.00    +0.000 A 
ATOM      8  C   UNL     1       4.203   6.826  17.515  0.00  0.00    +0.000 A 
ATOM      9  C   UNL     1       4.960   5.837  16.761  0.00  0.00    +0.000 A 
ATOM     10  C   UNL     1       6.159   6.149  16.115  0.00  0.00    +0.000 A 
ATOM     11  C   UNL     1       6.873   5.149  15.444  0.00  0.00    +0.000 A 
ATOM     12  C   UNL     1       6.395   3.837  15.419  0.00  0.00    +0.000 A 
ATOM     13  C   UNL     1       5.195   3.521  16.053  0.00  0.00    +0.000 A 
ATOM     14  C   UNL     1       4.491   4.529  16.709  0.00  0.00    +0.000 A 
ATOM     15  O   UNL     1       3.271   4.175  17.313  0.00  0.00    +0.000 OA
ATOM     16  C   UNL     1       2.479   5.118  17.964  0.00  0.00    +0.000 A 
ATOM     17  O   UNL     1       1.371   4.814  18.400  0.00  0.00    +0.000 OA
ENDBRANCH   4   7
BRANCH   6  18
ATOM     18  C   UNL     1       0.883  10.697  19.320  0.00  0.00    +0.000 A 
ATOM     19  C   UNL     1       1.718  11.679  18.772  0.00  0.00    +0.000 A 
ATOM     20  C   UNL     1       1.269  12.990  18.589  0.00  0.00    +0.000 A 
ATOM     21  C   UNL     1      -0.042  13.334  18.921  0.00  0.00    +0.000 A 
ATOM     22 CL   UNL     1      -0.531  14.970  18.663  0.00  0.00    +0.000 Cl
ATOM     23  C   UNL     1      -0.904  12.358  19.430  0.00  0.00    +0.000 A 
ATOM     24 CL   UNL     1      -2.549  12.701  19.831  0.00  0.00    +0.000 Cl
ATOM     25  C   UNL     1      -0.442  11.049  19.628  0.00  0.00    +0.000 A 
ENDBRANCH   6  18
TORSDOF 2
ENDMDL
MODEL 9
REMARK VINA RESULT:      -7.6      5.792     11.060
REMARK  Name = 
REMARK  3 active torsions:
REMARK  status: ('A' for Active; 'I' for Inactive)
REMARK    1  A    between atoms: C_1  and  C_2
REMARK    2  A    between atoms: C_4  and  C_5
REMARK    3  A    between atoms: C_17  and  C_18
REMARK                            x       y       z     vdW  Elec       q    Type
REMARK                         _______ _______ _______ _____ _____    ______ ____
ROOT
ATOM      1  C   UNL     1       2.428  12.183  18.175  0.00  0.00    +0.000 C 
ATOM      2  C   UNL     1       1.353  11.737  19.107  0.00  0.00    +0.000 A 
ATOM      3  S   UNL     1       0.376  12.921  19.884  0.00  0.00    +0.000 S 
ATOM      4  C   UNL     1      -0.557  11.679  20.636  0.00  0.00    +0.000 A 
ATOM      5  N   UNL     1      -0.186  10.456  20.311  0.00  0.00    +0.000 NA
ATOM      6  C   UNL     1       0.939  10.471  19.494  0.00  0.00    +0.000 A 
ENDROOT
BRANCH   4   7
ATOM      7  C   UNL     1      -1.633  12.031  21.496  0.00  0.00    +0.000 A 
ATOM      8  C   UNL     1      -2.683  12.709  21.005  0.00  0.00    +0.000 A 
ATOM      9  C   UNL     1      -3.817  13.014  21.866  0.00  0.00    +0.000 A 
ATOM     10  C   UNL     1      -4.921  13.744  21.416  0.00  0.00    +0.000 A 
ATOM     11  C   UNL     1      -6.007  13.968  22.271  0.00  0.00    +0.000 A 
ATOM     12  C   UNL     1      -5.997  13.461  23.572  0.00  0.00    +0.000 A 
ATOM     13  C   UNL     1      -4.896  12.742  24.031  0.00  0.00    +0.000 A 
ATOM     14  C   UNL     1      -3.817  12.535  23.172  0.00  0.00    +0.000 A 
ATOM     15  O   UNL     1      -2.714  11.827  23.681  0.00  0.00    +0.000 OA
ATOM     16  C   UNL     1      -1.576  11.597  22.911  0.00  0.00    +0.000 A 
ATOM     17  O   UNL     1      -0.583  11.065  23.401  0.00  0.00    +0.000 OA
ENDBRANCH   4   7
BRANCH   6  18
ATOM     18  C   UNL     1       1.547   9.204  19.084  0.00  0.00    +0.000 A 
ATOM     19  C   UNL     1       2.146   9.031  17.830  0.00  0.00    +0.000 A 
ATOM     20  C   UNL     1       2.709   7.805  17.461  0.00  0.00    +0.000 A 
ATOM     21  C   UNL     1       2.714   6.738  18.359  0.00  0.00    +0.000 A 
ATOM     22 CL   UNL     1       3.432   5.256  17.839  0.00  0.00    +0.000 Cl
ATOM     23  C   UNL     1       2.159   6.905  19.632  0.00  0.00    +0.000 A 
ATOM     24 CL   UNL     1       2.160   5.640  20.809  0.00  0.00    +0.000 Cl
ATOM     25  C   UNL     1       1.580   8.130  19.989  0.00  0.00    +0.000 A 
ENDBRANCH   6  18
TORSDOF 2
ENDMDL
