MODEL 1
REMARK VINA RESULT:      -8.8      0.000      0.000
REMARK  Name = 
REMARK  8 active torsions:
REMARK  status: ('A' for Active; 'I' for Inactive)
REMARK    1  A    between atoms: C_1  and  C_2
REMARK    2  A    between atoms: C_2  and  C_3
REMARK    3  A    between atoms: C_2  and  C_24
REMARK    4  A    between atoms: N_5  and  C_6
REMARK    5  A    between atoms: N_5  and  C_7
REMARK    6  A    between atoms: C_11  and  C_12
REMARK    7  A    between atoms: C_12  and  C_13
REMARK    8  A    between atoms: C_13  and  O_15
REMARK                            x       y       z     vdW  Elec       q    Type
REMARK                         _______ _______ _______ _____ _____    ______ ____
ROOT
ATOM      1  C   UNL     1       2.276   7.011  18.760  0.00  0.00    +0.000 C 
ATOM      2  C   UNL     1       2.745   8.178  17.871  0.00  0.00    +0.000 C 
ATOM      3  C   UNL     1       1.649   9.236  17.718  0.00  0.00    +0.000 C 
ATOM      4  C   UNL     1       1.051   9.627  19.035  0.00  0.00    +0.000 A 
ATOM      5  C   UNL     1       0.305  10.746  19.415  0.00  0.00    +0.000 A 
ATOM      6  C   UNL     1      -0.035  10.555  20.803  0.00  0.00    +0.000 A 
ATOM      7  C   UNL     1      -0.745  11.265  21.791  0.00  0.00    +0.000 A 
ATOM      8  C   UNL     1      -0.785  10.735  23.086  0.00  0.00    +0.000 A 
ATOM      9  C   UNL     1      -0.151   9.530  23.341  0.00  0.00    +0.000 A 
ATOM     10  N   UNL     1       0.519   8.796  22.434  0.00  0.00    +0.000 NA
ATOM     11  C   UNL     1       0.537   9.348  21.204  0.00  0.00    +0.000 A 
ATOM     12  N   UNL     1       1.145   8.789  20.117  0.00  0.00    +0.000 N 
ATOM     13  C   UNL     1       1.883   7.537  20.155  0.00  0.00    +0.000 C 
ENDROOT
BRANCH   1  16
ATOM     14  C   UNL     1       3.011   4.731  18.099  0.00  0.00    +0.000 C 
ATOM     15  O   UNL     1       1.901   4.549  17.586  0.00  0.00    +0.000 OA
ATOM     16  N   UNL     1       3.301   5.925  18.774  0.00  0.00    +0.000 N 
ATOM     17  C   UNL     1       4.578   6.213  19.420  0.00  0.00    +0.000 C 
BRANCH  14  19
ATOM     18  C   UNL     1       3.522   2.266  17.669  0.00  0.00    +0.000 C 
ATOM     19  C   UNL     1       4.112   3.655  17.958  0.00  0.00    +0.000 C 
BRANCH  19  20
ATOM     20  C   UNL     1       5.097   4.010  16.846  0.00  0.00    +0.000 A 
ATOM     21  C   UNL     1       4.667   4.091  15.512  0.00  0.00    +0.000 A 
ATOM     22  C   UNL     1       5.549   4.490  14.506  0.00  0.00    +0.000 A 
ATOM     23  C   UNL     1       6.862   4.816  14.831  0.00  0.00    +0.000 A 
ATOM     24  F   UNL     1       7.699   5.222  13.868  0.00  0.00    +0.000 F 
ATOM     25  C   UNL     1       7.313   4.734  16.141  0.00  0.00    +0.000 A 
ATOM     26  C   UNL     1       6.435   4.326  17.145  0.00  0.00    +0.000 A 
ENDBRANCH  19  20
ENDBRANCH  14  19
ENDBRANCH   1  16
BRANCH   5  27
ATOM     27  C   UNL     1      -0.085  11.868  18.480  0.00  0.00    +0.000 C 
BRANCH  27  28
ATOM     28  C   UNL     1      -1.527  11.976  18.030  0.00  0.00    +0.000 C 
ATOM     29  O   UNL     1      -2.461  12.004  18.818  0.00  0.00    +0.000 OA
BRANCH  28  30
ATOM     30  O   UNL     1      -1.738  11.931  16.696  0.00  0.00    +0.000 OA
ATOM     31  H   UNL     1      -1.117  11.353  16.216  0.00  0.00    +0.000 HD
ENDBRANCH  28  30
ENDBRANCH  27  28
ENDBRANCH   5  27
TORSDOF 6
ENDMDL
MODEL 2
REMARK VINA RESULT:      -8.4      0.953      1.035
REMARK  Name = 
REMARK  8 active torsions:
REMARK  status: ('A' for Active; 'I' for Inactive)
REMARK    1  A    between atoms: C_1  and  C_2
REMARK    2  A    between atoms: C_2  and  C_3
REMARK    3  A    between atoms: C_2  and  C_24
REMARK    4  A    between atoms: N_5  and  C_6
REMARK    5  A    between atoms: N_5  and  C_7
REMARK    6  A    between atoms: C_11  and  C_12
REMARK    7  A    between atoms: C_12  and  C_13
REMARK    8  A    between atoms: C_13  and  O_15
REMARK                            x       y       z     vdW  Elec       q    Type
REMARK                         _______ _______ _______ _____ _____    ______ ____
ROOT
ATOM      1  C   UNL     1       2.264   6.939  18.760  0.00  0.00    +0.000 C 
ATOM      2  C   UNL     1       2.701   8.092  17.836  0.00  0.00    +0.000 C 
ATOM      3  C   UNL     1       1.587   9.129  17.675  0.00  0.00    +0.000 C 
ATOM      4  C   UNL     1       1.003   9.543  18.992  0.00  0.00    +0.000 A 
ATOM      5  C   UNL     1       0.245  10.658  19.357  0.00  0.00    +0.000 A 
ATOM      6  C   UNL     1      -0.070  10.495  20.755  0.00  0.00    +0.000 A 
ATOM      7  C   UNL     1      -0.775  11.218  21.737  0.00  0.00    +0.000 A 
ATOM      8  C   UNL     1      -0.787  10.719  23.044  0.00  0.00    +0.000 A 
ATOM      9  C   UNL     1      -0.129   9.530  23.318  0.00  0.00    +0.000 A 
ATOM     10  N   UNL     1       0.538   8.785  22.418  0.00  0.00    +0.000 NA
ATOM     11  C   UNL     1       0.527   9.308  21.175  0.00  0.00    +0.000 A 
ATOM     12  N   UNL     1       1.127   8.732  20.092  0.00  0.00    +0.000 N 
ATOM     13  C   UNL     1       1.885   7.493  20.148  0.00  0.00    +0.000 C 
ENDROOT
BRANCH   1  16
ATOM     14  C   UNL     1       3.042   4.672  18.104  0.00  0.00    +0.000 C 
ATOM     15  O   UNL     1       1.941   4.473  17.579  0.00  0.00    +0.000 OA
ATOM     16  N   UNL     1       3.307   5.870  18.783  0.00  0.00    +0.000 N 
ATOM     17  C   UNL     1       4.573   6.178  19.442  0.00  0.00    +0.000 C 
BRANCH  14  19
ATOM     18  C   UNL     1       3.596   2.213  17.700  0.00  0.00    +0.000 C 
ATOM     19  C   UNL     1       4.162   3.615  17.973  0.00  0.00    +0.000 C 
BRANCH  19  20
ATOM     20  C   UNL     1       5.139   3.975  16.855  0.00  0.00    +0.000 A 
ATOM     21  C   UNL     1       4.711   4.013  15.518  0.00  0.00    +0.000 A 
ATOM     22  C   UNL     1       5.584   4.416  14.506  0.00  0.00    +0.000 A 
ATOM     23  C   UNL     1       6.884   4.789  14.827  0.00  0.00    +0.000 A 
ATOM     24  F   UNL     1       7.712   5.199  13.857  0.00  0.00    +0.000 F 
ATOM     25  C   UNL     1       7.334   4.750  16.139  0.00  0.00    +0.000 A 
ATOM     26  C   UNL     1       6.466   4.338  17.150  0.00  0.00    +0.000 A 
ENDBRANCH  19  20
ENDBRANCH  14  19
ENDBRANCH   1  16
BRANCH   5  27
ATOM     27  C   UNL     1      -0.177  11.752  18.402  0.00  0.00    +0.000 C 
BRANCH  27  28
ATOM     28  C   UNL     1       0.303  13.166  18.654  0.00  0.00    +0.000 C 
ATOM     29  O   UNL     1       1.442  13.420  19.016  0.00  0.00    +0.000 OA
BRANCH  28  30
ATOM     30  O   UNL     1      -0.634  14.136  18.561  0.00  0.00    +0.000 OA
ATOM     31  H   UNL     1      -1.550  13.803  18.562  0.00  0.00    +0.000 HD
ENDBRANCH  28  30
ENDBRANCH  27  28
ENDBRANCH   5  27
TORSDOF 6
ENDMDL
MODEL 3
REMARK VINA RESULT:      -8.3      3.373      8.557
REMARK  Name = 
REMARK  8 active torsions:
REMARK  status: ('A' for Active; 'I' for Inactive)
REMARK    1  A    between atoms: C_1  and  C_2
REMARK    2  A    between atoms: C_2  and  C_3
REMARK    3  A    between atoms: C_2  and  C_24
REMARK    4  A    between atoms: N_5  and  C_6
REMARK    5  A    between atoms: N_5  and  C_7
REMARK    6  A    between atoms: C_11  and  C_12
REMARK    7  A    between atoms: C_12  and  C_13
REMARK    8  A    between atoms: C_13  and  O_15
REMARK                            x       y       z     vdW  Elec       q    Type
REMARK                         _______ _______ _______ _____ _____    ______ ____
ROOT
ATOM      1  C   UNL     1       1.858   8.375  19.801  0.00  0.00    +0.000 C 
ATOM      2  C   UNL     1       2.017   8.331  18.269  0.00  0.00    +0.000 C 
ATOM      3  C   UNL     1       3.254   7.526  17.861  0.00  0.00    +0.000 C 
ATOM      4  C   UNL     1       3.322   6.200  18.556  0.00  0.00    +0.000 A 
ATOM      5  C   UNL     1       4.039   5.038  18.261  0.00  0.00    +0.000 A 
ATOM      6  C   UNL     1       3.740   4.098  19.312  0.00  0.00    +0.000 A 
ATOM      7  C   UNL     1       4.101   2.776  19.638  0.00  0.00    +0.000 A 
ATOM      8  C   UNL     1       3.510   2.186  20.761  0.00  0.00    +0.000 A 
ATOM      9  C   UNL     1       2.617   2.925  21.519  0.00  0.00    +0.000 A 
ATOM     10  N   UNL     1       2.254   4.197  21.272  0.00  0.00    +0.000 NA
ATOM     11  C   UNL     1       2.843   4.721  20.178  0.00  0.00    +0.000 A 
ATOM     12  N   UNL     1       2.641   5.995  19.730  0.00  0.00    +0.000 N 
ATOM     13  C   UNL     1       1.736   6.943  20.358  0.00  0.00    +0.000 C 
ENDROOT
BRANCH   1  16
ATOM     14  C   UNL     1       0.645  10.527  19.536  0.00  0.00    +0.000 C 
ATOM     15  O   UNL     1       1.521  10.895  18.745  0.00  0.00    +0.000 OA
ATOM     16  N   UNL     1       0.736   9.285  20.179  0.00  0.00    +0.000 N 
ATOM     17  C   UNL     1      -0.245   8.783  21.136  0.00  0.00    +0.000 C 
BRANCH  14  19
ATOM     18  C   UNL     1      -0.237  12.914  19.748  0.00  0.00    +0.000 C 
ATOM     19  C   UNL     1      -0.592  11.419  19.786  0.00  0.00    +0.000 C 
BRANCH  19  20
ATOM     20  C   UNL     1      -1.689  11.150  18.758  0.00  0.00    +0.000 A 
ATOM     21  C   UNL     1      -2.910  11.841  18.820  0.00  0.00    +0.000 A 
ATOM     22  C   UNL     1      -3.882  11.650  17.836  0.00  0.00    +0.000 A 
ATOM     23  C   UNL     1      -3.635  10.775  16.784  0.00  0.00    +0.000 A 
ATOM     24  F   UNL     1      -4.559  10.613  15.829  0.00  0.00    +0.000 F 
ATOM     25  C   UNL     1      -2.440  10.073  16.707  0.00  0.00    +0.000 A 
ATOM     26  C   UNL     1      -1.472  10.255  17.694  0.00  0.00    +0.000 A 
ENDBRANCH  19  20
ENDBRANCH  14  19
ENDBRANCH   1  16
BRANCH   5  27
ATOM     27  C   UNL     1       4.977   4.891  17.083  0.00  0.00    +0.000 C 
BRANCH  27  28
ATOM     28  C   UNL     1       6.463   5.082  17.306  0.00  0.00    +0.000 C 
ATOM     29  O   UNL     1       7.106   5.956  16.742  0.00  0.00    +0.000 OA
BRANCH  28  30
ATOM     30  O   UNL     1       7.070   4.160  18.086  0.00  0.00    +0.000 OA
ATOM     31  H   UNL     1       6.906   4.279  19.039  0.00  0.00    +0.000 HD
ENDBRANCH  28  30
ENDBRANCH  27  28
ENDBRANCH   5  27
TORSDOF 6
ENDMDL
MODEL 4
REMARK VINA RESULT:      -8.3      3.388      8.672
REMARK  Name = 
REMARK  8 active torsions:
REMARK  status: ('A' for Active; 'I' for Inactive)
REMARK    1  A    between atoms: C_1  and  C_2
REMARK    2  A    between atoms: C_2  and  C_3
REMARK    3  A    between atoms: C_2  and  C_24
REMARK    4  A    between atoms: N_5  and  C_6
REMARK    5  A    between atoms: N_5  and  C_7
REMARK    6  A    between atoms: C_11  and  C_12
REMARK    7  A    between atoms: C_12  and  C_13
REMARK    8  A    between atoms: C_13  and  O_15
REMARK                            x       y       z     vdW  Elec       q    Type
REMARK                         _______ _______ _______ _____ _____    ______ ____
ROOT
ATOM      1  C   UNL     1       1.882   8.447  19.783  0.00  0.00    +0.000 C 
ATOM      2  C   UNL     1       1.907   8.515  18.244  0.00  0.00    +0.000 C 
ATOM      3  C   UNL     1       3.126   7.784  17.675  0.00  0.00    +0.000 C 
ATOM      4  C   UNL     1       3.292   6.416  18.264  0.00  0.00    +0.000 A 
ATOM      5  C   UNL     1       4.014   5.303  17.826  0.00  0.00    +0.000 A 
ATOM      6  C   UNL     1       3.834   4.282  18.828  0.00  0.00    +0.000 A 
ATOM      7  C   UNL     1       4.260   2.954  19.026  0.00  0.00    +0.000 A 
ATOM      8  C   UNL     1       3.786   2.267  20.149  0.00  0.00    +0.000 A 
ATOM      9  C   UNL     1       2.942   2.921  21.032  0.00  0.00    +0.000 A 
ATOM     10  N   UNL     1       2.523   4.193  20.910  0.00  0.00    +0.000 NA
ATOM     11  C   UNL     1       2.999   4.813  19.810  0.00  0.00    +0.000 A 
ATOM     12  N   UNL     1       2.723   6.106  19.474  0.00  0.00    +0.000 N 
ATOM     13  C   UNL     1       1.849   6.976  20.244  0.00  0.00    +0.000 C 
ENDROOT
BRANCH   1  16
ATOM     14  C   UNL     1       0.637  10.597  19.833  0.00  0.00    +0.000 C 
ATOM     15  O   UNL     1       1.468  11.068  19.049  0.00  0.00    +0.000 OA
ATOM     16  N   UNL     1       0.771   9.289  20.320  0.00  0.00    +0.000 N 
ATOM     17  C   UNL     1      -0.155   8.663  21.259  0.00  0.00    +0.000 C 
BRANCH  14  19
ATOM     18  C   UNL     1      -0.244  12.920  20.420  0.00  0.00    +0.000 C 
ATOM     19  C   UNL     1      -0.595  11.435  20.247  0.00  0.00    +0.000 C 
BRANCH  19  20
ATOM     20  C   UNL     1      -1.720  11.314  19.221  0.00  0.00    +0.000 A 
ATOM     21  C   UNL     1      -1.624  10.399  18.161  0.00  0.00    +0.000 A 
ATOM     22  C   UNL     1      -2.685  10.235  17.269  0.00  0.00    +0.000 A 
ATOM     23  C   UNL     1      -3.848  10.979  17.437  0.00  0.00    +0.000 A 
ATOM     24  F   UNL     1      -4.873  10.801  16.595  0.00  0.00    +0.000 F 
ATOM     25  C   UNL     1      -3.963  11.897  18.472  0.00  0.00    +0.000 A 
ATOM     26  C   UNL     1      -2.900  12.069  19.358  0.00  0.00    +0.000 A 
ENDBRANCH  19  20
ENDBRANCH  14  19
ENDBRANCH   1  16
BRANCH   5  27
ATOM     27  C   UNL     1       4.848   5.270  16.565  0.00  0.00    +0.000 C 
BRANCH  27  28
ATOM     28  C   UNL     1       6.357   5.320  16.688  0.00  0.00    +0.000 C 
ATOM     29  O   UNL     1       7.012   6.301  16.367  0.00  0.00    +0.000 OA
BRANCH  28  30
ATOM     30  O   UNL     1       6.960   4.173  17.074  0.00  0.00    +0.000 OA
ATOM     31  H   UNL     1       7.693   4.304  17.703  0.00  0.00    +0.000 HD
ENDBRANCH  28  30
ENDBRANCH  27  28
ENDBRANCH   5  27
TORSDOF 6
ENDMDL
MODEL 5
REMARK VINA RESULT:      -8.2      3.261      8.642
REMARK  Name = 
REMARK  8 active torsions:
REMARK  status: ('A' for Active; 'I' for Inactive)
REMARK    1  A    between atoms: C_1  and  C_2
REMARK    2  A    between atoms: C_2  and  C_3
REMARK    3  A    between atoms: C_2  and  C_24
REMARK    4  A    between atoms: N_5  and  C_6
REMARK    5  A    between atoms: N_5  and  C_7
REMARK    6  A    between atoms: C_11  and  C_12
REMARK    7  A    between atoms: C_12  and  C_13
REMARK    8  A    between atoms: C_13  and  O_15
REMARK                            x       y       z     vdW  Elec       q    Type
REMARK                         _______ _______ _______ _____ _____    ______ ____
ROOT
ATOM      1  C   UNL     1       2.212   8.015  19.442  0.00  0.00    +0.000 C 
ATOM      2  C   UNL     1       2.520   8.381  17.977  0.00  0.00    +0.000 C 
ATOM      3  C   UNL     1       3.705   7.575  17.440  0.00  0.00    +0.000 C 
ATOM      4  C   UNL     1       3.571   6.110  17.725  0.00  0.00    +0.000 A 
ATOM      5  C   UNL     1       4.195   4.996  17.157  0.00  0.00    +0.000 A 
ATOM      6  C   UNL     1       3.699   3.845  17.869  0.00  0.00    +0.000 A 
ATOM      7  C   UNL     1       3.891   2.450  17.823  0.00  0.00    +0.000 A 
ATOM      8  C   UNL     1       3.135   1.649  18.685  0.00  0.00    +0.000 A 
ATOM      9  C   UNL     1       2.247   2.253  19.561  0.00  0.00    +0.000 A 
ATOM     10  N   UNL     1       2.039   3.577  19.668  0.00  0.00    +0.000 NA
ATOM     11  C   UNL     1       2.786   4.309  18.815  0.00  0.00    +0.000 A 
ATOM     12  N   UNL     1       2.757   5.671  18.740  0.00  0.00    +0.000 N 
ATOM     13  C   UNL     1       1.892   6.511  19.552  0.00  0.00    +0.000 C 
ENDROOT
BRANCH   1  16
ATOM     14  C   UNL     1       0.935  10.145  19.350  0.00  0.00    +0.000 C 
ATOM     15  O   UNL     1       1.659  10.510  18.418  0.00  0.00    +0.000 OA
ATOM     16  N   UNL     1       1.153   8.916  19.989  0.00  0.00    +0.000 N 
ATOM     17  C   UNL     1       0.356   8.417  21.105  0.00  0.00    +0.000 C 
BRANCH  14  19
ATOM     18  C   UNL     1       0.134  12.504  19.908  0.00  0.00    +0.000 C 
ATOM     19  C   UNL     1      -0.259  11.023  19.791  0.00  0.00    +0.000 C 
BRANCH  19  20
ATOM     20  C   UNL     1      -1.429  10.902  18.817  0.00  0.00    +0.000 A 
ATOM     21  C   UNL     1      -2.548  11.740  18.938  0.00  0.00    +0.000 A 
ATOM     22  C   UNL     1      -3.581  11.681  18.002  0.00  0.00    +0.000 A 
ATOM     23  C   UNL     1      -3.498  10.789  16.938  0.00  0.00    +0.000 A 
ATOM     24  F   UNL     1      -4.479  10.752  16.028  0.00  0.00    +0.000 F 
ATOM     25  C   UNL     1      -2.406   9.943  16.803  0.00  0.00    +0.000 A 
ATOM     26  C   UNL     1      -1.377   9.994  17.742  0.00  0.00    +0.000 A 
ENDBRANCH  19  20
ENDBRANCH  14  19
ENDBRANCH   1  16
BRANCH   5  27
ATOM     27  C   UNL     1       5.227   5.068  16.054  0.00  0.00    +0.000 C 
BRANCH  27  28
ATOM     28  C   UNL     1       6.689   5.193  16.431  0.00  0.00    +0.000 C 
ATOM     29  O   UNL     1       7.392   6.116  16.045  0.00  0.00    +0.000 OA
BRANCH  28  30
ATOM     30  O   UNL     1       7.211   4.164  17.135  0.00  0.00    +0.000 OA
ATOM     31  H   UNL     1       7.755   3.555  16.601  0.00  0.00    +0.000 HD
ENDBRANCH  28  30
ENDBRANCH  27  28
ENDBRANCH   5  27
TORSDOF 6
ENDMDL
MODEL 6
REMARK VINA RESULT:      -8.2      3.395      9.254
REMARK  Name = 
REMARK  8 active torsions:
REMARK  status: ('A' for Active; 'I' for Inactive)
REMARK    1  A    between atoms: C_1  and  C_2
REMARK    2  A    between atoms: C_2  and  C_3
REMARK    3  A    between atoms: C_2  and  C_24
REMARK    4  A    between atoms: N_5  and  C_6
REMARK    5  A    between atoms: N_5  and  C_7
REMARK    6  A    between atoms: C_11  and  C_12
REMARK    7  A    between atoms: C_12  and  C_13
REMARK    8  A    between atoms: C_13  and  O_15
REMARK                            x       y       z     vdW  Elec       q    Type
REMARK                         _______ _______ _______ _____ _____    ______ ____
ROOT
ATOM      1  C   UNL     1       1.969   7.178  18.833  0.00  0.00    +0.000 C 
ATOM      2  C   UNL     1       2.035   6.094  19.925  0.00  0.00    +0.000 C 
ATOM      3  C   UNL     1       2.162   4.696  19.314  0.00  0.00    +0.000 C 
ATOM      4  C   UNL     1       3.235   4.628  18.271  0.00  0.00    +0.000 A 
ATOM      5  C   UNL     1       3.918   3.543  17.717  0.00  0.00    +0.000 A 
ATOM      6  C   UNL     1       4.810   4.088  16.723  0.00  0.00    +0.000 A 
ATOM      7  C   UNL     1       5.763   3.585  15.816  0.00  0.00    +0.000 A 
ATOM      8  C   UNL     1       6.486   4.500  15.043  0.00  0.00    +0.000 A 
ATOM      9  C   UNL     1       6.225   5.854  15.179  0.00  0.00    +0.000 A 
ATOM     10  N   UNL     1       5.312   6.390  16.009  0.00  0.00    +0.000 NA
ATOM     11  C   UNL     1       4.644   5.472  16.737  0.00  0.00    +0.000 A 
ATOM     12  N   UNL     1       3.664   5.769  17.641  0.00  0.00    +0.000 N 
ATOM     13  C   UNL     1       3.237   7.122  17.958  0.00  0.00    +0.000 C 
ENDROOT
BRANCH   1  16
ATOM     14  C   UNL     1       1.599   9.624  18.594  0.00  0.00    +0.000 C 
ATOM     15  O   UNL     1       1.822   9.514  17.383  0.00  0.00    +0.000 OA
ATOM     16  N   UNL     1       1.697   8.514  19.445  0.00  0.00    +0.000 N 
ATOM     17  C   UNL     1       1.465   8.560  20.885  0.00  0.00    +0.000 C 
BRANCH  14  19
ATOM     18  C   UNL     1       1.879  12.160  18.496  0.00  0.00    +0.000 C 
ATOM     19  C   UNL     1       1.159  10.986  19.177  0.00  0.00    +0.000 C 
BRANCH  19  20
ATOM     20  C   UNL     1      -0.348  11.189  19.039  0.00  0.00    +0.000 A 
ATOM     21  C   UNL     1      -1.004  12.189  19.774  0.00  0.00    +0.000 A 
ATOM     22  C   UNL     1      -2.368  12.425  19.590  0.00  0.00    +0.000 A 
ATOM     23  C   UNL     1      -3.079  11.667  18.666  0.00  0.00    +0.000 A 
ATOM     24  F   UNL     1      -4.381  11.912  18.474  0.00  0.00    +0.000 F 
ATOM     25  C   UNL     1      -2.455  10.666  17.935  0.00  0.00    +0.000 A 
ATOM     26  C   UNL     1      -1.095  10.423  18.125  0.00  0.00    +0.000 A 
ENDBRANCH  19  20
ENDBRANCH  14  19
ENDBRANCH   1  16
BRANCH   5  27
ATOM     27  C   UNL     1       3.671   2.099  18.092  0.00  0.00    +0.000 C 
BRANCH  27  28
ATOM     28  C   UNL     1       4.440   1.505  19.253  0.00  0.00    +0.000 C 
ATOM     29  O   UNL     1       4.806   2.171  20.210  0.00  0.00    +0.000 OA
BRANCH  28  30
ATOM     30  O   UNL     1       4.798   0.207  19.127  0.00  0.00    +0.000 OA
ATOM     31  H   UNL     1       5.739   0.037  19.318  0.00  0.00    +0.000 HD
ENDBRANCH  28  30
ENDBRANCH  27  28
ENDBRANCH   5  27
TORSDOF 6
ENDMDL
MODEL 7
REMARK VINA RESULT:      -8.1      3.530      8.677
REMARK  Name = 
REMARK  8 active torsions:
REMARK  status: ('A' for Active; 'I' for Inactive)
REMARK    1  A    between atoms: C_1  and  C_2
REMARK    2  A    between atoms: C_2  and  C_3
REMARK    3  A    between atoms: C_2  and  C_24
REMARK    4  A    between atoms: N_5  and  C_6
REMARK    5  A    between atoms: N_5  and  C_7
REMARK    6  A    between atoms: C_11  and  C_12
REMARK    7  A    between atoms: C_12  and  C_13
REMARK    8  A    between atoms: C_13  and  O_15
REMARK                            x       y       z     vdW  Elec       q    Type
REMARK                         _______ _______ _______ _____ _____    ______ ____
ROOT
ATOM      1  C   UNL     1       1.925   8.663  19.377  0.00  0.00    +0.000 C 
ATOM      2  C   UNL     1       2.263   8.495  17.884  0.00  0.00    +0.000 C 
ATOM      3  C   UNL     1       3.497   7.609  17.689  0.00  0.00    +0.000 C 
ATOM      4  C   UNL     1       3.413   6.339  18.479  0.00  0.00    +0.000 A 
ATOM      5  C   UNL     1       4.099   5.128  18.358  0.00  0.00    +0.000 A 
ATOM      6  C   UNL     1       3.628   4.285  19.429  0.00  0.00    +0.000 A 
ATOM      7  C   UNL     1       3.878   2.977  19.889  0.00  0.00    +0.000 A 
ATOM      8  C   UNL     1       3.128   2.501  20.969  0.00  0.00    +0.000 A 
ATOM      9  C   UNL     1       2.189   3.334  21.557  0.00  0.00    +0.000 A 
ATOM     10  N   UNL     1       1.925   4.597  21.178  0.00  0.00    +0.000 NA
ATOM     11  C   UNL     1       2.668   5.011  20.131  0.00  0.00    +0.000 A 
ATOM     12  N   UNL     1       2.587   6.253  19.572  0.00  0.00    +0.000 N 
ATOM     13  C   UNL     1       1.663   7.284  20.015  0.00  0.00    +0.000 C 
ENDROOT
BRANCH   1  16
ATOM     14  C   UNL     1       0.690  10.296  20.785  0.00  0.00    +0.000 C 
ATOM     15  O   UNL     1       1.424   9.996  21.733  0.00  0.00    +0.000 OA
ATOM     16  N   UNL     1       0.814   9.646  19.549  0.00  0.00    +0.000 N 
ATOM     17  C   UNL     1      -0.021   9.929  18.385  0.00  0.00    +0.000 C 
BRANCH  14  19
ATOM     18  C   UNL     1      -0.712  11.677  22.412  0.00  0.00    +0.000 C 
ATOM     19  C   UNL     1      -0.345  11.434  20.940  0.00  0.00    +0.000 C 
BRANCH  19  20
ATOM     20  C   UNL     1       0.171  12.741  20.342  0.00  0.00    +0.000 A 
ATOM     21  C   UNL     1       1.474  13.186  20.617  0.00  0.00    +0.000 A 
ATOM     22  C   UNL     1       1.971  14.340  20.008  0.00  0.00    +0.000 A 
ATOM     23  C   UNL     1       1.171  15.049  19.119  0.00  0.00    +0.000 A 
ATOM     24  F   UNL     1       1.660  16.142  18.518  0.00  0.00    +0.000 F 
ATOM     25  C   UNL     1      -0.124  14.635  18.839  0.00  0.00    +0.000 A 
ATOM     26  C   UNL     1      -0.625  13.488  19.453  0.00  0.00    +0.000 A 
ENDBRANCH  19  20
ENDBRANCH  14  19
ENDBRANCH   1  16
BRANCH   5  27
ATOM     27  C   UNL     1       5.162   4.851  17.318  0.00  0.00    +0.000 C 
BRANCH  27  28
ATOM     28  C   UNL     1       6.599   4.689  17.769  0.00  0.00    +0.000 C 
ATOM     29  O   UNL     1       6.927   4.717  18.946  0.00  0.00    +0.000 OA
BRANCH  28  30
ATOM     30  O   UNL     1       7.525   4.619  16.787  0.00  0.00    +0.000 OA
ATOM     31  H   UNL     1       7.148   4.504  15.895  0.00  0.00    +0.000 HD
ENDBRANCH  28  30
ENDBRANCH  27  28
ENDBRANCH   5  27
TORSDOF 6
ENDMDL
MODEL 8
REMARK VINA RESULT:      -8.0      3.277      8.688
REMARK  Name = 
REMARK  8 active torsions:
REMARK  status: ('A' for Active; 'I' for Inactive)
REMARK    1  A    between atoms: C_1  and  C_2
REMARK    2  A    between atoms: C_2  and  C_3
REMARK    3  A    between atoms: C_2  and  C_24
REMARK    4  A    between atoms: N_5  and  C_6
REMARK    5  A    between atoms: N_5  and  C_7
REMARK    6  A    between atoms: C_11  and  C_12
REMARK    7  A    between atoms: C_12  and  C_13
REMARK    8  A    between atoms: C_13  and  O_15
REMARK                            x       y       z     vdW  Elec       q    Type
REMARK                         _______ _______ _______ _____ _____    ______ ____
ROOT
ATOM      1  C   UNL     1       2.109   8.102  18.999  0.00  0.00    +0.000 C 
ATOM      2  C   UNL     1       2.764   8.376  17.632  0.00  0.00    +0.000 C 
ATOM      3  C   UNL     1       3.969   7.461  17.399  0.00  0.00    +0.000 C 
ATOM      4  C   UNL     1       3.655   6.025  17.689  0.00  0.00    +0.000 A 
ATOM      5  C   UNL     1       4.297   4.844  17.309  0.00  0.00    +0.000 A 
ATOM      6  C   UNL     1       3.563   3.766  17.924  0.00  0.00    +0.000 A 
ATOM      7  C   UNL     1       3.647   2.361  17.963  0.00  0.00    +0.000 A 
ATOM      8  C   UNL     1       2.654   1.657  18.654  0.00  0.00    +0.000 A 
ATOM      9  C   UNL     1       1.646   2.364  19.290  0.00  0.00    +0.000 A 
ATOM     10  N   UNL     1       1.529   3.704  19.309  0.00  0.00    +0.000 NA
ATOM     11  C   UNL     1       2.503   4.339  18.625  0.00  0.00    +0.000 A 
ATOM     12  N   UNL     1       2.604   5.695  18.507  0.00  0.00    +0.000 N 
ATOM     13  C   UNL     1       1.651   6.632  19.078  0.00  0.00    +0.000 C 
ENDROOT
BRANCH   1  16
ATOM     14  C   UNL     1       0.821   9.510  20.592  0.00  0.00    +0.000 C 
ATOM     15  O   UNL     1       1.449   8.988  21.521  0.00  0.00    +0.000 OA
ATOM     16  N   UNL     1       1.032   9.102  19.267  0.00  0.00    +0.000 N 
ATOM     17  C   UNL     1       0.324   9.654  18.116  0.00  0.00    +0.000 C 
BRANCH  14  19
ATOM     18  C   UNL     1      -0.450  10.810  22.384  0.00  0.00    +0.000 C 
ATOM     19  C   UNL     1      -0.171  10.659  20.881  0.00  0.00    +0.000 C 
BRANCH  19  20
ATOM     20  C   UNL     1       0.348  11.991  20.343  0.00  0.00    +0.000 A 
ATOM     21  C   UNL     1       1.686  12.367  20.542  0.00  0.00    +0.000 A 
ATOM     22  C   UNL     1       2.179  13.548  19.984  0.00  0.00    +0.000 A 
ATOM     23  C   UNL     1       1.341  14.353  19.221  0.00  0.00    +0.000 A 
ATOM     24  F   UNL     1       1.823  15.473  18.667  0.00  0.00    +0.000 F 
ATOM     25  C   UNL     1       0.012  14.007  19.019  0.00  0.00    +0.000 A 
ATOM     26  C   UNL     1      -0.485  12.833  19.583  0.00  0.00    +0.000 A 
ENDBRANCH  19  20
ENDBRANCH  14  19
ENDBRANCH   1  16
BRANCH   5  27
ATOM     27  C   UNL     1       5.552   4.789  16.466  0.00  0.00    +0.000 C 
BRANCH  27  28
ATOM     28  C   UNL     1       6.877   4.521  17.147  0.00  0.00    +0.000 C 
ATOM     29  O   UNL     1       7.938   4.505  16.541  0.00  0.00    +0.000 OA
BRANCH  28  30
ATOM     30  O   UNL     1       6.816   4.189  18.457  0.00  0.00    +0.000 OA
ATOM     31  H   UNL     1       6.571   3.259  18.618  0.00  0.00    +0.000 HD
ENDBRANCH  28  30
ENDBRANCH  27  28
ENDBRANCH   5  27
TORSDOF 6
ENDMDL
MODEL 9
REMARK VINA RESULT:      -7.9      3.754      8.884
REMARK  Name = 
REMARK  8 active torsions:
REMARK  status: ('A' for Active; 'I' for Inactive)
REMARK    1  A    between atoms: C_1  and  C_2
REMARK    2  A    between atoms: C_2  and  C_3
REMARK    3  A    between atoms: C_2  and  C_24
REMARK    4  A    between atoms: N_5  and  C_6
REMARK    5  A    between atoms: N_5  and  C_7
REMARK    6  A    between atoms: C_11  and  C_12
REMARK    7  A    between atoms: C_12  and  C_13
REMARK    8  A    between atoms: C_13  and  O_15
REMARK                            x       y       z     vdW  Elec       q    Type
REMARK                         _______ _______ _______ _____ _____    ______ ____
ROOT
ATOM      1  C   UNL     1       1.838   8.682  19.577  0.00  0.00    +0.000 C 
ATOM      2  C   UNL     1       2.060   8.601  18.055  0.00  0.00    +0.000 C 
ATOM      3  C   UNL     1       3.288   7.753  17.715  0.00  0.00    +0.000 C 
ATOM      4  C   UNL     1       3.288   6.441  18.438  0.00  0.00    +0.000 A 
ATOM      5  C   UNL     1       3.983   5.252  18.197  0.00  0.00    +0.000 A 
ATOM      6  C   UNL     1       3.612   4.344  19.253  0.00  0.00    +0.000 A 
ATOM      7  C   UNL     1       3.920   3.019  19.620  0.00  0.00    +0.000 A 
ATOM      8  C   UNL     1       3.266   2.470  20.728  0.00  0.00    +0.000 A 
ATOM      9  C   UNL     1       2.363   3.251  21.433  0.00  0.00    +0.000 A 
ATOM     10  N   UNL     1       2.049   4.527  21.146  0.00  0.00    +0.000 NA
ATOM     11  C   UNL     1       2.699   5.011  20.068  0.00  0.00    +0.000 A 
ATOM     12  N   UNL     1       2.553   6.280  19.586  0.00  0.00    +0.000 N 
ATOM     13  C   UNL     1       1.650   7.266  20.156  0.00  0.00    +0.000 C 
ENDROOT
BRANCH   1  16
ATOM     14  C   UNL     1       0.668  10.178  21.179  0.00  0.00    +0.000 C 
ATOM     15  O   UNL     1       1.457   9.814  22.057  0.00  0.00    +0.000 OA
ATOM     16  N   UNL     1       0.728   9.632  19.889  0.00  0.00    +0.000 N 
ATOM     17  C   UNL     1      -0.174   9.994  18.800  0.00  0.00    +0.000 C 
BRANCH  14  19
ATOM     18  C   UNL     1      -1.060  11.064  22.837  0.00  0.00    +0.000 C 
ATOM     19  C   UNL     1      -0.369  11.284  21.482  0.00  0.00    +0.000 C 
BRANCH  19  20
ATOM     20  C   UNL     1       0.278  12.668  21.482  0.00  0.00    +0.000 A 
ATOM     21  C   UNL     1       1.370  12.945  20.645  0.00  0.00    +0.000 A 
ATOM     22  C   UNL     1       1.911  14.230  20.589  0.00  0.00    +0.000 A 
ATOM     23  C   UNL     1       1.359  15.245  21.363  0.00  0.00    +0.000 A 
ATOM     24  F   UNL     1       1.864  16.482  21.289  0.00  0.00    +0.000 F 
ATOM     25  C   UNL     1       0.285  14.993  22.206  0.00  0.00    +0.000 A 
ATOM     26  C   UNL     1      -0.250  13.707  22.270  0.00  0.00    +0.000 A 
ENDBRANCH  19  20
ENDBRANCH  14  19
ENDBRANCH   1  16
BRANCH   5  27
ATOM     27  C   UNL     1       4.964   5.054  17.064  0.00  0.00    +0.000 C 
BRANCH  27  28
ATOM     28  C   UNL     1       6.447   5.103  17.366  0.00  0.00    +0.000 C 
ATOM     29  O   UNL     1       7.220   5.829  16.758  0.00  0.00    +0.000 OA
BRANCH  28  30
ATOM     30  O   UNL     1       6.896   4.215  18.281  0.00  0.00    +0.000 OA
ATOM     31  H   UNL     1       6.255   3.513  18.499  0.00  0.00    +0.000 HD
ENDBRANCH  28  30
ENDBRANCH  27  28
ENDBRANCH   5  27
TORSDOF 6
ENDMDL
