MODEL 1
REMARK VINA RESULT:      -8.1      0.000      0.000
REMARK  Name = 
REMARK  4 active torsions:
REMARK  status: ('A' for Active; 'I' for Inactive)
REMARK    1  A    between atoms: N_1  and  S_2
REMARK    2  A    between atoms: S_2  and  C_5
REMARK    3  A    between atoms: C_8  and  C_9
REMARK    4  A    between atoms: C_15  and  O_16
REMARK                            x       y       z     vdW  Elec       q    Type
REMARK                         _______ _______ _______ _____ _____    ______ ____
ROOT
ATOM      1  C   UNL     1       1.094   9.439  20.084  0.00  0.00    +0.000 A 
ATOM      2  C   UNL     1       1.419   8.267  20.744  0.00  0.00    +0.000 A 
ATOM      3  C   UNL     1       2.051   7.256  20.024  0.00  0.00    +0.000 A 
ATOM      4  C   UNL     1       2.386   7.353  18.641  0.00  0.00    +0.000 A 
ATOM      5  C   UNL     1       1.982   8.515  17.981  0.00  0.00    +0.000 A 
ATOM      6  C   UNL     1       1.339   9.558  18.705  0.00  0.00    +0.000 A 
ENDROOT
BRANCH   4   7
ATOM      7  C   UNL     1       3.017   6.096  18.054  0.00  0.00    +0.000 C 
ATOM      8  N   UNL     1       2.223   5.091  18.119  0.00  0.00    +0.000 NA
ATOM      9  C   UNL     1       2.487   3.788  17.513  0.00  0.00    +0.000 C 
ATOM     10  C   UNL     1       3.950   3.579  17.323  0.00  0.00    +0.000 C 
ATOM     11  C   UNL     1       4.483   4.786  16.586  0.00  0.00    +0.000 A 
ATOM     12  C   UNL     1       5.455   4.545  15.630  0.00  0.00    +0.000 A 
ATOM     13  C   UNL     1       6.630   5.230  15.778  0.00  0.00    +0.000 A 
ATOM     14  C   UNL     1       6.741   6.185  16.800  0.00  0.00    +0.000 A 
ATOM     15  C   UNL     1       5.599   6.610  17.543  0.00  0.00    +0.000 A 
ATOM     16  C   UNL     1       4.381   5.961  17.353  0.00  0.00    +0.000 A 
BRANCH  13  17
ATOM     17  O   UNL     1       7.718   4.888  15.039  0.00  0.00    +0.000 OA
ATOM     18  H   UNL     1       7.706   5.407  14.213  0.00  0.00    +0.000 HD
ENDBRANCH  13  17
ENDBRANCH   4   7
BRANCH   1  19
ATOM     19  S   UNL     1       0.421  10.773  21.023  0.00  0.00    +0.000 S 
ATOM     20  O   UNL     1      -0.970  10.992  20.660  0.00  0.00    +0.000 OA
ATOM     21  O   UNL     1       1.381  11.857  21.058  0.00  0.00    +0.000 OA
BRANCH  19  22
ATOM     22  N   UNL     1       0.372  10.131  22.571  0.00  0.00    +0.000 NA
ATOM     23  H   UNL     1       1.234   9.618  22.766  0.00  0.00    +0.000 HD
ATOM     24  H   UNL     1      -0.471   9.567  22.674  0.00  0.00    +0.000 HD
ENDBRANCH  19  22
ENDBRANCH   1  19
TORSDOF 4
ENDMDL
MODEL 2
REMARK VINA RESULT:      -7.9      0.823      1.072
REMARK  Name = 
REMARK  4 active torsions:
REMARK  status: ('A' for Active; 'I' for Inactive)
REMARK    1  A    between atoms: N_1  and  S_2
REMARK    2  A    between atoms: S_2  and  C_5
REMARK    3  A    between atoms: C_8  and  C_9
REMARK    4  A    between atoms: C_15  and  O_16
REMARK                            x       y       z     vdW  Elec       q    Type
REMARK                         _______ _______ _______ _____ _____    ______ ____
ROOT
ATOM      1  C   UNL     1       1.038   9.097  20.230  0.00  0.00    +0.000 A 
ATOM      2  C   UNL     1       1.380   7.893  20.817  0.00  0.00    +0.000 A 
ATOM      3  C   UNL     1       2.063   6.952  20.050  0.00  0.00    +0.000 A 
ATOM      4  C   UNL     1       2.434   7.155  18.688  0.00  0.00    +0.000 A 
ATOM      5  C   UNL     1       2.014   8.347  18.096  0.00  0.00    +0.000 A 
ATOM      6  C   UNL     1       1.318   9.318  18.870  0.00  0.00    +0.000 A 
ENDROOT
BRANCH   4   7
ATOM      7  C   UNL     1       3.122   5.960  18.036  0.00  0.00    +0.000 C 
ATOM      8  N   UNL     1       2.384   4.910  18.072  0.00  0.00    +0.000 NA
ATOM      9  C   UNL     1       2.707   3.651  17.406  0.00  0.00    +0.000 C 
ATOM     10  C   UNL     1       4.174   3.531  17.181  0.00  0.00    +0.000 C 
ATOM     11  C   UNL     1       4.626   4.795  16.488  0.00  0.00    +0.000 A 
ATOM     12  C   UNL     1       5.591   4.648  15.505  0.00  0.00    +0.000 A 
ATOM     13  C   UNL     1       6.730   5.391  15.661  0.00  0.00    +0.000 A 
ATOM     14  C   UNL     1       6.809   6.307  16.722  0.00  0.00    +0.000 A 
ATOM     15  C   UNL     1       5.661   6.636  17.503  0.00  0.00    +0.000 A 
ATOM     16  C   UNL     1       4.477   5.930  17.307  0.00  0.00    +0.000 A 
BRANCH  13  17
ATOM     17  O   UNL     1       7.820   5.141  14.889  0.00  0.00    +0.000 OA
ATOM     18  H   UNL     1       7.879   5.834  14.206  0.00  0.00    +0.000 HD
ENDBRANCH  13  17
ENDBRANCH   4   7
BRANCH   1  19
ATOM     19  S   UNL     1       0.297  10.343  21.236  0.00  0.00    +0.000 S 
ATOM     20  O   UNL     1       1.229  11.441  21.443  0.00  0.00    +0.000 OA
ATOM     21  O   UNL     1      -0.395   9.710  22.339  0.00  0.00    +0.000 OA
BRANCH  19  22
ATOM     22  N   UNL     1      -0.888  10.963  20.224  0.00  0.00    +0.000 NA
ATOM     23  H   UNL     1      -1.622  10.268  20.076  0.00  0.00    +0.000 HD
ATOM     24  H   UNL     1      -0.454  11.288  19.360  0.00  0.00    +0.000 HD
ENDBRANCH  19  22
ENDBRANCH   1  19
TORSDOF 4
ENDMDL
MODEL 3
REMARK VINA RESULT:      -7.9      1.834      2.854
REMARK  Name = 
REMARK  4 active torsions:
REMARK  status: ('A' for Active; 'I' for Inactive)
REMARK    1  A    between atoms: N_1  and  S_2
REMARK    2  A    between atoms: S_2  and  C_5
REMARK    3  A    between atoms: C_8  and  C_9
REMARK    4  A    between atoms: C_15  and  O_16
REMARK                            x       y       z     vdW  Elec       q    Type
REMARK                         _______ _______ _______ _____ _____    ______ ____
ROOT
ATOM      1  C   UNL     1       0.782   9.713  19.967  0.00  0.00    +0.000 A 
ATOM      2  C   UNL     1       1.257   8.575  20.595  0.00  0.00    +0.000 A 
ATOM      3  C   UNL     1       2.032   7.685  19.854  0.00  0.00    +0.000 A 
ATOM      4  C   UNL     1       2.367   7.875  18.480  0.00  0.00    +0.000 A 
ATOM      5  C   UNL     1       1.815   8.992  17.851  0.00  0.00    +0.000 A 
ATOM      6  C   UNL     1       1.025   9.911  18.597  0.00  0.00    +0.000 A 
ENDROOT
BRANCH   4   7
ATOM      7  C   UNL     1       3.174   6.737  17.865  0.00  0.00    +0.000 C 
ATOM      8  N   UNL     1       4.195   7.174  17.221  0.00  0.00    +0.000 NA
ATOM      9  C   UNL     1       5.232   6.323  16.643  0.00  0.00    +0.000 C 
ATOM     10  C   UNL     1       4.712   4.952  16.386  0.00  0.00    +0.000 C 
ATOM     11  C   UNL     1       4.078   4.465  17.669  0.00  0.00    +0.000 A 
ATOM     12  C   UNL     1       4.266   3.130  17.981  0.00  0.00    +0.000 A 
ATOM     13  C   UNL     1       3.131   2.393  18.190  0.00  0.00    +0.000 A 
ATOM     14  C   UNL     1       1.885   3.038  18.175  0.00  0.00    +0.000 A 
ATOM     15  C   UNL     1       1.788   4.462  18.166  0.00  0.00    +0.000 A 
ATOM     16  C   UNL     1       2.945   5.223  18.019  0.00  0.00    +0.000 A 
BRANCH  13  17
ATOM     17  O   UNL     1       3.201   1.038  18.265  0.00  0.00    +0.000 OA
ATOM     18  H   UNL     1       4.056   0.751  17.892  0.00  0.00    +0.000 HD
ENDBRANCH  13  17
ENDBRANCH   4   7
BRANCH   1  19
ATOM     19  S   UNL     1      -0.080  10.909  20.937  0.00  0.00    +0.000 S 
ATOM     20  O   UNL     1      -1.310  11.305  20.269  0.00  0.00    +0.000 OA
ATOM     21  O   UNL     1       0.867  11.884  21.435  0.00  0.00    +0.000 OA
BRANCH  19  22
ATOM     22  N   UNL     1      -0.575  10.006  22.260  0.00  0.00    +0.000 NA
ATOM     23  H   UNL     1      -1.578   9.822  22.206  0.00  0.00    +0.000 HD
ATOM     24  H   UNL     1      -0.292  10.483  23.117  0.00  0.00    +0.000 HD
ENDBRANCH  19  22
ENDBRANCH   1  19
TORSDOF 4
ENDMDL
MODEL 4
REMARK VINA RESULT:      -7.9      0.580      1.193
REMARK  Name = 
REMARK  4 active torsions:
REMARK  status: ('A' for Active; 'I' for Inactive)
REMARK    1  A    between atoms: N_1  and  S_2
REMARK    2  A    between atoms: S_2  and  C_5
REMARK    3  A    between atoms: C_8  and  C_9
REMARK    4  A    between atoms: C_15  and  O_16
REMARK                            x       y       z     vdW  Elec       q    Type
REMARK                         _______ _______ _______ _____ _____    ______ ____
ROOT
ATOM      1  C   UNL     1       1.215   9.493  19.573  0.00  0.00    +0.000 A 
ATOM      2  C   UNL     1       1.621   9.380  18.256  0.00  0.00    +0.000 A 
ATOM      3  C   UNL     1       2.197   8.181  17.841  0.00  0.00    +0.000 A 
ATOM      4  C   UNL     1       2.395   7.056  18.696  0.00  0.00    +0.000 A 
ATOM      5  C   UNL     1       2.044   7.221  20.037  0.00  0.00    +0.000 A 
ATOM      6  C   UNL     1       1.451   8.439  20.473  0.00  0.00    +0.000 A 
ENDROOT
BRANCH   4   7
ATOM      7  C   UNL     1       3.099   5.877  18.035  0.00  0.00    +0.000 C 
ATOM      8  N   UNL     1       2.375   4.817  18.058  0.00  0.00    +0.000 NA
ATOM      9  C   UNL     1       2.716   3.569  17.381  0.00  0.00    +0.000 C 
ATOM     10  C   UNL     1       4.186   3.470  17.159  0.00  0.00    +0.000 C 
ATOM     11  C   UNL     1       4.623   4.746  16.480  0.00  0.00    +0.000 A 
ATOM     12  C   UNL     1       5.593   4.622  15.499  0.00  0.00    +0.000 A 
ATOM     13  C   UNL     1       6.722   5.377  15.666  0.00  0.00    +0.000 A 
ATOM     14  C   UNL     1       6.786   6.283  16.736  0.00  0.00    +0.000 A 
ATOM     15  C   UNL     1       5.631   6.591  17.516  0.00  0.00    +0.000 A 
ATOM     16  C   UNL     1       4.457   5.871  17.309  0.00  0.00    +0.000 A 
BRANCH  13  17
ATOM     17  O   UNL     1       7.817   5.149  14.895  0.00  0.00    +0.000 OA
ATOM     18  H   UNL     1       7.628   5.459  13.990  0.00  0.00    +0.000 HD
ENDBRANCH  13  17
ENDBRANCH   4   7
BRANCH   1  19
ATOM     19  S   UNL     1       0.360  10.956  20.066  0.00  0.00    +0.000 S 
ATOM     20  O   UNL     1      -1.072  10.789  19.875  0.00  0.00    +0.000 OA
ATOM     21  O   UNL     1       1.069  12.111  19.557  0.00  0.00    +0.000 OA
BRANCH  19  22
ATOM     22  N   UNL     1       0.581  10.956  21.728  0.00  0.00    +0.000 NA
ATOM     23  H   UNL     1       1.578  10.912  21.950  0.00  0.00    +0.000 HD
ATOM     24  H   UNL     1       0.037  10.198  22.139  0.00  0.00    +0.000 HD
ENDBRANCH  19  22
ENDBRANCH   1  19
TORSDOF 4
ENDMDL
MODEL 5
REMARK VINA RESULT:      -7.8      1.087      1.677
REMARK  Name = 
REMARK  4 active torsions:
REMARK  status: ('A' for Active; 'I' for Inactive)
REMARK    1  A    between atoms: N_1  and  S_2
REMARK    2  A    between atoms: S_2  and  C_5
REMARK    3  A    between atoms: C_8  and  C_9
REMARK    4  A    between atoms: C_15  and  O_16
REMARK                            x       y       z     vdW  Elec       q    Type
REMARK                         _______ _______ _______ _____ _____    ______ ____
ROOT
ATOM      1  C   UNL     1       1.241   9.639  19.407  0.00  0.00    +0.000 A 
ATOM      2  C   UNL     1       1.688   9.468  18.109  0.00  0.00    +0.000 A 
ATOM      3  C   UNL     1       2.233   8.236  17.754  0.00  0.00    +0.000 A 
ATOM      4  C   UNL     1       2.359   7.133  18.651  0.00  0.00    +0.000 A 
ATOM      5  C   UNL     1       1.968   7.355  19.972  0.00  0.00    +0.000 A 
ATOM      6  C   UNL     1       1.406   8.607  20.348  0.00  0.00    +0.000 A 
ENDROOT
BRANCH   4   7
ATOM      7  C   UNL     1       3.042   5.908  18.053  0.00  0.00    +0.000 C 
ATOM      8  N   UNL     1       2.287   4.871  18.105  0.00  0.00    +0.000 NA
ATOM      9  C   UNL     1       2.605   3.587  17.487  0.00  0.00    +0.000 C 
ATOM     10  C   UNL     1       4.074   3.437  17.300  0.00  0.00    +0.000 C 
ATOM     11  C   UNL     1       4.562   4.671  16.577  0.00  0.00    +0.000 A 
ATOM     12  C   UNL     1       5.546   4.479  15.623  0.00  0.00    +0.000 A 
ATOM     13  C   UNL     1       6.693   5.209  15.781  0.00  0.00    +0.000 A 
ATOM     14  C   UNL     1       6.763   6.156  16.814  0.00  0.00    +0.000 A 
ATOM     15  C   UNL     1       5.602   6.528  17.557  0.00  0.00    +0.000 A 
ATOM     16  C   UNL     1       4.412   5.834  17.356  0.00  0.00    +0.000 A 
BRANCH  13  17
ATOM     17  O   UNL     1       7.796   4.917  15.043  0.00  0.00    +0.000 OA
ATOM     18  H   UNL     1       8.401   5.682  15.078  0.00  0.00    +0.000 HD
ENDBRANCH  13  17
ENDBRANCH   4   7
BRANCH   1  19
ATOM     19  S   UNL     1       0.424  11.148  19.821  0.00  0.00    +0.000 S 
ATOM     20  O   UNL     1       1.401  12.172  20.154  0.00  0.00    +0.000 OA
ATOM     21  O   UNL     1      -0.700  10.854  20.685  0.00  0.00    +0.000 OA
BRANCH  19  22
ATOM     22  N   UNL     1      -0.220  11.621  18.347  0.00  0.00    +0.000 NA
ATOM     23  H   UNL     1      -0.778  10.865  17.948  0.00  0.00    +0.000 HD
ATOM     24  H   UNL     1       0.534  11.939  17.738  0.00  0.00    +0.000 HD
ENDBRANCH  19  22
ENDBRANCH   1  19
TORSDOF 4
ENDMDL
MODEL 6
REMARK VINA RESULT:      -7.7      1.536      1.800
REMARK  Name = 
REMARK  4 active torsions:
REMARK  status: ('A' for Active; 'I' for Inactive)
REMARK    1  A    between atoms: N_1  and  S_2
REMARK    2  A    between atoms: S_2  and  C_5
REMARK    3  A    between atoms: C_8  and  C_9
REMARK    4  A    between atoms: C_15  and  O_16
REMARK                            x       y       z     vdW  Elec       q    Type
REMARK                         _______ _______ _______ _____ _____    ______ ____
ROOT
ATOM      1  C   UNL     1       0.934   9.904  19.304  0.00  0.00    +0.000 A 
ATOM      2  C   UNL     1       1.133   8.966  20.301  0.00  0.00    +0.000 A 
ATOM      3  C   UNL     1       1.896   7.838  20.005  0.00  0.00    +0.000 A 
ATOM      4  C   UNL     1       2.487   7.588  18.731  0.00  0.00    +0.000 A 
ATOM      5  C   UNL     1       2.210   8.512  17.722  0.00  0.00    +0.000 A 
ATOM      6  C   UNL     1       1.436   9.671  18.011  0.00  0.00    +0.000 A 
ENDROOT
BRANCH   4   7
ATOM      7  C   UNL     1       3.225   6.258  18.627  0.00  0.00    +0.000 C 
ATOM      8  N   UNL     1       2.978   5.498  19.631  0.00  0.00    +0.000 NA
ATOM      9  C   UNL     1       3.424   4.112  19.748  0.00  0.00    +0.000 C 
ATOM     10  C   UNL     1       4.621   3.867  18.896  0.00  0.00    +0.000 C 
ATOM     11  C   UNL     1       4.288   4.353  17.504  0.00  0.00    +0.000 A 
ATOM     12  C   UNL     1       4.765   3.589  16.454  0.00  0.00    +0.000 A 
ATOM     13  C   UNL     1       5.536   4.244  15.531  0.00  0.00    +0.000 A 
ATOM     14  C   UNL     1       5.708   5.631  15.646  0.00  0.00    +0.000 A 
ATOM     15  C   UNL     1       4.931   6.401  16.564  0.00  0.00    +0.000 A 
ATOM     16  C   UNL     1       4.094   5.747  17.464  0.00  0.00    +0.000 A 
BRANCH  13  17
ATOM     17  O   UNL     1       6.240   3.540  14.606  0.00  0.00    +0.000 OA
ATOM     18  H   UNL     1       6.908   4.132  14.211  0.00  0.00    +0.000 HD
ENDBRANCH  13  17
ENDBRANCH   4   7
BRANCH   1  19
ATOM     19  S   UNL     1       0.089  11.398  19.713  0.00  0.00    +0.000 S 
ATOM     20  O   UNL     1       0.897  12.200  20.617  0.00  0.00    +0.000 OA
ATOM     21  O   UNL     1      -1.298  11.094  19.994  0.00  0.00    +0.000 OA
BRANCH  19  22
ATOM     22  N   UNL     1       0.108  12.229  18.257  0.00  0.00    +0.000 NA
ATOM     23  H   UNL     1       1.044  12.595  18.073  0.00  0.00    +0.000 HD
ATOM     24  H   UNL     1      -0.616  12.947  18.270  0.00  0.00    +0.000 HD
ENDBRANCH  19  22
ENDBRANCH   1  19
TORSDOF 4
ENDMDL
MODEL 7
REMARK VINA RESULT:      -7.6      1.319      1.801
REMARK  Name = 
REMARK  4 active torsions:
REMARK  status: ('A' for Active; 'I' for Inactive)
REMARK    1  A    between atoms: N_1  and  S_2
REMARK    2  A    between atoms: S_2  and  C_5
REMARK    3  A    between atoms: C_8  and  C_9
REMARK    4  A    between atoms: C_15  and  O_16
REMARK                            x       y       z     vdW  Elec       q    Type
REMARK                         _______ _______ _______ _____ _____    ______ ____
ROOT
ATOM      1  C   UNL     1       1.167   9.388  19.925  0.00  0.00    +0.000 A 
ATOM      2  C   UNL     1       1.585   9.224  18.616  0.00  0.00    +0.000 A 
ATOM      3  C   UNL     1       2.100   7.987  18.236  0.00  0.00    +0.000 A 
ATOM      4  C   UNL     1       2.224   6.872  19.117  0.00  0.00    +0.000 A 
ATOM      5  C   UNL     1       1.864   7.085  20.449  0.00  0.00    +0.000 A 
ATOM      6  C   UNL     1       1.333   8.342  20.850  0.00  0.00    +0.000 A 
ENDROOT
BRANCH   4   7
ATOM      7  C   UNL     1       2.873   5.642  18.492  0.00  0.00    +0.000 C 
ATOM      8  N   UNL     1       1.995   4.810  18.060  0.00  0.00    +0.000 NA
ATOM      9  C   UNL     1       2.305   3.610  17.288  0.00  0.00    +0.000 C 
ATOM     10  C   UNL     1       3.704   3.164  17.538  0.00  0.00    +0.000 C 
ATOM     11  C   UNL     1       4.602   4.358  17.316  0.00  0.00    +0.000 A 
ATOM     12  C   UNL     1       5.816   4.111  16.699  0.00  0.00    +0.000 A 
ATOM     13  C   UNL     1       6.932   4.523  17.374  0.00  0.00    +0.000 A 
ATOM     14  C   UNL     1       6.781   5.242  18.570  0.00  0.00    +0.000 A 
ATOM     15  C   UNL     1       5.507   5.738  18.980  0.00  0.00    +0.000 A 
ATOM     16  C   UNL     1       4.371   5.377  18.260  0.00  0.00    +0.000 A 
BRANCH  13  17
ATOM     17  O   UNL     1       8.165   4.117  16.970  0.00  0.00    +0.000 OA
ATOM     18  H   UNL     1       8.216   4.206  16.000  0.00  0.00    +0.000 HD
ENDBRANCH  13  17
ENDBRANCH   4   7
BRANCH   1  19
ATOM     19  S   UNL     1       0.386  10.906  20.373  0.00  0.00    +0.000 S 
ATOM     20  O   UNL     1       0.567  11.162  21.793  0.00  0.00    +0.000 OA
ATOM     21  O   UNL     1      -0.916  10.971  19.744  0.00  0.00    +0.000 OA
BRANCH  19  22
ATOM     22  N   UNL     1       1.346  12.042  19.600  0.00  0.00    +0.000 NA
ATOM     23  H   UNL     1       2.234  11.621  19.320  0.00  0.00    +0.000 HD
ATOM     24  H   UNL     1       1.452  12.858  20.203  0.00  0.00    +0.000 HD
ENDBRANCH  19  22
ENDBRANCH   1  19
TORSDOF 4
ENDMDL
MODEL 8
REMARK VINA RESULT:      -7.6      2.111      3.267
REMARK  Name = 
REMARK  4 active torsions:
REMARK  status: ('A' for Active; 'I' for Inactive)
REMARK    1  A    between atoms: N_1  and  S_2
REMARK    2  A    between atoms: S_2  and  C_5
REMARK    3  A    between atoms: C_8  and  C_9
REMARK    4  A    between atoms: C_15  and  O_16
REMARK                            x       y       z     vdW  Elec       q    Type
REMARK                         _______ _______ _______ _____ _____    ______ ____
ROOT
ATOM      1  C   UNL     1       0.631  10.069  19.563  0.00  0.00    +0.000 A 
ATOM      2  C   UNL     1       1.067  10.009  18.252  0.00  0.00    +0.000 A 
ATOM      3  C   UNL     1       1.815   8.903  17.853  0.00  0.00    +0.000 A 
ATOM      4  C   UNL     1       2.161   7.822  18.717  0.00  0.00    +0.000 A 
ATOM      5  C   UNL     1       1.772   7.941  20.053  0.00  0.00    +0.000 A 
ATOM      6  C   UNL     1       1.004   9.063  20.473  0.00  0.00    +0.000 A 
ENDROOT
BRANCH   4   7
ATOM      7  C   UNL     1       3.037   6.754  18.073  0.00  0.00    +0.000 C 
ATOM      8  N   UNL     1       4.046   7.268  17.469  0.00  0.00    +0.000 NA
ATOM      9  C   UNL     1       5.137   6.496  16.880  0.00  0.00    +0.000 C 
ATOM     10  C   UNL     1       4.693   5.112  16.557  0.00  0.00    +0.000 C 
ATOM     11  C   UNL     1       4.061   4.541  17.804  0.00  0.00    +0.000 A 
ATOM     12  C   UNL     1       4.311   3.205  18.066  0.00  0.00    +0.000 A 
ATOM     13  C   UNL     1       3.213   2.404  18.221  0.00  0.00    +0.000 A 
ATOM     14  C   UNL     1       1.935   2.984  18.207  0.00  0.00    +0.000 A 
ATOM     15  C   UNL     1       1.765   4.400  18.253  0.00  0.00    +0.000 A 
ATOM     16  C   UNL     1       2.884   5.225  18.162  0.00  0.00    +0.000 A 
BRANCH  13  17
ATOM     17  O   UNL     1       3.350   1.051  18.243  0.00  0.00    +0.000 OA
ATOM     18  H   UNL     1       4.087   0.807  17.652  0.00  0.00    +0.000 HD
ENDBRANCH  13  17
ENDBRANCH   4   7
BRANCH   1  19
ATOM     19  S   UNL     1      -0.433  11.396  20.035  0.00  0.00    +0.000 S 
ATOM     20  O   UNL     1       0.158  12.670  19.660  0.00  0.00    +0.000 OA
ATOM     21  O   UNL     1      -0.931  11.149  21.372  0.00  0.00    +0.000 OA
BRANCH  19  22
ATOM     22  N   UNL     1      -1.734  11.196  18.997  0.00  0.00    +0.000 NA
ATOM     23  H   UNL     1      -2.198  10.304  19.182  0.00  0.00    +0.000 HD
ATOM     24  H   UNL     1      -1.415  11.299  18.034  0.00  0.00    +0.000 HD
ENDBRANCH  19  22
ENDBRANCH   1  19
TORSDOF 4
ENDMDL
MODEL 9
REMARK VINA RESULT:      -7.4      3.452      7.873
REMARK  Name = 
REMARK  4 active torsions:
REMARK  status: ('A' for Active; 'I' for Inactive)
REMARK    1  A    between atoms: N_1  and  S_2
REMARK    2  A    between atoms: S_2  and  C_5
REMARK    3  A    between atoms: C_8  and  C_9
REMARK    4  A    between atoms: C_15  and  O_16
REMARK                            x       y       z     vdW  Elec       q    Type
REMARK                         _______ _______ _______ _____ _____    ______ ____
ROOT
ATOM      1  C   UNL     1       3.167   4.303  19.164  0.00  0.00    +0.000 A 
ATOM      2  C   UNL     1       3.392   5.314  18.246  0.00  0.00    +0.000 A 
ATOM      3  C   UNL     1       2.881   6.581  18.518  0.00  0.00    +0.000 A 
ATOM      4  C   UNL     1       2.135   6.903  19.691  0.00  0.00    +0.000 A 
ATOM      5  C   UNL     1       1.859   5.850  20.565  0.00  0.00    +0.000 A 
ATOM      6  C   UNL     1       2.379   4.552  20.301  0.00  0.00    +0.000 A 
ENDROOT
BRANCH   4   7
ATOM      7  C   UNL     1       1.627   8.339  19.741  0.00  0.00    +0.000 C 
ATOM      8  N   UNL     1       1.859   8.964  18.643  0.00  0.00    +0.000 NA
ATOM      9  C   UNL     1       1.367  10.304  18.336  0.00  0.00    +0.000 C 
ATOM     10  C   UNL     1       1.077  11.062  19.585  0.00  0.00    +0.000 C 
ATOM     11  C   UNL     1       0.180  10.195  20.437  0.00  0.00    +0.000 A 
ATOM     12  C   UNL     1      -0.825  10.844  21.134  0.00  0.00    +0.000 A 
ATOM     13  C   UNL     1      -0.846  10.646  22.488  0.00  0.00    +0.000 A 
ATOM     14  C   UNL     1       0.062   9.743  23.061  0.00  0.00    +0.000 A 
ATOM     15  C   UNL     1       0.852   8.873  22.252  0.00  0.00    +0.000 A 
ATOM     16  C   UNL     1       0.831   9.023  20.867  0.00  0.00    +0.000 A 
BRANCH  13  17
ATOM     17  O   UNL     1      -1.635  11.419  23.280  0.00  0.00    +0.000 OA
ATOM     18  H   UNL     1      -1.759  12.282  22.842  0.00  0.00    +0.000 HD
ENDBRANCH  13  17
ENDBRANCH   4   7
BRANCH   1  19
ATOM     19  S   UNL     1       3.930   2.735  18.891  0.00  0.00    +0.000 S 
ATOM     20  O   UNL     1       2.924   1.739  18.561  0.00  0.00    +0.000 OA
ATOM     21  O   UNL     1       4.922   2.508  19.920  0.00  0.00    +0.000 OA
BRANCH  19  22
ATOM     22  N   UNL     1       4.774   2.993  17.465  0.00  0.00    +0.000 NA
ATOM     23  H   UNL     1       4.182   3.481  16.790  0.00  0.00    +0.000 HD
ATOM     24  H   UNL     1       5.135   2.102  17.123  0.00  0.00    +0.000 HD
ENDBRANCH  19  22
ENDBRANCH   1  19
TORSDOF 4
ENDMDL
