MODEL 1
REMARK VINA RESULT:      -8.3      0.000      0.000
REMARK  Name = 
REMARK  9 active torsions:
REMARK  status: ('A' for Active; 'I' for Inactive)
REMARK    1  A    between atoms: C_1  and  C_2
REMARK    2  A    between atoms: C_4  and  C_5
REMARK    3  A    between atoms: C_7  and  N_8
REMARK    4  A    between atoms: C_9  and  C_11
REMARK    5  A    between atoms: C_11  and  S_12
REMARK    6  A    between atoms: S_12  and  C_13
REMARK    7  A    between atoms: C_13  and  C_14
REMARK    8  A    between atoms: N_17  and  C_18
REMARK    9  A    between atoms: C_24  and  N_25
REMARK                            x       y       z     vdW  Elec       q    Type
REMARK                         _______ _______ _______ _____ _____    ______ ____
ROOT
ATOM      1  C   UNL     1       2.234   7.363  19.469  0.00  0.00    +0.000 A 
ATOM      2  C   UNL     1       2.470   7.587  18.089  0.00  0.00    +0.000 A 
ATOM      3  N   UNL     1       1.913   8.701  17.628  0.00  0.00    +0.000 NA
ATOM      4  N   UNL     1       1.432   9.325  18.730  0.00  0.00    +0.000 N 
ATOM      5  C   UNL     1       1.521   8.498  19.843  0.00  0.00    +0.000 A 
ENDROOT
BRANCH   4   6
ATOM      6  C   UNL     1       1.014  10.682  18.610  0.00  0.00    +0.000 A 
ATOM      7  C   UNL     1      -0.358  10.967  18.556  0.00  0.00    +0.000 A 
ATOM      8  C   UNL     1      -0.795  12.291  18.517  0.00  0.00    +0.000 A 
ATOM      9  C   UNL     1       0.132  13.332  18.502  0.00  0.00    +0.000 A 
ATOM     10  C   UNL     1       1.497  13.051  18.494  0.00  0.00    +0.000 A 
ATOM     11  C   UNL     1       1.940  11.729  18.534  0.00  0.00    +0.000 A 
ENDBRANCH   4   6
BRANCH   5  12
ATOM     12  N   UNL     1       0.902   8.751  21.066  0.00  0.00    +0.000 N 
ATOM     13  C   UNL     1       1.502   9.254  22.205  0.00  0.00    +0.000 A 
ATOM     14  C   UNL     1       0.546   9.427  23.184  0.00  0.00    +0.000 A 
ATOM     15  C   UNL     1      -0.677   8.962  22.661  0.00  0.00    +0.000 A 
ATOM     16  C   UNL     1      -0.428   8.531  21.379  0.00  0.00    +0.000 A 
ENDBRANCH   5  12
BRANCH   1  17
ATOM     17  C   UNL     1       2.548   6.126  20.258  0.00  0.00    +0.000 C 
BRANCH  17  18
ATOM     18  S   UNL     1       1.484   4.726  19.770  0.00  0.00    +0.000 S 
BRANCH  18  19
ATOM     19  C   UNL     1       2.609   3.332  20.065  0.00  0.00    +0.000 C 
BRANCH  19  21
ATOM     20  N   UNL     1       3.771   4.306  18.152  0.00  0.00    +0.000 N 
ATOM     21  C   UNL     1       3.923   3.589  19.335  0.00  0.00    +0.000 C 
ATOM     22  O   UNL     1       4.976   3.159  19.800  0.00  0.00    +0.000 OA
ATOM     23  H   UNL     1       2.859   4.726  18.006  0.00  0.00    +0.000 HD
BRANCH  20  30
ATOM     24  C   UNL     1       7.661   7.250  17.378  0.00  0.00    +0.000 C 
ATOM     25  C   UNL     1       6.726   6.175  16.901  0.00  0.00    +0.000 A 
ATOM     26  C   UNL     1       6.932   5.562  15.657  0.00  0.00    +0.000 A 
ATOM     27  C   UNL     1       6.076   4.551  15.217  0.00  0.00    +0.000 A 
ATOM     28  C   UNL     1       6.271   3.877  13.891  0.00  0.00    +0.000 C 
ATOM     29  C   UNL     1       5.015   4.142  16.034  0.00  0.00    +0.000 A 
ATOM     30  C   UNL     1       4.803   4.724  17.283  0.00  0.00    +0.000 A 
ATOM     31  C   UNL     1       5.652   5.759  17.699  0.00  0.00    +0.000 A 
ENDBRANCH  20  30
ENDBRANCH  19  21
ENDBRANCH  18  19
ENDBRANCH  17  18
ENDBRANCH   1  17
TORSDOF 7
ENDMDL
MODEL 2
REMARK VINA RESULT:      -8.1      0.208      1.815
REMARK  Name = 
REMARK  9 active torsions:
REMARK  status: ('A' for Active; 'I' for Inactive)
REMARK    1  A    between atoms: C_1  and  C_2
REMARK    2  A    between atoms: C_4  and  C_5
REMARK    3  A    between atoms: C_7  and  N_8
REMARK    4  A    between atoms: C_9  and  C_11
REMARK    5  A    between atoms: C_11  and  S_12
REMARK    6  A    between atoms: S_12  and  C_13
REMARK    7  A    between atoms: C_13  and  C_14
REMARK    8  A    between atoms: N_17  and  C_18
REMARK    9  A    between atoms: C_24  and  N_25
REMARK                            x       y       z     vdW  Elec       q    Type
REMARK                         _______ _______ _______ _____ _____    ______ ____
ROOT
ATOM      1  C   UNL     1       2.111   7.309  19.645  0.00  0.00    +0.000 A 
ATOM      2  C   UNL     1       2.349   7.503  18.261  0.00  0.00    +0.000 A 
ATOM      3  N   UNL     1       1.824   8.625  17.784  0.00  0.00    +0.000 NA
ATOM      4  N   UNL     1       1.366   9.282  18.878  0.00  0.00    +0.000 N 
ATOM      5  C   UNL     1       1.435   8.471  20.004  0.00  0.00    +0.000 A 
ENDROOT
BRANCH   4   6
ATOM      6  C   UNL     1       0.989  10.648  18.737  0.00  0.00    +0.000 A 
ATOM      7  C   UNL     1       1.993  11.618  18.594  0.00  0.00    +0.000 A 
ATOM      8  C   UNL     1       1.648  12.952  18.377  0.00  0.00    +0.000 A 
ATOM      9  C   UNL     1       0.307  13.329  18.332  0.00  0.00    +0.000 A 
ATOM     10  C   UNL     1      -0.692  12.379  18.534  0.00  0.00    +0.000 A 
ATOM     11  C   UNL     1      -0.354  11.042  18.752  0.00  0.00    +0.000 A 
ENDBRANCH   4   6
BRANCH   5  12
ATOM     12  N   UNL     1       0.828   8.762  21.225  0.00  0.00    +0.000 N 
ATOM     13  C   UNL     1       1.458   9.205  22.373  0.00  0.00    +0.000 A 
ATOM     14  C   UNL     1       0.512   9.446  23.346  0.00  0.00    +0.000 A 
ATOM     15  C   UNL     1      -0.740   9.087  22.810  0.00  0.00    +0.000 A 
ATOM     16  C   UNL     1      -0.517   8.649  21.526  0.00  0.00    +0.000 A 
ENDBRANCH   5  12
BRANCH   1  17
ATOM     17  C   UNL     1       2.391   6.076  20.454  0.00  0.00    +0.000 C 
BRANCH  17  18
ATOM     18  S   UNL     1       1.489   4.627  19.808  0.00  0.00    +0.000 S 
BRANCH  18  19
ATOM     19  C   UNL     1       2.639   3.293  20.250  0.00  0.00    +0.000 C 
BRANCH  19  21
ATOM     20  N   UNL     1       3.853   4.369  18.425  0.00  0.00    +0.000 N 
ATOM     21  C   UNL     1       3.958   3.506  19.512  0.00  0.00    +0.000 C 
ATOM     22  O   UNL     1       4.972   2.925  19.891  0.00  0.00    +0.000 OA
ATOM     23  H   UNL     1       2.984   4.888  18.358  0.00  0.00    +0.000 HD
BRANCH  20  30
ATOM     24  C   UNL     1       6.170   3.902  14.088  0.00  0.00    +0.000 C 
ATOM     25  C   UNL     1       6.046   4.556  15.434  0.00  0.00    +0.000 A 
ATOM     26  C   UNL     1       6.911   5.600  15.793  0.00  0.00    +0.000 A 
ATOM     27  C   UNL     1       6.790   6.223  17.037  0.00  0.00    +0.000 A 
ATOM     28  C   UNL     1       7.701   7.342  17.449  0.00  0.00    +0.000 C 
ATOM     29  C   UNL     1       5.787   5.806  17.921  0.00  0.00    +0.000 A 
ATOM     30  C   UNL     1       4.903   4.784  17.577  0.00  0.00    +0.000 A 
ATOM     31  C   UNL     1       5.057   4.148  16.337  0.00  0.00    +0.000 A 
ENDBRANCH  20  30
ENDBRANCH  19  21
ENDBRANCH  18  19
ENDBRANCH  17  18
ENDBRANCH   1  17
TORSDOF 7
ENDMDL
MODEL 3
REMARK VINA RESULT:      -7.9      0.847      1.223
REMARK  Name = 
REMARK  9 active torsions:
REMARK  status: ('A' for Active; 'I' for Inactive)
REMARK    1  A    between atoms: C_1  and  C_2
REMARK    2  A    between atoms: C_4  and  C_5
REMARK    3  A    between atoms: C_7  and  N_8
REMARK    4  A    between atoms: C_9  and  C_11
REMARK    5  A    between atoms: C_11  and  S_12
REMARK    6  A    between atoms: S_12  and  C_13
REMARK    7  A    between atoms: C_13  and  C_14
REMARK    8  A    between atoms: N_17  and  C_18
REMARK    9  A    between atoms: C_24  and  N_25
REMARK                            x       y       z     vdW  Elec       q    Type
REMARK                         _______ _______ _______ _____ _____    ______ ____
ROOT
ATOM      1  C   UNL     1       2.171   7.439  19.564  0.00  0.00    +0.000 A 
ATOM      2  C   UNL     1       2.361   7.658  18.177  0.00  0.00    +0.000 A 
ATOM      3  N   UNL     1       1.743   8.741  17.720  0.00  0.00    +0.000 NA
ATOM      4  N   UNL     1       1.263   9.355  18.829  0.00  0.00    +0.000 N 
ATOM      5  C   UNL     1       1.418   8.544  19.947  0.00  0.00    +0.000 A 
ENDROOT
BRANCH   4   6
ATOM      6  C   UNL     1       0.781  10.690  18.708  0.00  0.00    +0.000 A 
ATOM      7  C   UNL     1       1.703  11.747  18.716  0.00  0.00    +0.000 A 
ATOM      8  C   UNL     1       1.265  13.057  18.521  0.00  0.00    +0.000 A 
ATOM      9  C   UNL     1      -0.093  13.321  18.348  0.00  0.00    +0.000 A 
ATOM     10  C   UNL     1      -1.018  12.280  18.400  0.00  0.00    +0.000 A 
ATOM     11  C   UNL     1      -0.586  10.967  18.594  0.00  0.00    +0.000 A 
ENDBRANCH   4   6
BRANCH   5  12
ATOM     12  N   UNL     1       0.819   8.782  21.183  0.00  0.00    +0.000 N 
ATOM     13  C   UNL     1       1.438   9.272  22.318  0.00  0.00    +0.000 A 
ATOM     14  C   UNL     1       0.499   9.432  23.315  0.00  0.00    +0.000 A 
ATOM     15  C   UNL     1      -0.732   8.972  22.808  0.00  0.00    +0.000 A 
ATOM     16  C   UNL     1      -0.504   8.556  21.516  0.00  0.00    +0.000 A 
ENDBRANCH   5  12
BRANCH   1  17
ATOM     17  C   UNL     1       2.561   6.224  20.357  0.00  0.00    +0.000 C 
BRANCH  17  18
ATOM     18  S   UNL     1       1.192   5.022  20.465  0.00  0.00    +0.000 S 
BRANCH  18  19
ATOM     19  C   UNL     1       1.931   3.598  19.614  0.00  0.00    +0.000 C 
BRANCH  19  21
ATOM     20  N   UNL     1       4.025   4.335  18.598  0.00  0.00    +0.000 N 
ATOM     21  C   UNL     1       2.673   4.087  18.374  0.00  0.00    +0.000 C 
ATOM     22  O   UNL     1       2.066   4.239  17.318  0.00  0.00    +0.000 OA
ATOM     23  H   UNL     1       4.394   3.997  19.480  0.00  0.00    +0.000 HD
BRANCH  20  30
ATOM     24  C   UNL     1       7.686   7.431  17.413  0.00  0.00    +0.000 C 
ATOM     25  C   UNL     1       6.781   6.287  17.054  0.00  0.00    +0.000 A 
ATOM     26  C   UNL     1       6.936   5.622  15.830  0.00  0.00    +0.000 A 
ATOM     27  C   UNL     1       6.109   4.547  15.499  0.00  0.00    +0.000 A 
ATOM     28  C   UNL     1       6.250   3.817  14.196  0.00  0.00    +0.000 C 
ATOM     29  C   UNL     1       5.129   4.127  16.408  0.00  0.00    +0.000 A 
ATOM     30  C   UNL     1       4.971   4.760  17.639  0.00  0.00    +0.000 A 
ATOM     31  C   UNL     1       5.789   5.857  17.945  0.00  0.00    +0.000 A 
ENDBRANCH  20  30
ENDBRANCH  19  21
ENDBRANCH  18  19
ENDBRANCH  17  18
ENDBRANCH   1  17
TORSDOF 7
ENDMDL
MODEL 4
REMARK VINA RESULT:      -7.7      2.330      7.718
REMARK  Name = 
REMARK  9 active torsions:
REMARK  status: ('A' for Active; 'I' for Inactive)
REMARK    1  A    between atoms: C_1  and  C_2
REMARK    2  A    between atoms: C_4  and  C_5
REMARK    3  A    between atoms: C_7  and  N_8
REMARK    4  A    between atoms: C_9  and  C_11
REMARK    5  A    between atoms: C_11  and  S_12
REMARK    6  A    between atoms: S_12  and  C_13
REMARK    7  A    between atoms: C_13  and  C_14
REMARK    8  A    between atoms: N_17  and  C_18
REMARK    9  A    between atoms: C_24  and  N_25
REMARK                            x       y       z     vdW  Elec       q    Type
REMARK                         _______ _______ _______ _____ _____    ______ ____
ROOT
ATOM      1  C   UNL     1       4.423   4.036  17.988  0.00  0.00    +0.000 A 
ATOM      2  C   UNL     1       3.687   3.231  17.083  0.00  0.00    +0.000 A 
ATOM      3  N   UNL     1       4.053   3.385  15.816  0.00  0.00    +0.000 NA
ATOM      4  N   UNL     1       5.151   4.177  15.870  0.00  0.00    +0.000 N 
ATOM      5  C   UNL     1       5.342   4.668  17.156  0.00  0.00    +0.000 A 
ENDROOT
BRANCH   4   6
ATOM      6  C   UNL     1       5.947   4.310  14.696  0.00  0.00    +0.000 A 
ATOM      7  C   UNL     1       5.572   3.612  13.540  0.00  0.00    +0.000 A 
ATOM      8  C   UNL     1       6.290   3.784  12.356  0.00  0.00    +0.000 A 
ATOM      9  C   UNL     1       7.399   4.629  12.329  0.00  0.00    +0.000 A 
ATOM     10  C   UNL     1       7.811   5.277  13.491  0.00  0.00    +0.000 A 
ATOM     11  C   UNL     1       7.097   5.108  14.678  0.00  0.00    +0.000 A 
ENDBRANCH   4   6
BRANCH   5  12
ATOM     12  N   UNL     1       6.234   5.687  17.488  0.00  0.00    +0.000 N 
ATOM     13  C   UNL     1       7.377   5.564  18.256  0.00  0.00    +0.000 A 
ATOM     14  C   UNL     1       8.027   6.779  18.300  0.00  0.00    +0.000 A 
ATOM     15  C   UNL     1       7.237   7.703  17.589  0.00  0.00    +0.000 A 
ATOM     16  C   UNL     1       6.137   7.018  17.127  0.00  0.00    +0.000 A 
ENDBRANCH   5  12
BRANCH   1  17
ATOM     17  C   UNL     1       4.147   4.252  19.448  0.00  0.00    +0.000 C 
BRANCH  17  18
ATOM     18  S   UNL     1       3.526   2.734  20.248  0.00  0.00    +0.000 S 
BRANCH  18  19
ATOM     19  C   UNL     1       2.353   3.440  21.440  0.00  0.00    +0.000 C 
BRANCH  19  21
ATOM     20  N   UNL     1       2.157   5.859  21.176  0.00  0.00    +0.000 N 
ATOM     21  C   UNL     1       1.639   4.624  20.796  0.00  0.00    +0.000 C 
ATOM     22  O   UNL     1       0.695   4.429  20.035  0.00  0.00    +0.000 OA
ATOM     23  H   UNL     1       3.039   5.832  21.675  0.00  0.00    +0.000 HD
BRANCH  20  30
ATOM     24  C   UNL     1       2.086   9.198  17.536  0.00  0.00    +0.000 C 
ATOM     25  C   UNL     1       1.692   8.774  18.923  0.00  0.00    +0.000 A 
ATOM     26  C   UNL     1       0.860   9.593  19.700  0.00  0.00    +0.000 A 
ATOM     27  C   UNL     1       0.477   9.196  20.983  0.00  0.00    +0.000 A 
ATOM     28  C   UNL     1      -0.411  10.050  21.839  0.00  0.00    +0.000 C 
ATOM     29  C   UNL     1       0.919   7.965  21.484  0.00  0.00    +0.000 A 
ATOM     30  C   UNL     1       1.729   7.126  20.721  0.00  0.00    +0.000 A 
ATOM     31  C   UNL     1       2.131   7.552  19.447  0.00  0.00    +0.000 A 
ENDBRANCH  20  30
ENDBRANCH  19  21
ENDBRANCH  18  19
ENDBRANCH  17  18
ENDBRANCH   1  17
TORSDOF 7
ENDMDL
MODEL 5
REMARK VINA RESULT:      -7.6      2.327      7.678
REMARK  Name = 
REMARK  9 active torsions:
REMARK  status: ('A' for Active; 'I' for Inactive)
REMARK    1  A    between atoms: C_1  and  C_2
REMARK    2  A    between atoms: C_4  and  C_5
REMARK    3  A    between atoms: C_7  and  N_8
REMARK    4  A    between atoms: C_9  and  C_11
REMARK    5  A    between atoms: C_11  and  S_12
REMARK    6  A    between atoms: S_12  and  C_13
REMARK    7  A    between atoms: C_13  and  C_14
REMARK    8  A    between atoms: N_17  and  C_18
REMARK    9  A    between atoms: C_24  and  N_25
REMARK                            x       y       z     vdW  Elec       q    Type
REMARK                         _______ _______ _______ _____ _____    ______ ____
ROOT
ATOM      1  C   UNL     1       4.461   3.965  18.078  0.00  0.00    +0.000 A 
ATOM      2  C   UNL     1       3.682   3.158  17.210  0.00  0.00    +0.000 A 
ATOM      3  N   UNL     1       3.977   3.321  15.926  0.00  0.00    +0.000 NA
ATOM      4  N   UNL     1       5.072   4.120  15.924  0.00  0.00    +0.000 N 
ATOM      5  C   UNL     1       5.329   4.606  17.200  0.00  0.00    +0.000 A 
ENDROOT
BRANCH   4   6
ATOM      6  C   UNL     1       5.802   4.263  14.709  0.00  0.00    +0.000 A 
ATOM      7  C   UNL     1       6.986   5.015  14.714  0.00  0.00    +0.000 A 
ATOM      8  C   UNL     1       7.759   5.107  13.557  0.00  0.00    +0.000 A 
ATOM      9  C   UNL     1       7.341   4.475  12.386  0.00  0.00    +0.000 A 
ATOM     10  C   UNL     1       6.135   3.778  12.361  0.00  0.00    +0.000 A 
ATOM     11  C   UNL     1       5.357   3.683  13.515  0.00  0.00    +0.000 A 
ENDBRANCH   4   6
BRANCH   5  12
ATOM     12  N   UNL     1       6.231   5.629  17.488  0.00  0.00    +0.000 N 
ATOM     13  C   UNL     1       6.133   6.950  17.094  0.00  0.00    +0.000 A 
ATOM     14  C   UNL     1       7.182   7.665  17.633  0.00  0.00    +0.000 A 
ATOM     15  C   UNL     1       7.994   6.751  18.334  0.00  0.00    +0.000 A 
ATOM     16  C   UNL     1       7.407   5.514  18.209  0.00  0.00    +0.000 A 
ENDBRANCH   5  12
BRANCH   1  17
ATOM     17  C   UNL     1       4.264   4.171  19.552  0.00  0.00    +0.000 C 
BRANCH  17  18
ATOM     18  S   UNL     1       3.580   2.683  20.356  0.00  0.00    +0.000 S 
BRANCH  18  19
ATOM     19  C   UNL     1       2.402   3.439  21.512  0.00  0.00    +0.000 C 
BRANCH  19  21
ATOM     20  N   UNL     1       2.165   5.844  21.169  0.00  0.00    +0.000 N 
ATOM     21  C   UNL     1       1.683   4.588  20.812  0.00  0.00    +0.000 C 
ATOM     22  O   UNL     1       0.765   4.351  20.032  0.00  0.00    +0.000 OA
ATOM     23  H   UNL     1       3.033   5.850  21.694  0.00  0.00    +0.000 HD
BRANCH  20  30
ATOM     24  C   UNL     1      -0.374  10.013  21.925  0.00  0.00    +0.000 C 
ATOM     25  C   UNL     1       0.475   9.148  21.037  0.00  0.00    +0.000 A 
ATOM     26  C   UNL     1       0.873   9.610  19.775  0.00  0.00    +0.000 A 
ATOM     27  C   UNL     1       1.675   8.817  18.952  0.00  0.00    +0.000 A 
ATOM     28  C   UNL     1       2.117   9.284  17.597  0.00  0.00    +0.000 C 
ATOM     29  C   UNL     1       2.093   7.559  19.404  0.00  0.00    +0.000 A 
ATOM     30  C   UNL     1       1.726   7.088  20.663  0.00  0.00    +0.000 A 
ATOM     31  C   UNL     1       0.894   7.882  21.466  0.00  0.00    +0.000 A 
ENDBRANCH  20  30
ENDBRANCH  19  21
ENDBRANCH  18  19
ENDBRANCH  17  18
ENDBRANCH   1  17
TORSDOF 7
ENDMDL
MODEL 6
REMARK VINA RESULT:      -7.3      4.783      8.072
REMARK  Name = 
REMARK  9 active torsions:
REMARK  status: ('A' for Active; 'I' for Inactive)
REMARK    1  A    between atoms: C_1  and  C_2
REMARK    2  A    between atoms: C_4  and  C_5
REMARK    3  A    between atoms: C_7  and  N_8
REMARK    4  A    between atoms: C_9  and  C_11
REMARK    5  A    between atoms: C_11  and  S_12
REMARK    6  A    between atoms: S_12  and  C_13
REMARK    7  A    between atoms: C_13  and  C_14
REMARK    8  A    between atoms: N_17  and  C_18
REMARK    9  A    between atoms: C_24  and  N_25
REMARK                            x       y       z     vdW  Elec       q    Type
REMARK                         _______ _______ _______ _____ _____    ______ ____
ROOT
ATOM      1  C   UNL     1       5.692   5.921  17.847  0.00  0.00    +0.000 A 
ATOM      2  C   UNL     1       6.229   4.675  18.259  0.00  0.00    +0.000 A 
ATOM      3  N   UNL     1       5.387   3.946  18.981  0.00  0.00    +0.000 NA
ATOM      4  N   UNL     1       4.214   4.623  18.926  0.00  0.00    +0.000 N 
ATOM      5  C   UNL     1       4.390   5.868  18.334  0.00  0.00    +0.000 A 
ENDROOT
BRANCH   4   6
ATOM      6  C   UNL     1       3.033   3.966  19.375  0.00  0.00    +0.000 A 
ATOM      7  C   UNL     1       2.154   3.425  18.425  0.00  0.00    +0.000 A 
ATOM      8  C   UNL     1       1.031   2.710  18.841  0.00  0.00    +0.000 A 
ATOM      9  C   UNL     1       0.764   2.556  20.200  0.00  0.00    +0.000 A 
ATOM     10  C   UNL     1       1.602   3.142  21.147  0.00  0.00    +0.000 A 
ATOM     11  C   UNL     1       2.727   3.859  20.738  0.00  0.00    +0.000 A 
ENDBRANCH   4   6
BRANCH   5  12
ATOM     12  N   UNL     1       3.440   6.887  18.342  0.00  0.00    +0.000 N 
ATOM     13  C   UNL     1       2.628   7.249  19.401  0.00  0.00    +0.000 A 
ATOM     14  C   UNL     1       1.873   8.345  19.040  0.00  0.00    +0.000 A 
ATOM     15  C   UNL     1       2.178   8.640  17.697  0.00  0.00    +0.000 A 
ATOM     16  C   UNL     1       3.115   7.721  17.287  0.00  0.00    +0.000 A 
ENDBRANCH   5  12
BRANCH   1  17
ATOM     17  C   UNL     1       6.424   7.057  17.191  0.00  0.00    +0.000 C 
BRANCH  17  18
ATOM     18  S   UNL     1       7.887   7.563  18.157  0.00  0.00    +0.000 S 
BRANCH  18  19
ATOM     19  C   UNL     1       8.150   9.239  17.511  0.00  0.00    +0.000 C 
BRANCH  19  21
ATOM     20  N   UNL     1       8.981  11.421  18.224  0.00  0.00    +0.000 N 
ATOM     21  C   UNL     1       8.845  10.081  18.577  0.00  0.00    +0.000 C 
ATOM     22  O   UNL     1       9.234   9.554  19.615  0.00  0.00    +0.000 OA
ATOM     23  H   UNL     1       8.456  11.717  17.409  0.00  0.00    +0.000 HD
BRANCH  20  30
ATOM     24  C   UNL     1       9.046  13.834  22.534  0.00  0.00    +0.000 C 
ATOM     25  C   UNL     1       9.582  13.635  21.145  0.00  0.00    +0.000 A 
ATOM     26  C   UNL     1      10.663  14.402  20.690  0.00  0.00    +0.000 A 
ATOM     27  C   UNL     1      11.176  14.210  19.406  0.00  0.00    +0.000 A 
ATOM     28  C   UNL     1      12.332  15.016  18.891  0.00  0.00    +0.000 C 
ATOM     29  C   UNL     1      10.610  13.233  18.577  0.00  0.00    +0.000 A 
ATOM     30  C   UNL     1       9.548  12.445  19.016  0.00  0.00    +0.000 A 
ATOM     31  C   UNL     1       9.023  12.670  20.297  0.00  0.00    +0.000 A 
ENDBRANCH  20  30
ENDBRANCH  19  21
ENDBRANCH  18  19
ENDBRANCH  17  18
ENDBRANCH   1  17
TORSDOF 7
ENDMDL
MODEL 7
REMARK VINA RESULT:      -7.3      3.401      5.532
REMARK  Name = 
REMARK  9 active torsions:
REMARK  status: ('A' for Active; 'I' for Inactive)
REMARK    1  A    between atoms: C_1  and  C_2
REMARK    2  A    between atoms: C_4  and  C_5
REMARK    3  A    between atoms: C_7  and  N_8
REMARK    4  A    between atoms: C_9  and  C_11
REMARK    5  A    between atoms: C_11  and  S_12
REMARK    6  A    between atoms: S_12  and  C_13
REMARK    7  A    between atoms: C_13  and  C_14
REMARK    8  A    between atoms: N_17  and  C_18
REMARK    9  A    between atoms: C_24  and  N_25
REMARK                            x       y       z     vdW  Elec       q    Type
REMARK                         _______ _______ _______ _____ _____    ______ ____
ROOT
ATOM      1  C   UNL     1       4.313   6.107  17.871  0.00  0.00    +0.000 A 
ATOM      2  C   UNL     1       4.484   7.315  17.149  0.00  0.00    +0.000 A 
ATOM      3  N   UNL     1       3.490   8.180  17.317  0.00  0.00    +0.000 NA
ATOM      4  N   UNL     1       2.716   7.630  18.284  0.00  0.00    +0.000 N 
ATOM      5  C   UNL     1       3.130   6.334  18.569  0.00  0.00    +0.000 A 
ENDROOT
BRANCH   4   6
ATOM      6  C   UNL     1       1.713   8.440  18.889  0.00  0.00    +0.000 A 
ATOM      7  C   UNL     1       0.906   9.244  18.072  0.00  0.00    +0.000 A 
ATOM      8  C   UNL     1      -0.133   9.988  18.632  0.00  0.00    +0.000 A 
ATOM      9  C   UNL     1      -0.352   9.955  20.008  0.00  0.00    +0.000 A 
ATOM     10  C   UNL     1       0.485   9.204  20.831  0.00  0.00    +0.000 A 
ATOM     11  C   UNL     1       1.526   8.458  20.277  0.00  0.00    +0.000 A 
ENDBRANCH   4   6
BRANCH   5  12
ATOM     12  N   UNL     1       2.405   5.424  19.337  0.00  0.00    +0.000 N 
ATOM     13  C   UNL     1       1.525   4.467  18.868  0.00  0.00    +0.000 A 
ATOM     14  C   UNL     1       1.060   3.719  19.929  0.00  0.00    +0.000 A 
ATOM     15  C   UNL     1       1.620   4.263  21.102  0.00  0.00    +0.000 A 
ATOM     16  C   UNL     1       2.414   5.317  20.716  0.00  0.00    +0.000 A 
ENDBRANCH   5  12
BRANCH   1  17
ATOM     17  C   UNL     1       5.135   4.856  17.762  0.00  0.00    +0.000 C 
BRANCH  17  18
ATOM     18  S   UNL     1       6.754   5.179  16.985  0.00  0.00    +0.000 S 
BRANCH  18  19
ATOM     19  C   UNL     1       7.606   6.043  18.336  0.00  0.00    +0.000 C 
BRANCH  19  21
ATOM     20  N   UNL     1       8.474   8.252  18.909  0.00  0.00    +0.000 N 
ATOM     21  C   UNL     1       7.881   7.483  17.912  0.00  0.00    +0.000 C 
ATOM     22  O   UNL     1       7.568   7.860  16.786  0.00  0.00    +0.000 OA
ATOM     23  H   UNL     1       8.817   7.740  19.715  0.00  0.00    +0.000 HD
BRANCH  20  30
ATOM     24  C   UNL     1       7.610  12.748  17.054  0.00  0.00    +0.000 C 
ATOM     25  C   UNL     1       8.449  11.823  17.889  0.00  0.00    +0.000 A 
ATOM     26  C   UNL     1       9.554  12.318  18.595  0.00  0.00    +0.000 A 
ATOM     27  C   UNL     1      10.328  11.466  19.386  0.00  0.00    +0.000 A 
ATOM     28  C   UNL     1      11.516  11.966  20.153  0.00  0.00    +0.000 C 
ATOM     29  C   UNL     1       9.983  10.111  19.480  0.00  0.00    +0.000 A 
ATOM     30  C   UNL     1       8.877   9.602  18.802  0.00  0.00    +0.000 A 
ATOM     31  C   UNL     1       8.128  10.463  17.988  0.00  0.00    +0.000 A 
ENDBRANCH  20  30
ENDBRANCH  19  21
ENDBRANCH  18  19
ENDBRANCH  17  18
ENDBRANCH   1  17
TORSDOF 7
ENDMDL
MODEL 8
REMARK VINA RESULT:      -7.3      4.309      7.587
REMARK  Name = 
REMARK  9 active torsions:
REMARK  status: ('A' for Active; 'I' for Inactive)
REMARK    1  A    between atoms: C_1  and  C_2
REMARK    2  A    between atoms: C_4  and  C_5
REMARK    3  A    between atoms: C_7  and  N_8
REMARK    4  A    between atoms: C_9  and  C_11
REMARK    5  A    between atoms: C_11  and  S_12
REMARK    6  A    between atoms: S_12  and  C_13
REMARK    7  A    between atoms: C_13  and  C_14
REMARK    8  A    between atoms: N_17  and  C_18
REMARK    9  A    between atoms: C_24  and  N_25
REMARK                            x       y       z     vdW  Elec       q    Type
REMARK                         _______ _______ _______ _____ _____    ______ ____
ROOT
ATOM      1  C   UNL     1       5.271   5.905  17.790  0.00  0.00    +0.000 A 
ATOM      2  C   UNL     1       5.841   4.647  18.112  0.00  0.00    +0.000 A 
ATOM      3  N   UNL     1       5.100   3.927  18.946  0.00  0.00    +0.000 NA
ATOM      4  N   UNL     1       3.943   4.622  19.067  0.00  0.00    +0.000 N 
ATOM      5  C   UNL     1       4.053   5.869  18.461  0.00  0.00    +0.000 A 
ENDROOT
BRANCH   4   6
ATOM      6  C   UNL     1       2.829   3.981  19.680  0.00  0.00    +0.000 A 
ATOM      7  C   UNL     1       1.763   3.557  18.874  0.00  0.00    +0.000 A 
ATOM      8  C   UNL     1       0.696   2.858  19.439  0.00  0.00    +0.000 A 
ATOM      9  C   UNL     1       0.674   2.605  20.810  0.00  0.00    +0.000 A 
ATOM     10  C   UNL     1       1.702   3.077  21.623  0.00  0.00    +0.000 A 
ATOM     11  C   UNL     1       2.772   3.777  21.064  0.00  0.00    +0.000 A 
ENDBRANCH   4   6
BRANCH   5  12
ATOM     12  N   UNL     1       3.131   6.903  18.613  0.00  0.00    +0.000 N 
ATOM     13  C   UNL     1       2.732   7.801  17.640  0.00  0.00    +0.000 A 
ATOM     14  C   UNL     1       1.758   8.628  18.158  0.00  0.00    +0.000 A 
ATOM     15  C   UNL     1       1.585   8.276  19.511  0.00  0.00    +0.000 A 
ATOM     16  C   UNL     1       2.453   7.241  19.770  0.00  0.00    +0.000 A 
ENDBRANCH   5  12
BRANCH   1  17
ATOM     17  C   UNL     1       5.918   7.033  17.040  0.00  0.00    +0.000 C 
BRANCH  17  18
ATOM     18  S   UNL     1       7.735   6.865  17.005  0.00  0.00    +0.000 S 
BRANCH  18  19
ATOM     19  C   UNL     1       8.171   7.621  18.597  0.00  0.00    +0.000 C 
BRANCH  19  21
ATOM     20  N   UNL     1       9.357   9.642  19.283  0.00  0.00    +0.000 N 
ATOM     21  C   UNL     1       8.435   9.109  18.386  0.00  0.00    +0.000 C 
ATOM     22  O   UNL     1       7.842   9.716  17.499  0.00  0.00    +0.000 OA
ATOM     23  H   UNL     1       9.873   8.968  19.837  0.00  0.00    +0.000 HD
BRANCH  20  30
ATOM     24  C   UNL     1      11.518  13.378  16.879  0.00  0.00    +0.000 C 
ATOM     25  C   UNL     1      10.891  12.820  18.126  0.00  0.00    +0.000 A 
ATOM     26  C   UNL     1      10.718  13.635  19.253  0.00  0.00    +0.000 A 
ATOM     27  C   UNL     1      10.121  13.127  20.408  0.00  0.00    +0.000 A 
ATOM     28  C   UNL     1       9.922  13.974  21.630  0.00  0.00    +0.000 C 
ATOM     29  C   UNL     1       9.682  11.797  20.429  0.00  0.00    +0.000 A 
ATOM     30  C   UNL     1       9.827  10.974  19.313  0.00  0.00    +0.000 A 
ATOM     31  C   UNL     1      10.456  11.490  18.171  0.00  0.00    +0.000 A 
ENDBRANCH  20  30
ENDBRANCH  19  21
ENDBRANCH  18  19
ENDBRANCH  17  18
ENDBRANCH   1  17
TORSDOF 7
ENDMDL
MODEL 9
REMARK VINA RESULT:      -7.3      2.227      4.086
REMARK  Name = 
REMARK  9 active torsions:
REMARK  status: ('A' for Active; 'I' for Inactive)
REMARK    1  A    between atoms: C_1  and  C_2
REMARK    2  A    between atoms: C_4  and  C_5
REMARK    3  A    between atoms: C_7  and  N_8
REMARK    4  A    between atoms: C_9  and  C_11
REMARK    5  A    between atoms: C_11  and  S_12
REMARK    6  A    between atoms: S_12  and  C_13
REMARK    7  A    between atoms: C_13  and  C_14
REMARK    8  A    between atoms: N_17  and  C_18
REMARK    9  A    between atoms: C_24  and  N_25
REMARK                            x       y       z     vdW  Elec       q    Type
REMARK                         _______ _______ _______ _____ _____    ______ ____
ROOT
ATOM      1  C   UNL     1       3.677   6.461  17.916  0.00  0.00    +0.000 A 
ATOM      2  C   UNL     1       3.675   7.787  17.413  0.00  0.00    +0.000 A 
ATOM      3  N   UNL     1       2.756   8.566  17.969  0.00  0.00    +0.000 NA
ATOM      4  N   UNL     1       2.234   7.818  18.972  0.00  0.00    +0.000 N 
ATOM      5  C   UNL     1       2.698   6.510  18.903  0.00  0.00    +0.000 A 
ENDROOT
BRANCH   4   6
ATOM      6  C   UNL     1       1.410   8.463  19.938  0.00  0.00    +0.000 A 
ATOM      7  C   UNL     1       0.508   9.449  19.510  0.00  0.00    +0.000 A 
ATOM      8  C   UNL     1      -0.364  10.041  20.424  0.00  0.00    +0.000 A 
ATOM      9  C   UNL     1      -0.321   9.674  21.769  0.00  0.00    +0.000 A 
ATOM     10  C   UNL     1       0.614   8.740  22.208  0.00  0.00    +0.000 A 
ATOM     11  C   UNL     1       1.490   8.144  21.299  0.00  0.00    +0.000 A 
ENDBRANCH   4   6
BRANCH   5  12
ATOM     12  N   UNL     1       2.173   5.447  19.637  0.00  0.00    +0.000 N 
ATOM     13  C   UNL     1       1.234   4.530  19.204  0.00  0.00    +0.000 A 
ATOM     14  C   UNL     1       1.023   3.594  20.194  0.00  0.00    +0.000 A 
ATOM     15  C   UNL     1       1.809   3.970  21.300  0.00  0.00    +0.000 A 
ATOM     16  C   UNL     1       2.480   5.117  20.945  0.00  0.00    +0.000 A 
ENDBRANCH   5  12
BRANCH   1  17
ATOM     17  C   UNL     1       4.443   5.285  17.384  0.00  0.00    +0.000 C 
BRANCH  17  18
ATOM     18  S   UNL     1       5.446   4.490  18.684  0.00  0.00    +0.000 S 
BRANCH  18  19
ATOM     19  C   UNL     1       7.080   5.194  18.322  0.00  0.00    +0.000 C 
BRANCH  19  21
ATOM     20  N   UNL     1       6.926   4.417  16.013  0.00  0.00    +0.000 N 
ATOM     21  C   UNL     1       7.166   5.515  16.833  0.00  0.00    +0.000 C 
ATOM     22  O   UNL     1       7.442   6.655  16.468  0.00  0.00    +0.000 OA
ATOM     23  H   UNL     1       6.549   3.596  16.476  0.00  0.00    +0.000 HD
BRANCH  20  30
ATOM     24  C   UNL     1       8.597   6.351  11.786  0.00  0.00    +0.000 C 
ATOM     25  C   UNL     1       7.728   5.364  12.513  0.00  0.00    +0.000 A 
ATOM     26  C   UNL     1       6.978   4.422  11.795  0.00  0.00    +0.000 A 
ATOM     27  C   UNL     1       6.181   3.492  12.466  0.00  0.00    +0.000 A 
ATOM     28  C   UNL     1       5.367   2.472  11.725  0.00  0.00    +0.000 C 
ATOM     29  C   UNL     1       6.148   3.497  13.866  0.00  0.00    +0.000 A 
ATOM     30  C   UNL     1       6.901   4.411  14.601  0.00  0.00    +0.000 A 
ATOM     31  C   UNL     1       7.672   5.359  13.913  0.00  0.00    +0.000 A 
ENDBRANCH  20  30
ENDBRANCH  19  21
ENDBRANCH  18  19
ENDBRANCH  17  18
ENDBRANCH   1  17
TORSDOF 7
ENDMDL
