MODEL 1
REMARK VINA RESULT:      -7.2      0.000      0.000
REMARK  Name = 
REMARK  8 active torsions:
REMARK  status: ('A' for Active; 'I' for Inactive)
REMARK    1  A    between atoms: C_1  and  C_2
REMARK    2  A    between atoms: C_2  and  C_3
REMARK    3  A    between atoms: C_3  and  C_4
REMARK    4  A    between atoms: C_4  and  C_5
REMARK    5  A    between atoms: C_8  and  C_9
REMARK    6  A    between atoms: C_10  and  C_11
REMARK    7  A    between atoms: C_13  and  O_14
REMARK    8  A    between atoms: O_14  and  C_15
REMARK                            x       y       z     vdW  Elec       q    Type
REMARK                         _______ _______ _______ _____ _____    ______ ____
ROOT
ATOM      1  C   UNL     1       8.445   8.127  18.613  0.00  0.00    +0.000 C 
ATOM      2  C   UNL     1       8.386   9.413  18.231  0.00  0.00    +0.000 C 
ENDROOT
BRANCH   2   3
ATOM      3  C   UNL     1       9.278  10.448  18.711  0.00  0.00    +0.000 A 
ATOM      4  C   UNL     1       9.232  10.931  19.957  0.00  0.00    +0.000 A 
ATOM      5  C   UNL     1      10.146  11.967  20.354  0.00  0.00    +0.000 A 
ATOM      6  C   UNL     1      11.033  12.443  19.467  0.00  0.00    +0.000 A 
ATOM      7  C   UNL     1      11.082  11.922  18.096  0.00  0.00    +0.000 A 
ATOM      8  O   UNL     1      11.894  12.373  17.298  0.00  0.00    +0.000 OA
ATOM      9  O   UNL     1      10.203  10.937  17.762  0.00  0.00    +0.000 OA
BRANCH   5  10
ATOM     10  O   UNL     1       9.983  12.351  21.661  0.00  0.00    +0.000 OA
ATOM     11  C   UNL     1       8.711  12.124  22.254  0.00  0.00    +0.000 C 
ENDBRANCH   5  10
ENDBRANCH   2   3
BRANCH   1  15
ATOM     12  C   UNL     1       5.941   5.099  16.917  0.00  0.00    +0.000 A 
ATOM     13  C   UNL     1       5.752   6.454  16.616  0.00  0.00    +0.000 A 
ATOM     14  C   UNL     1       6.582   7.425  17.176  0.00  0.00    +0.000 A 
ATOM     15  C   UNL     1       7.591   7.064  18.075  0.00  0.00    +0.000 A 
ATOM     16  C   UNL     1       7.763   5.712  18.392  0.00  0.00    +0.000 A 
ATOM     17  C   UNL     1       6.940   4.737  17.825  0.00  0.00    +0.000 A 
BRANCH  12  18
ATOM     18  C   UNL     1       5.146   4.042  16.190  0.00  0.00    +0.000 C 
BRANCH  18  19
ATOM     19  C   UNL     1       5.194   4.317  14.686  0.00  0.00    +0.000 C 
BRANCH  19  21
ATOM     20  C   UNL     1       6.341   3.667  12.569  0.00  0.00    +0.000 C 
ATOM     21  C   UNL     1       6.523   3.921  14.057  0.00  0.00    +0.000 C 
ENDBRANCH  19  21
ENDBRANCH  18  19
ENDBRANCH  12  18
ENDBRANCH   1  15
TORSDOF 6
ENDMDL
MODEL 2
REMARK VINA RESULT:      -7.1      6.289      7.959
REMARK  Name = 
REMARK  8 active torsions:
REMARK  status: ('A' for Active; 'I' for Inactive)
REMARK    1  A    between atoms: C_1  and  C_2
REMARK    2  A    between atoms: C_2  and  C_3
REMARK    3  A    between atoms: C_3  and  C_4
REMARK    4  A    between atoms: C_4  and  C_5
REMARK    5  A    between atoms: C_8  and  C_9
REMARK    6  A    between atoms: C_10  and  C_11
REMARK    7  A    between atoms: C_13  and  O_14
REMARK    8  A    between atoms: O_14  and  C_15
REMARK                            x       y       z     vdW  Elec       q    Type
REMARK                         _______ _______ _______ _____ _____    ______ ____
ROOT
ATOM      1  C   UNL     1       2.125   7.892  18.729  0.00  0.00    +0.000 C 
ATOM      2  C   UNL     1       1.910   7.913  20.054  0.00  0.00    +0.000 C 
ENDROOT
BRANCH   2   3
ATOM      3  C   UNL     1       1.027   8.847  20.721  0.00  0.00    +0.000 A 
ATOM      4  C   UNL     1       0.247   9.712  20.064  0.00  0.00    +0.000 A 
ATOM      5  C   UNL     1      -0.595  10.615  20.801  0.00  0.00    +0.000 A 
ATOM      6  C   UNL     1      -0.586  10.584  22.142  0.00  0.00    +0.000 A 
ATOM      7  C   UNL     1       0.275   9.642  22.868  0.00  0.00    +0.000 A 
ATOM      8  O   UNL     1       0.274   9.633  24.093  0.00  0.00    +0.000 OA
ATOM      9  O   UNL     1       1.053   8.800  22.133  0.00  0.00    +0.000 OA
BRANCH   5  10
ATOM     10  O   UNL     1      -1.341  11.432  19.989  0.00  0.00    +0.000 OA
ATOM     11  C   UNL     1      -1.604  10.975  18.668  0.00  0.00    +0.000 C 
ENDBRANCH   5  10
ENDBRANCH   2   3
BRANCH   1  15
ATOM     12  C   UNL     1       4.684   5.097  16.739  0.00  0.00    +0.000 A 
ATOM     13  C   UNL     1       4.836   6.479  16.562  0.00  0.00    +0.000 A 
ATOM     14  C   UNL     1       3.995   7.372  17.224  0.00  0.00    +0.000 A 
ATOM     15  C   UNL     1       2.963   6.903  18.043  0.00  0.00    +0.000 A 
ATOM     16  C   UNL     1       2.798   5.522  18.199  0.00  0.00    +0.000 A 
ATOM     17  C   UNL     1       3.645   4.625  17.546  0.00  0.00    +0.000 A 
BRANCH  12  18
ATOM     18  C   UNL     1       5.691   4.141  16.148  0.00  0.00    +0.000 C 
BRANCH  18  19
ATOM     19  C   UNL     1       7.098   4.720  16.316  0.00  0.00    +0.000 C 
BRANCH  19  21
ATOM     20  C   UNL     1       7.710   5.822  18.467  0.00  0.00    +0.000 C 
ATOM     21  C   UNL     1       7.660   4.502  17.714  0.00  0.00    +0.000 C 
ENDBRANCH  19  21
ENDBRANCH  18  19
ENDBRANCH  12  18
ENDBRANCH   1  15
TORSDOF 6
ENDMDL
MODEL 3
REMARK VINA RESULT:      -7.1      1.226      2.334
REMARK  Name = 
REMARK  8 active torsions:
REMARK  status: ('A' for Active; 'I' for Inactive)
REMARK    1  A    between atoms: C_1  and  C_2
REMARK    2  A    between atoms: C_2  and  C_3
REMARK    3  A    between atoms: C_3  and  C_4
REMARK    4  A    between atoms: C_4  and  C_5
REMARK    5  A    between atoms: C_8  and  C_9
REMARK    6  A    between atoms: C_10  and  C_11
REMARK    7  A    between atoms: C_13  and  O_14
REMARK    8  A    between atoms: O_14  and  C_15
REMARK                            x       y       z     vdW  Elec       q    Type
REMARK                         _______ _______ _______ _____ _____    ______ ____
ROOT
ATOM      1  C   UNL     1       8.374   8.100  18.532  0.00  0.00    +0.000 C 
ATOM      2  C   UNL     1       8.391   9.377  18.119  0.00  0.00    +0.000 C 
ENDROOT
BRANCH   2   3
ATOM      3  C   UNL     1       9.278  10.393  18.647  0.00  0.00    +0.000 A 
ATOM      4  C   UNL     1       9.274  10.769  19.930  0.00  0.00    +0.000 A 
ATOM      5  C   UNL     1      10.180  11.794  20.374  0.00  0.00    +0.000 A 
ATOM      6  C   UNL     1      11.015  12.366  19.494  0.00  0.00    +0.000 A 
ATOM      7  C   UNL     1      11.017  11.962  18.083  0.00  0.00    +0.000 A 
ATOM      8  O   UNL     1      11.783  12.500  17.294  0.00  0.00    +0.000 OA
ATOM      9  O   UNL     1      10.148  10.984  17.704  0.00  0.00    +0.000 OA
BRANCH   5  10
ATOM     10  O   UNL     1      10.064  12.064  21.714  0.00  0.00    +0.000 OA
ATOM     11  C   UNL     1       9.116  13.049  22.103  0.00  0.00    +0.000 C 
ENDBRANCH   5  10
ENDBRANCH   2   3
BRANCH   1  15
ATOM     12  C   UNL     1       5.917   4.968  16.961  0.00  0.00    +0.000 A 
ATOM     13  C   UNL     1       6.981   4.693  17.831  0.00  0.00    +0.000 A 
ATOM     14  C   UNL     1       7.766   5.729  18.335  0.00  0.00    +0.000 A 
ATOM     15  C   UNL     1       7.528   7.052  17.950  0.00  0.00    +0.000 A 
ATOM     16  C   UNL     1       6.481   7.322  17.063  0.00  0.00    +0.000 A 
ATOM     17  C   UNL     1       5.686   6.287  16.564  0.00  0.00    +0.000 A 
BRANCH  12  18
ATOM     18  C   UNL     1       4.974   3.866  16.542  0.00  0.00    +0.000 C 
BRANCH  18  19
ATOM     19  C   UNL     1       3.676   3.978  17.345  0.00  0.00    +0.000 C 
BRANCH  19  21
ATOM     20  C   UNL     1       4.186   2.633  19.381  0.00  0.00    +0.000 C 
ATOM     21  C   UNL     1       3.348   2.706  18.114  0.00  0.00    +0.000 C 
ENDBRANCH  19  21
ENDBRANCH  18  19
ENDBRANCH  12  18
ENDBRANCH   1  15
TORSDOF 6
ENDMDL
MODEL 4
REMARK VINA RESULT:      -7.1      5.910      9.134
REMARK  Name = 
REMARK  8 active torsions:
REMARK  status: ('A' for Active; 'I' for Inactive)
REMARK    1  A    between atoms: C_1  and  C_2
REMARK    2  A    between atoms: C_2  and  C_3
REMARK    3  A    between atoms: C_3  and  C_4
REMARK    4  A    between atoms: C_4  and  C_5
REMARK    5  A    between atoms: C_8  and  C_9
REMARK    6  A    between atoms: C_10  and  C_11
REMARK    7  A    between atoms: C_13  and  O_14
REMARK    8  A    between atoms: O_14  and  C_15
REMARK                            x       y       z     vdW  Elec       q    Type
REMARK                         _______ _______ _______ _____ _____    ______ ____
ROOT
ATOM      1  C   UNL     1       3.158   6.944  17.731  0.00  0.00    +0.000 C 
ATOM      2  C   UNL     1       4.438   6.658  18.023  0.00  0.00    +0.000 C 
ENDROOT
BRANCH   2   3
ATOM      3  C   UNL     1       5.285   5.802  17.219  0.00  0.00    +0.000 A 
ATOM      4  C   UNL     1       4.977   5.433  15.971  0.00  0.00    +0.000 A 
ATOM      5  C   UNL     1       5.868   4.571  15.243  0.00  0.00    +0.000 A 
ATOM      6  C   UNL     1       6.997   4.140  15.825  0.00  0.00    +0.000 A 
ATOM      7  C   UNL     1       7.335   4.536  17.198  0.00  0.00    +0.000 A 
ATOM      8  O   UNL     1       8.367   4.128  17.715  0.00  0.00    +0.000 OA
ATOM      9  O   UNL     1       6.468   5.358  17.851  0.00  0.00    +0.000 OA
BRANCH   5  10
ATOM     10  O   UNL     1       5.421   4.290  13.976  0.00  0.00    +0.000 OA
ATOM     11  C   UNL     1       6.355   3.723  13.066  0.00  0.00    +0.000 C 
ENDBRANCH   5  10
ENDBRANCH   2   3
BRANCH   1  15
ATOM     12  C   UNL     1       0.792   9.607  20.102  0.00  0.00    +0.000 A 
ATOM     13  C   UNL     1       1.312   8.421  20.637  0.00  0.00    +0.000 A 
ATOM     14  C   UNL     1       2.085   7.570  19.848  0.00  0.00    +0.000 A 
ATOM     15  C   UNL     1       2.320   7.867  18.503  0.00  0.00    +0.000 A 
ATOM     16  C   UNL     1       1.780   9.040  17.964  0.00  0.00    +0.000 A 
ATOM     17  C   UNL     1       1.014   9.899  18.754  0.00  0.00    +0.000 A 
BRANCH  12  18
ATOM     18  C   UNL     1       0.091  10.600  20.997  0.00  0.00    +0.000 C 
BRANCH  18  19
ATOM     19  C   UNL     1      -0.082   9.992  22.391  0.00  0.00    +0.000 C 
BRANCH  19  21
ATOM     20  C   UNL     1      -1.259  12.149  22.812  0.00  0.00    +0.000 C 
ATOM     21  C   UNL     1      -1.168  10.683  23.203  0.00  0.00    +0.000 C 
ENDBRANCH  19  21
ENDBRANCH  18  19
ENDBRANCH  12  18
ENDBRANCH   1  15
TORSDOF 6
ENDMDL
MODEL 5
REMARK VINA RESULT:      -7.1      3.204      8.681
REMARK  Name = 
REMARK  8 active torsions:
REMARK  status: ('A' for Active; 'I' for Inactive)
REMARK    1  A    between atoms: C_1  and  C_2
REMARK    2  A    between atoms: C_2  and  C_3
REMARK    3  A    between atoms: C_3  and  C_4
REMARK    4  A    between atoms: C_4  and  C_5
REMARK    5  A    between atoms: C_8  and  C_9
REMARK    6  A    between atoms: C_10  and  C_11
REMARK    7  A    between atoms: C_13  and  O_14
REMARK    8  A    between atoms: O_14  and  C_15
REMARK                            x       y       z     vdW  Elec       q    Type
REMARK                         _______ _______ _______ _____ _____    ______ ____
ROOT
ATOM      1  C   UNL     1       8.138   9.138  18.038  0.00  0.00    +0.000 C 
ATOM      2  C   UNL     1       8.330   7.881  18.469  0.00  0.00    +0.000 C 
ENDROOT
BRANCH   2   3
ATOM      3  C   UNL     1       7.608   6.729  17.969  0.00  0.00    +0.000 A 
ATOM      4  C   UNL     1       7.005   5.843  18.768  0.00  0.00    +0.000 A 
ATOM      5  C   UNL     1       6.317   4.719  18.193  0.00  0.00    +0.000 A 
ATOM      6  C   UNL     1       6.292   4.568  16.861  0.00  0.00    +0.000 A 
ATOM      7  C   UNL     1       6.960   5.534  15.980  0.00  0.00    +0.000 A 
ATOM      8  O   UNL     1       6.931   5.376  14.766  0.00  0.00    +0.000 OA
ATOM      9  O   UNL     1       7.595   6.587  16.563  0.00  0.00    +0.000 OA
BRANCH   5  10
ATOM     10  O   UNL     1       5.742   3.905  19.137  0.00  0.00    +0.000 OA
ATOM     11  C   UNL     1       4.433   3.418  18.870  0.00  0.00    +0.000 C 
ENDBRANCH   5  10
ENDBRANCH   2   3
BRANCH   1  15
ATOM     12  C   UNL     1      10.308  12.605  19.299  0.00  0.00    +0.000 A 
ATOM     13  C   UNL     1       9.601  12.587  18.089  0.00  0.00    +0.000 A 
ATOM     14  C   UNL     1       8.896  11.449  17.700  0.00  0.00    +0.000 A 
ATOM     15  C   UNL     1       8.917  10.296  18.491  0.00  0.00    +0.000 A 
ATOM     16  C   UNL     1       9.643  10.308  19.687  0.00  0.00    +0.000 A 
ATOM     17  C   UNL     1      10.341  11.450  20.084  0.00  0.00    +0.000 A 
BRANCH  12  18
ATOM     18  C   UNL     1      10.937  13.885  19.792  0.00  0.00    +0.000 C 
BRANCH  18  19
ATOM     19  C   UNL     1      11.237  14.795  18.598  0.00  0.00    +0.000 C 
BRANCH  19  21
ATOM     20  C   UNL     1      11.531  17.258  18.352  0.00  0.00    +0.000 C 
ATOM     21  C   UNL     1      10.551  16.150  18.704  0.00  0.00    +0.000 C 
ENDBRANCH  19  21
ENDBRANCH  18  19
ENDBRANCH  12  18
ENDBRANCH   1  15
TORSDOF 6
ENDMDL
MODEL 6
REMARK VINA RESULT:      -7.1      3.304      8.636
REMARK  Name = 
REMARK  8 active torsions:
REMARK  status: ('A' for Active; 'I' for Inactive)
REMARK    1  A    between atoms: C_1  and  C_2
REMARK    2  A    between atoms: C_2  and  C_3
REMARK    3  A    between atoms: C_3  and  C_4
REMARK    4  A    between atoms: C_4  and  C_5
REMARK    5  A    between atoms: C_8  and  C_9
REMARK    6  A    between atoms: C_10  and  C_11
REMARK    7  A    between atoms: C_13  and  O_14
REMARK    8  A    between atoms: O_14  and  C_15
REMARK                            x       y       z     vdW  Elec       q    Type
REMARK                         _______ _______ _______ _____ _____    ______ ____
ROOT
ATOM      1  C   UNL     1       8.524   8.730  18.663  0.00  0.00    +0.000 C 
ATOM      2  C   UNL     1       7.969   8.260  17.535  0.00  0.00    +0.000 C 
ENDROOT
BRANCH   2   3
ATOM      3  C   UNL     1       7.413   6.930  17.393  0.00  0.00    +0.000 A 
ATOM      4  C   UNL     1       6.895   6.242  18.416  0.00  0.00    +0.000 A 
ATOM      5  C   UNL     1       6.371   4.922  18.193  0.00  0.00    +0.000 A 
ATOM      6  C   UNL     1       6.412   4.391  16.962  0.00  0.00    +0.000 A 
ATOM      7  C   UNL     1       6.987   5.139  15.838  0.00  0.00    +0.000 A 
ATOM      8  O   UNL     1       7.022   4.636  14.722  0.00  0.00    +0.000 OA
ATOM      9  O   UNL     1       7.467   6.389  16.089  0.00  0.00    +0.000 OA
BRANCH   5  10
ATOM     10  O   UNL     1       5.867   4.349  19.334  0.00  0.00    +0.000 OA
ATOM     11  C   UNL     1       4.717   3.524  19.197  0.00  0.00    +0.000 C 
ENDBRANCH   5  10
ENDBRANCH   2   3
BRANCH   1  15
ATOM     12  C   UNL     1      10.093  12.670  19.236  0.00  0.00    +0.000 A 
ATOM     13  C   UNL     1      10.187  11.695  20.238  0.00  0.00    +0.000 A 
ATOM     14  C   UNL     1       9.674  10.416  20.029  0.00  0.00    +0.000 A 
ATOM     15  C   UNL     1       9.023  10.099  18.833  0.00  0.00    +0.000 A 
ATOM     16  C   UNL     1       8.909  11.081  17.842  0.00  0.00    +0.000 A 
ATOM     17  C   UNL     1       9.431  12.360  18.045  0.00  0.00    +0.000 A 
BRANCH  12  18
ATOM     18  C   UNL     1      10.786  14.000  19.404  0.00  0.00    +0.000 C 
BRANCH  18  19
ATOM     19  C   UNL     1      10.571  14.846  18.147  0.00  0.00    +0.000 C 
BRANCH  19  21
ATOM     20  C   UNL     1      11.043  17.116  17.230  0.00  0.00    +0.000 C 
ATOM     21  C   UNL     1      10.545  16.339  18.439  0.00  0.00    +0.000 C 
ENDBRANCH  19  21
ENDBRANCH  18  19
ENDBRANCH  12  18
ENDBRANCH   1  15
TORSDOF 6
ENDMDL
MODEL 7
REMARK VINA RESULT:      -7.1      3.101      8.604
REMARK  Name = 
REMARK  8 active torsions:
REMARK  status: ('A' for Active; 'I' for Inactive)
REMARK    1  A    between atoms: C_1  and  C_2
REMARK    2  A    between atoms: C_2  and  C_3
REMARK    3  A    between atoms: C_3  and  C_4
REMARK    4  A    between atoms: C_4  and  C_5
REMARK    5  A    between atoms: C_8  and  C_9
REMARK    6  A    between atoms: C_10  and  C_11
REMARK    7  A    between atoms: C_13  and  O_14
REMARK    8  A    between atoms: O_14  and  C_15
REMARK                            x       y       z     vdW  Elec       q    Type
REMARK                         _______ _______ _______ _____ _____    ______ ____
ROOT
ATOM      1  C   UNL     1       8.642   8.760  18.671  0.00  0.00    +0.000 C 
ATOM      2  C   UNL     1       7.978   8.333  17.585  0.00  0.00    +0.000 C 
ENDROOT
BRANCH   2   3
ATOM      3  C   UNL     1       7.445   6.996  17.430  0.00  0.00    +0.000 A 
ATOM      4  C   UNL     1       6.945   6.286  18.448  0.00  0.00    +0.000 A 
ATOM      5  C   UNL     1       6.443   4.960  18.212  0.00  0.00    +0.000 A 
ATOM      6  C   UNL     1       6.486   4.445  16.975  0.00  0.00    +0.000 A 
ATOM      7  C   UNL     1       7.041   5.216  15.856  0.00  0.00    +0.000 A 
ATOM      8  O   UNL     1       7.078   4.727  14.734  0.00  0.00    +0.000 OA
ATOM      9  O   UNL     1       7.501   6.471  16.120  0.00  0.00    +0.000 OA
BRANCH   5  10
ATOM     10  O   UNL     1       5.956   4.364  19.349  0.00  0.00    +0.000 OA
ATOM     11  C   UNL     1       4.783   3.572  19.219  0.00  0.00    +0.000 C 
ENDBRANCH   5  10
ENDBRANCH   2   3
BRANCH   1  15
ATOM     12  C   UNL     1       9.914  12.816  19.167  0.00  0.00    +0.000 A 
ATOM     13  C   UNL     1       9.148  12.422  18.062  0.00  0.00    +0.000 A 
ATOM     14  C   UNL     1       8.740  11.096  17.922  0.00  0.00    +0.000 A 
ATOM     15  C   UNL     1       9.121  10.133  18.861  0.00  0.00    +0.000 A 
ATOM     16  C   UNL     1       9.906  10.524  19.952  0.00  0.00    +0.000 A 
ATOM     17  C   UNL     1      10.308  11.853  20.100  0.00  0.00    +0.000 A 
BRANCH  12  18
ATOM     18  C   UNL     1      10.220  14.277  19.397  0.00  0.00    +0.000 C 
BRANCH  18  19
ATOM     19  C   UNL     1      10.669  14.478  20.846  0.00  0.00    +0.000 C 
BRANCH  19  21
ATOM     20  C   UNL     1       8.996  14.077  22.651  0.00  0.00    +0.000 C 
ATOM     21  C   UNL     1       9.592  15.115  21.713  0.00  0.00    +0.000 C 
ENDBRANCH  19  21
ENDBRANCH  18  19
ENDBRANCH  12  18
ENDBRANCH   1  15
TORSDOF 6
ENDMDL
MODEL 8
REMARK VINA RESULT:      -7.1      5.932      7.587
REMARK  Name = 
REMARK  8 active torsions:
REMARK  status: ('A' for Active; 'I' for Inactive)
REMARK    1  A    between atoms: C_1  and  C_2
REMARK    2  A    between atoms: C_2  and  C_3
REMARK    3  A    between atoms: C_3  and  C_4
REMARK    4  A    between atoms: C_4  and  C_5
REMARK    5  A    between atoms: C_8  and  C_9
REMARK    6  A    between atoms: C_10  and  C_11
REMARK    7  A    between atoms: C_13  and  O_14
REMARK    8  A    between atoms: O_14  and  C_15
REMARK                            x       y       z     vdW  Elec       q    Type
REMARK                         _______ _______ _______ _____ _____    ______ ____
ROOT
ATOM      1  C   UNL     1       2.509   7.195  18.419  0.00  0.00    +0.000 C 
ATOM      2  C   UNL     1       2.104   8.402  17.994  0.00  0.00    +0.000 C 
ENDROOT
BRANCH   2   3
ATOM      3  C   UNL     1       1.193   9.260  18.722  0.00  0.00    +0.000 A 
ATOM      4  C   UNL     1       0.187   9.919  18.139  0.00  0.00    +0.000 A 
ATOM      5  C   UNL     1      -0.669  10.760  18.932  0.00  0.00    +0.000 A 
ATOM      6  C   UNL     1      -0.444  10.879  20.249  0.00  0.00    +0.000 A 
ATOM      7  C   UNL     1       0.664  10.164  20.892  0.00  0.00    +0.000 A 
ATOM      8  O   UNL     1       0.857  10.289  22.095  0.00  0.00    +0.000 OA
ATOM      9  O   UNL     1       1.447   9.373  20.107  0.00  0.00    +0.000 OA
BRANCH   5  10
ATOM     10  O   UNL     1      -1.658  11.361  18.195  0.00  0.00    +0.000 OA
ATOM     11  C   UNL     1      -2.588  10.511  17.535  0.00  0.00    +0.000 C 
ENDBRANCH   5  10
ENDBRANCH   2   3
BRANCH   1  15
ATOM     12  C   UNL     1       5.253   4.651  16.342  0.00  0.00    +0.000 A 
ATOM     13  C   UNL     1       4.183   4.123  17.077  0.00  0.00    +0.000 A 
ATOM     14  C   UNL     1       3.298   4.970  17.742  0.00  0.00    +0.000 A 
ATOM     15  C   UNL     1       3.486   6.355  17.718  0.00  0.00    +0.000 A 
ATOM     16  C   UNL     1       4.569   6.879  17.002  0.00  0.00    +0.000 A 
ATOM     17  C   UNL     1       5.451   6.034  16.327  0.00  0.00    +0.000 A 
BRANCH  12  18
ATOM     18  C   UNL     1       6.114   3.743  15.497  0.00  0.00    +0.000 C 
BRANCH  18  19
ATOM     19  C   UNL     1       6.290   4.362  14.108  0.00  0.00    +0.000 C 
BRANCH  19  21
ATOM     20  C   UNL     1       5.982   3.008  12.037  0.00  0.00    +0.000 C 
ATOM     21  C   UNL     1       5.277   3.839  13.098  0.00  0.00    +0.000 C 
ENDBRANCH  19  21
ENDBRANCH  18  19
ENDBRANCH  12  18
ENDBRANCH   1  15
TORSDOF 6
ENDMDL
MODEL 9
REMARK VINA RESULT:      -7.1      6.078      7.320
REMARK  Name = 
REMARK  8 active torsions:
REMARK  status: ('A' for Active; 'I' for Inactive)
REMARK    1  A    between atoms: C_1  and  C_2
REMARK    2  A    between atoms: C_2  and  C_3
REMARK    3  A    between atoms: C_3  and  C_4
REMARK    4  A    between atoms: C_4  and  C_5
REMARK    5  A    between atoms: C_8  and  C_9
REMARK    6  A    between atoms: C_10  and  C_11
REMARK    7  A    between atoms: C_13  and  O_14
REMARK    8  A    between atoms: O_14  and  C_15
REMARK                            x       y       z     vdW  Elec       q    Type
REMARK                         _______ _______ _______ _____ _____    ______ ____
ROOT
ATOM      1  C   UNL     1       2.333   7.282  18.512  0.00  0.00    +0.000 C 
ATOM      2  C   UNL     1       2.049   8.553  18.185  0.00  0.00    +0.000 C 
ENDROOT
BRANCH   2   3
ATOM      3  C   UNL     1       1.124   9.395  18.914  0.00  0.00    +0.000 A 
ATOM      4  C   UNL     1       1.192   9.579  20.237  0.00  0.00    +0.000 A 
ATOM      5  C   UNL     1       0.228  10.424  20.888  0.00  0.00    +0.000 A 
ATOM      6  C   UNL     1      -0.733  11.015  20.163  0.00  0.00    +0.000 A 
ATOM      7  C   UNL     1      -0.816  10.809  18.711  0.00  0.00    +0.000 A 
ATOM      8  O   UNL     1      -1.705  11.351  18.067  0.00  0.00    +0.000 OA
ATOM      9  O   UNL     1       0.119  10.006  18.132  0.00  0.00    +0.000 OA
BRANCH   5  10
ATOM     10  O   UNL     1       0.433  10.522  22.241  0.00  0.00    +0.000 OA
ATOM     11  C   UNL     1      -0.066   9.468  23.055  0.00  0.00    +0.000 C 
ENDBRANCH   5  10
ENDBRANCH   2   3
BRANCH   1  15
ATOM     12  C   UNL     1       5.322   4.956  16.519  0.00  0.00    +0.000 A 
ATOM     13  C   UNL     1       5.329   6.356  16.462  0.00  0.00    +0.000 A 
ATOM     14  C   UNL     1       4.349   7.094  17.123  0.00  0.00    +0.000 A 
ATOM     15  C   UNL     1       3.322   6.449  17.819  0.00  0.00    +0.000 A 
ATOM     16  C   UNL     1       3.303   5.051  17.855  0.00  0.00    +0.000 A 
ATOM     17  C   UNL     1       4.289   4.308  17.203  0.00  0.00    +0.000 A 
BRANCH  12  18
ATOM     18  C   UNL     1       6.469   4.166  15.937  0.00  0.00    +0.000 C 
BRANCH  18  19
ATOM     19  C   UNL     1       6.646   4.539  14.464  0.00  0.00    +0.000 C 
BRANCH  19  21
ATOM     20  C   UNL     1       6.207   3.392  12.294  0.00  0.00    +0.000 C 
ATOM     21  C   UNL     1       5.576   3.927  13.570  0.00  0.00    +0.000 C 
ENDBRANCH  19  21
ENDBRANCH  18  19
ENDBRANCH  12  18
ENDBRANCH   1  15
TORSDOF 6
ENDMDL
