MODEL 1
REMARK VINA RESULT:      -7.7      0.000      0.000
REMARK  Name = 
REMARK  6 active torsions:
REMARK  status: ('A' for Active; 'I' for Inactive)
REMARK    1  A    between atoms: C_1  and  N_2
REMARK    2  A    between atoms: C_4  and  C_5
REMARK    3  A    between atoms: C_5  and  N_6
REMARK    4  A    between atoms: N_6  and  C_7
REMARK    5  A    between atoms: C_10  and  N_11
REMARK    6  A    between atoms: C_15  and  C_16
REMARK                            x       y       z     vdW  Elec       q    Type
REMARK                         _______ _______ _______ _____ _____    ______ ____
ROOT
ATOM      1  C   UNL     1       1.411   9.230  19.073  0.00  0.00    +0.000 A 
ATOM      2  C   UNL     1       1.457   8.343  20.155  0.00  0.00    +0.000 A 
ATOM      3  C   UNL     1       2.156   7.136  20.082  0.00  0.00    +0.000 A 
ATOM      4  C   UNL     1       2.831   6.787  18.908  0.00  0.00    +0.000 A 
ATOM      5  C   UNL     1       2.770   7.644  17.806  0.00  0.00    +0.000 A 
ATOM      6  C   UNL     1       2.060   8.854  17.895  0.00  0.00    +0.000 A 
ENDROOT
BRANCH   4   7
ATOM      7  N   UNL     1       3.486   5.529  18.843  0.00  0.00    +0.000 N 
ATOM      8  N   UNL     1       4.849   5.510  18.886  0.00  0.00    +0.000 NA
ATOM      9  C   UNL     1       5.169   4.235  19.096  0.00  0.00    +0.000 A 
ATOM     10  C   UNL     1       4.052   3.401  19.043  0.00  0.00    +0.000 A 
ATOM     11  C   UNL     1       2.983   4.245  18.797  0.00  0.00    +0.000 A 
BRANCH  11  12
ATOM     12  C   UNL     1       1.602   3.893  18.440  0.00  0.00    +0.000 C 
ATOM     13  F   UNL     1       1.401   2.597  18.116  0.00  0.00    +0.000 F 
ATOM     14  F   UNL     1       0.758   4.152  19.474  0.00  0.00    +0.000 F 
ATOM     15  F   UNL     1       1.164   4.637  17.393  0.00  0.00    +0.000 F 
ENDBRANCH  11  12
ENDBRANCH   4   7
BRANCH   1  16
ATOM     16  N   UNL     1       0.589  10.352  19.180  0.00  0.00    +0.000 N 
ATOM     17  H   UNL     1       0.735  11.020  18.432  0.00  0.00    +0.000 HD
BRANCH  16  18
ATOM     18  C   UNL     1      -0.827  10.218  19.507  0.00  0.00    +0.000 C 
BRANCH  18  22
ATOM     19  C   UNL     1      -3.069  10.306  15.014  0.00  0.00    +0.000 C 
ATOM     20  N   UNL     1      -2.713  10.544  16.392  0.00  0.00    +0.000 N 
ATOM     21  C   UNL     1      -1.704   9.955  17.093  0.00  0.00    +0.000 A 
ATOM     22  C   UNL     1      -1.724  10.519  18.353  0.00  0.00    +0.000 A 
ATOM     23  C   UNL     1      -2.807  11.424  18.305  0.00  0.00    +0.000 A 
ATOM     24  N   UNL     1      -3.407  11.444  17.113  0.00  0.00    +0.000 NA
ENDBRANCH  18  22
ENDBRANCH  16  18
ENDBRANCH   1  16
TORSDOF 5
ENDMDL
MODEL 2
REMARK VINA RESULT:      -7.5      0.276      1.305
REMARK  Name = 
REMARK  6 active torsions:
REMARK  status: ('A' for Active; 'I' for Inactive)
REMARK    1  A    between atoms: C_1  and  N_2
REMARK    2  A    between atoms: C_4  and  C_5
REMARK    3  A    between atoms: C_5  and  N_6
REMARK    4  A    between atoms: N_6  and  C_7
REMARK    5  A    between atoms: C_10  and  N_11
REMARK    6  A    between atoms: C_15  and  C_16
REMARK                            x       y       z     vdW  Elec       q    Type
REMARK                         _______ _______ _______ _____ _____    ______ ____
ROOT
ATOM      1  C   UNL     1       1.357   9.100  19.241  0.00  0.00    +0.000 A 
ATOM      2  C   UNL     1       2.041   8.777  18.064  0.00  0.00    +0.000 A 
ATOM      3  C   UNL     1       2.735   7.573  17.928  0.00  0.00    +0.000 A 
ATOM      4  C   UNL     1       2.760   6.656  18.983  0.00  0.00    +0.000 A 
ATOM      5  C   UNL     1       2.111   6.974  20.179  0.00  0.00    +0.000 A 
ATOM      6  C   UNL     1       1.418   8.192  20.301  0.00  0.00    +0.000 A 
ENDROOT
BRANCH   4   7
ATOM      7  N   UNL     1       3.520   5.465  18.837  0.00  0.00    +0.000 N 
ATOM      8  N   UNL     1       4.880   5.567  18.823  0.00  0.00    +0.000 NA
ATOM      9  C   UNL     1       5.320   4.319  18.965  0.00  0.00    +0.000 A 
ATOM     10  C   UNL     1       4.279   3.391  18.921  0.00  0.00    +0.000 A 
ATOM     11  C   UNL     1       3.130   4.144  18.756  0.00  0.00    +0.000 A 
BRANCH  11  12
ATOM     12  C   UNL     1       1.771   3.685  18.440  0.00  0.00    +0.000 C 
ATOM     13  F   UNL     1       0.850   3.896  19.406  0.00  0.00    +0.000 F 
ATOM     14  F   UNL     1       1.297   4.314  17.332  0.00  0.00    +0.000 F 
ATOM     15  F   UNL     1       1.756   2.357  18.162  0.00  0.00    +0.000 F 
ENDBRANCH  11  12
ENDBRANCH   4   7
BRANCH   1  16
ATOM     16  N   UNL     1       0.797  10.374  19.345  0.00  0.00    +0.000 N 
ATOM     17  H   UNL     1       1.039  10.975  18.566  0.00  0.00    +0.000 HD
BRANCH  16  18
ATOM     18  C   UNL     1      -0.596  10.551  19.742  0.00  0.00    +0.000 C 
BRANCH  18  22
ATOM     19  C   UNL     1      -2.846  10.097  15.275  0.00  0.00    +0.000 C 
ATOM     20  N   UNL     1      -2.515  10.463  16.631  0.00  0.00    +0.000 N 
ATOM     21  C   UNL     1      -1.445  10.037  17.358  0.00  0.00    +0.000 A 
ATOM     22  C   UNL     1      -1.524  10.675  18.581  0.00  0.00    +0.000 A 
ATOM     23  C   UNL     1      -2.701  11.449  18.484  0.00  0.00    +0.000 A 
ATOM     24  N   UNL     1      -3.303  11.324  17.299  0.00  0.00    +0.000 NA
ENDBRANCH  18  22
ENDBRANCH  16  18
ENDBRANCH   1  16
TORSDOF 5
ENDMDL
MODEL 3
REMARK VINA RESULT:      -7.4      0.745      1.360
REMARK  Name = 
REMARK  6 active torsions:
REMARK  status: ('A' for Active; 'I' for Inactive)
REMARK    1  A    between atoms: C_1  and  N_2
REMARK    2  A    between atoms: C_4  and  C_5
REMARK    3  A    between atoms: C_5  and  N_6
REMARK    4  A    between atoms: N_6  and  C_7
REMARK    5  A    between atoms: C_10  and  N_11
REMARK    6  A    between atoms: C_15  and  C_16
REMARK                            x       y       z     vdW  Elec       q    Type
REMARK                         _______ _______ _______ _____ _____    ______ ____
ROOT
ATOM      1  C   UNL     1       1.173   9.052  19.590  0.00  0.00    +0.000 A 
ATOM      2  C   UNL     1       1.329   8.089  20.593  0.00  0.00    +0.000 A 
ATOM      3  C   UNL     1       2.085   6.932  20.386  0.00  0.00    +0.000 A 
ATOM      4  C   UNL     1       2.707   6.714  19.153  0.00  0.00    +0.000 A 
ATOM      5  C   UNL     1       2.537   7.648  18.128  0.00  0.00    +0.000 A 
ATOM      6  C   UNL     1       1.770   8.806  18.352  0.00  0.00    +0.000 A 
ENDROOT
BRANCH   4   7
ATOM      7  N   UNL     1       3.423   5.504  18.953  0.00  0.00    +0.000 N 
ATOM      8  N   UNL     1       4.786   5.551  18.978  0.00  0.00    +0.000 NA
ATOM      9  C   UNL     1       5.172   4.279  19.053  0.00  0.00    +0.000 A 
ATOM     10  C   UNL     1       4.097   3.399  18.927  0.00  0.00    +0.000 A 
ATOM     11  C   UNL     1       2.984   4.207  18.781  0.00  0.00    +0.000 A 
BRANCH  11  12
ATOM     12  C   UNL     1       1.617   3.824  18.405  0.00  0.00    +0.000 C 
ATOM     13  F   UNL     1       0.683   3.992  19.367  0.00  0.00    +0.000 F 
ATOM     14  F   UNL     1       1.189   4.555  17.341  0.00  0.00    +0.000 F 
ATOM     15  F   UNL     1       1.561   2.523  18.021  0.00  0.00    +0.000 F 
ENDBRANCH  11  12
ENDBRANCH   4   7
BRANCH   1  16
ATOM     16  N   UNL     1       0.300  10.113  19.831  0.00  0.00    +0.000 N 
ATOM     17  H   UNL     1       0.466  10.564  20.724  0.00  0.00    +0.000 HD
BRANCH  16  18
ATOM     18  C   UNL     1      -0.001  11.090  18.790  0.00  0.00    +0.000 C 
BRANCH  18  22
ATOM     19  C   UNL     1      -4.803  11.574  17.400  0.00  0.00    +0.000 C 
ATOM     20  N   UNL     1      -3.443  11.117  17.557  0.00  0.00    +0.000 N 
ATOM     21  C   UNL     1      -2.461  11.701  18.299  0.00  0.00    +0.000 A 
ATOM     22  C   UNL     1      -1.347  10.894  18.176  0.00  0.00    +0.000 A 
ATOM     23  C   UNL     1      -1.770   9.859  17.314  0.00  0.00    +0.000 A 
ATOM     24  N   UNL     1      -3.044   9.990  16.940  0.00  0.00    +0.000 NA
ENDBRANCH  18  22
ENDBRANCH  16  18
ENDBRANCH   1  16
TORSDOF 5
ENDMDL
MODEL 4
REMARK VINA RESULT:      -7.3      0.821      1.599
REMARK  Name = 
REMARK  6 active torsions:
REMARK  status: ('A' for Active; 'I' for Inactive)
REMARK    1  A    between atoms: C_1  and  N_2
REMARK    2  A    between atoms: C_4  and  C_5
REMARK    3  A    between atoms: C_5  and  N_6
REMARK    4  A    between atoms: N_6  and  C_7
REMARK    5  A    between atoms: C_10  and  N_11
REMARK    6  A    between atoms: C_15  and  C_16
REMARK                            x       y       z     vdW  Elec       q    Type
REMARK                         _______ _______ _______ _____ _____    ______ ____
ROOT
ATOM      1  C   UNL     1       1.220   9.086  19.642  0.00  0.00    +0.000 A 
ATOM      2  C   UNL     1       1.837   8.802  18.419  0.00  0.00    +0.000 A 
ATOM      3  C   UNL     1       2.516   7.599  18.204  0.00  0.00    +0.000 A 
ATOM      4  C   UNL     1       2.592   6.646  19.223  0.00  0.00    +0.000 A 
ATOM      5  C   UNL     1       2.010   6.925  20.463  0.00  0.00    +0.000 A 
ATOM      6  C   UNL     1       1.332   8.141  20.664  0.00  0.00    +0.000 A 
ENDROOT
BRANCH   4   7
ATOM      7  N   UNL     1       3.335   5.458  18.995  0.00  0.00    +0.000 N 
ATOM      8  N   UNL     1       4.697   5.540  18.999  0.00  0.00    +0.000 NA
ATOM      9  C   UNL     1       5.117   4.278  19.051  0.00  0.00    +0.000 A 
ATOM     10  C   UNL     1       4.063   3.372  18.930  0.00  0.00    +0.000 A 
ATOM     11  C   UNL     1       2.927   4.153  18.813  0.00  0.00    +0.000 A 
BRANCH  11  12
ATOM     12  C   UNL     1       1.564   3.738  18.454  0.00  0.00    +0.000 C 
ATOM     13  F   UNL     1       1.425   2.438  18.113  0.00  0.00    +0.000 F 
ATOM     14  F   UNL     1       0.711   3.942  19.493  0.00  0.00    +0.000 F 
ATOM     15  F   UNL     1       1.087   4.473  17.418  0.00  0.00    +0.000 F 
ENDBRANCH  11  12
ENDBRANCH   4   7
BRANCH   1  16
ATOM     16  N   UNL     1       0.673  10.357  19.820  0.00  0.00    +0.000 N 
ATOM     17  H   UNL     1       1.184  10.914  20.495  0.00  0.00    +0.000 HD
BRANCH  16  18
ATOM     18  C   UNL     1       0.251  11.160  18.677  0.00  0.00    +0.000 C 
BRANCH  18  22
ATOM     19  C   UNL     1      -4.744  11.453  18.247  0.00  0.00    +0.000 C 
ATOM     20  N   UNL     1      -3.359  11.078  18.102  0.00  0.00    +0.000 N 
ATOM     21  C   UNL     1      -2.284  11.648  18.715  0.00  0.00    +0.000 A 
ATOM     22  C   UNL     1      -1.175  10.937  18.300  0.00  0.00    +0.000 A 
ATOM     23  C   UNL     1      -1.701   9.970  17.416  0.00  0.00    +0.000 A 
ATOM     24  N   UNL     1      -3.029  10.051  17.297  0.00  0.00    +0.000 NA
ENDBRANCH  18  22
ENDBRANCH  16  18
ENDBRANCH   1  16
TORSDOF 5
ENDMDL
MODEL 5
REMARK VINA RESULT:      -7.3      3.753      4.897
REMARK  Name = 
REMARK  6 active torsions:
REMARK  status: ('A' for Active; 'I' for Inactive)
REMARK    1  A    between atoms: C_1  and  N_2
REMARK    2  A    between atoms: C_4  and  C_5
REMARK    3  A    between atoms: C_5  and  N_6
REMARK    4  A    between atoms: N_6  and  C_7
REMARK    5  A    between atoms: C_10  and  N_11
REMARK    6  A    between atoms: C_15  and  C_16
REMARK                            x       y       z     vdW  Elec       q    Type
REMARK                         _______ _______ _______ _____ _____    ______ ____
ROOT
ATOM      1  C   UNL     1       2.329   6.791  19.690  0.00  0.00    +0.000 A 
ATOM      2  C   UNL     1       2.838   7.421  18.549  0.00  0.00    +0.000 A 
ATOM      3  C   UNL     1       3.775   6.795  17.723  0.00  0.00    +0.000 A 
ATOM      4  C   UNL     1       4.227   5.508  18.027  0.00  0.00    +0.000 A 
ATOM      5  C   UNL     1       3.755   4.874  19.180  0.00  0.00    +0.000 A 
ATOM      6  C   UNL     1       2.815   5.519  20.003  0.00  0.00    +0.000 A 
ENDROOT
BRANCH   4   7
ATOM      7  N   UNL     1       5.220   4.919  17.201  0.00  0.00    +0.000 N 
ATOM      8  N   UNL     1       4.811   4.128  16.168  0.00  0.00    +0.000 NA
ATOM      9  C   UNL     1       5.897   3.956  15.416  0.00  0.00    +0.000 A 
ATOM     10  C   UNL     1       7.036   4.492  16.016  0.00  0.00    +0.000 A 
ATOM     11  C   UNL     1       6.595   5.039  17.208  0.00  0.00    +0.000 A 
BRANCH  11  12
ATOM     12  C   UNL     1       7.391   5.548  18.332  0.00  0.00    +0.000 C 
ATOM     13  F   UNL     1       6.737   5.633  19.512  0.00  0.00    +0.000 F 
ATOM     14  F   UNL     1       8.466   4.748  18.561  0.00  0.00    +0.000 F 
ATOM     15  F   UNL     1       7.884   6.784  18.062  0.00  0.00    +0.000 F 
ENDBRANCH  11  12
ENDBRANCH   4   7
BRANCH   1  16
ATOM     16  N   UNL     1       1.496   7.529  20.530  0.00  0.00    +0.000 N 
ATOM     17  H   UNL     1       1.717   7.406  21.512  0.00  0.00    +0.000 HD
BRANCH  16  18
ATOM     18  C   UNL     1       1.167   8.919  20.230  0.00  0.00    +0.000 C 
BRANCH  18  22
ATOM     19  C   UNL     1      -1.774  11.919  22.981  0.00  0.00    +0.000 C 
ATOM     20  N   UNL     1      -0.834  10.912  22.551  0.00  0.00    +0.000 N 
ATOM     21  C   UNL     1      -0.487  10.607  21.270  0.00  0.00    +0.000 A 
ATOM     22  C   UNL     1       0.464   9.609  21.351  0.00  0.00    +0.000 A 
ATOM     23  C   UNL     1       0.597   9.376  22.737  0.00  0.00    +0.000 A 
ATOM     24  N   UNL     1      -0.189  10.169  23.469  0.00  0.00    +0.000 NA
ENDBRANCH  18  22
ENDBRANCH  16  18
ENDBRANCH   1  16
TORSDOF 5
ENDMDL
MODEL 6
REMARK VINA RESULT:      -7.2      2.306      3.264
REMARK  Name = 
REMARK  6 active torsions:
REMARK  status: ('A' for Active; 'I' for Inactive)
REMARK    1  A    between atoms: C_1  and  N_2
REMARK    2  A    between atoms: C_4  and  C_5
REMARK    3  A    between atoms: C_5  and  N_6
REMARK    4  A    between atoms: N_6  and  C_7
REMARK    5  A    between atoms: C_10  and  N_11
REMARK    6  A    between atoms: C_15  and  C_16
REMARK                            x       y       z     vdW  Elec       q    Type
REMARK                         _______ _______ _______ _____ _____    ______ ____
ROOT
ATOM      1  C   UNL     1       1.377   9.137  19.183  0.00  0.00    +0.000 A 
ATOM      2  C   UNL     1       1.457   8.231  20.245  0.00  0.00    +0.000 A 
ATOM      3  C   UNL     1       2.166   7.032  20.133  0.00  0.00    +0.000 A 
ATOM      4  C   UNL     1       2.817   6.713  18.937  0.00  0.00    +0.000 A 
ATOM      5  C   UNL     1       2.722   7.590  17.853  0.00  0.00    +0.000 A 
ATOM      6  C   UNL     1       2.002   8.792  17.983  0.00  0.00    +0.000 A 
ENDROOT
BRANCH   4   7
ATOM      7  N   UNL     1       3.483   5.463  18.833  0.00  0.00    +0.000 N 
ATOM      8  N   UNL     1       4.846   5.455  18.880  0.00  0.00    +0.000 NA
ATOM      9  C   UNL     1       5.176   4.176  19.049  0.00  0.00    +0.000 A 
ATOM     10  C   UNL     1       4.066   3.335  18.964  0.00  0.00    +0.000 A 
ATOM     11  C   UNL     1       2.991   4.177  18.742  0.00  0.00    +0.000 A 
BRANCH  11  12
ATOM     12  C   UNL     1       1.615   3.826  18.368  0.00  0.00    +0.000 C 
ATOM     13  F   UNL     1       1.096   4.534  17.340  0.00  0.00    +0.000 F 
ATOM     14  F   UNL     1       1.537   2.521  17.996  0.00  0.00    +0.000 F 
ATOM     15  F   UNL     1       0.769   3.975  19.419  0.00  0.00    +0.000 F 
ENDBRANCH  11  12
ENDBRANCH   4   7
BRANCH   1  16
ATOM     16  N   UNL     1       0.547  10.248  19.331  0.00  0.00    +0.000 N 
ATOM     17  H   UNL     1      -0.438  10.009  19.314  0.00  0.00    +0.000 HD
BRANCH  16  18
ATOM     18  C   UNL     1       0.830  11.270  20.334  0.00  0.00    +0.000 C 
BRANCH  18  22
ATOM     19  C   UNL     1      -3.008  12.343  23.389  0.00  0.00    +0.000 C 
ATOM     20  N   UNL     1      -1.847  11.743  22.779  0.00  0.00    +0.000 N 
ATOM     21  C   UNL     1      -1.246  12.116  21.615  0.00  0.00    +0.000 A 
ATOM     22  C   UNL     1      -0.158  11.282  21.452  0.00  0.00    +0.000 A 
ATOM     23  C   UNL     1      -0.213  10.426  22.574  0.00  0.00    +0.000 A 
ATOM     24  N   UNL     1      -1.237  10.707  23.384  0.00  0.00    +0.000 NA
ENDBRANCH  18  22
ENDBRANCH  16  18
ENDBRANCH   1  16
TORSDOF 5
ENDMDL
MODEL 7
REMARK VINA RESULT:      -7.2      5.188      7.361
REMARK  Name = 
REMARK  6 active torsions:
REMARK  status: ('A' for Active; 'I' for Inactive)
REMARK    1  A    between atoms: C_1  and  N_2
REMARK    2  A    between atoms: C_4  and  C_5
REMARK    3  A    between atoms: C_5  and  N_6
REMARK    4  A    between atoms: N_6  and  C_7
REMARK    5  A    between atoms: C_10  and  N_11
REMARK    6  A    between atoms: C_15  and  C_16
REMARK                            x       y       z     vdW  Elec       q    Type
REMARK                         _______ _______ _______ _____ _____    ______ ____
ROOT
ATOM      1  C   UNL     1       5.524   5.576  17.115  0.00  0.00    +0.000 A 
ATOM      2  C   UNL     1       4.201   6.009  17.259  0.00  0.00    +0.000 A 
ATOM      3  C   UNL     1       3.337   5.427  18.189  0.00  0.00    +0.000 A 
ATOM      4  C   UNL     1       3.786   4.384  19.005  0.00  0.00    +0.000 A 
ATOM      5  C   UNL     1       5.095   3.916  18.855  0.00  0.00    +0.000 A 
ATOM      6  C   UNL     1       5.951   4.512  17.911  0.00  0.00    +0.000 A 
ENDROOT
BRANCH   4   7
ATOM      7  N   UNL     1       2.871   3.774  19.903  0.00  0.00    +0.000 N 
ATOM      8  N   UNL     1       3.158   3.807  21.236  0.00  0.00    +0.000 NA
ATOM      9  C   UNL     1       2.031   3.436  21.839  0.00  0.00    +0.000 A 
ATOM     10  C   UNL     1       1.063   3.018  20.925  0.00  0.00    +0.000 A 
ATOM     11  C   UNL     1       1.652   3.166  19.682  0.00  0.00    +0.000 A 
BRANCH  11  12
ATOM     12  C   UNL     1       1.174   2.687  18.379  0.00  0.00    +0.000 C 
ATOM     13  F   UNL     1       0.078   1.897  18.420  0.00  0.00    +0.000 F 
ATOM     14  F   UNL     1       0.847   3.732  17.574  0.00  0.00    +0.000 F 
ATOM     15  F   UNL     1       2.140   1.991  17.728  0.00  0.00    +0.000 F 
ENDBRANCH  11  12
ENDBRANCH   4   7
BRANCH   1  16
ATOM     16  N   UNL     1       6.282   6.121  16.079  0.00  0.00    +0.000 N 
ATOM     17  H   UNL     1       6.519   7.095  16.233  0.00  0.00    +0.000 HD
BRANCH  16  18
ATOM     18  C   UNL     1       7.403   5.386  15.502  0.00  0.00    +0.000 C 
BRANCH  18  22
ATOM     19  C   UNL     1       5.404   2.648  11.797  0.00  0.00    +0.000 C 
ATOM     20  N   UNL     1       6.195   3.583  12.560  0.00  0.00    +0.000 N 
ATOM     21  C   UNL     1       6.110   3.832  13.896  0.00  0.00    +0.000 A 
ATOM     22  C   UNL     1       7.082   4.771  14.181  0.00  0.00    +0.000 A 
ATOM     23  C   UNL     1       7.680   5.033  12.929  0.00  0.00    +0.000 A 
ATOM     24  N   UNL     1       7.145   4.309  11.943  0.00  0.00    +0.000 NA
ENDBRANCH  18  22
ENDBRANCH  16  18
ENDBRANCH   1  16
TORSDOF 5
ENDMDL
MODEL 8
REMARK VINA RESULT:      -7.2      0.857      1.228
REMARK  Name = 
REMARK  6 active torsions:
REMARK  status: ('A' for Active; 'I' for Inactive)
REMARK    1  A    between atoms: C_1  and  N_2
REMARK    2  A    between atoms: C_4  and  C_5
REMARK    3  A    between atoms: C_5  and  N_6
REMARK    4  A    between atoms: N_6  and  C_7
REMARK    5  A    between atoms: C_10  and  N_11
REMARK    6  A    between atoms: C_15  and  C_16
REMARK                            x       y       z     vdW  Elec       q    Type
REMARK                         _______ _______ _______ _____ _____    ______ ____
ROOT
ATOM      1  C   UNL     1       1.277   9.064  19.533  0.00  0.00    +0.000 A 
ATOM      2  C   UNL     1       1.433   8.089  20.525  0.00  0.00    +0.000 A 
ATOM      3  C   UNL     1       2.161   6.919  20.293  0.00  0.00    +0.000 A 
ATOM      4  C   UNL     1       2.755   6.699  19.047  0.00  0.00    +0.000 A 
ATOM      5  C   UNL     1       2.584   7.646  18.033  0.00  0.00    +0.000 A 
ATOM      6  C   UNL     1       1.846   8.817  18.282  0.00  0.00    +0.000 A 
ENDROOT
BRANCH   4   7
ATOM      7  N   UNL     1       3.441   5.477  18.822  0.00  0.00    +0.000 N 
ATOM      8  N   UNL     1       4.805   5.498  18.804  0.00  0.00    +0.000 NA
ATOM      9  C   UNL     1       5.170   4.220  18.865  0.00  0.00    +0.000 A 
ATOM     10  C   UNL     1       4.075   3.360  18.773  0.00  0.00    +0.000 A 
ATOM     11  C   UNL     1       2.973   4.188  18.663  0.00  0.00    +0.000 A 
BRANCH  11  12
ATOM     12  C   UNL     1       1.587   3.831  18.330  0.00  0.00    +0.000 C 
ATOM     13  F   UNL     1       1.042   4.522  17.304  0.00  0.00    +0.000 F 
ATOM     14  F   UNL     1       1.501   2.520  17.980  0.00  0.00    +0.000 F 
ATOM     15  F   UNL     1       0.769   3.996  19.399  0.00  0.00    +0.000 F 
ENDBRANCH  11  12
ENDBRANCH   4   7
BRANCH   1  16
ATOM     16  N   UNL     1       0.432  10.141  19.800  0.00  0.00    +0.000 N 
ATOM     17  H   UNL     1       0.606  10.563  20.705  0.00  0.00    +0.000 HD
BRANCH  16  18
ATOM     18  C   UNL     1       0.160  11.153  18.785  0.00  0.00    +0.000 C 
BRANCH  18  22
ATOM     19  C   UNL     1      -4.432  11.339  16.761  0.00  0.00    +0.000 C 
ATOM     20  N   UNL     1      -3.308  11.429  17.660  0.00  0.00    +0.000 N 
ATOM     21  C   UNL     1      -2.020  11.063  17.406  0.00  0.00    +0.000 A 
ATOM     22  C   UNL     1      -1.297  11.363  18.543  0.00  0.00    +0.000 A 
ATOM     23  C   UNL     1      -2.260  11.888  19.431  0.00  0.00    +0.000 A 
ATOM     24  N   UNL     1      -3.483  11.933  18.896  0.00  0.00    +0.000 NA
ENDBRANCH  18  22
ENDBRANCH  16  18
ENDBRANCH   1  16
TORSDOF 5
ENDMDL
MODEL 9
REMARK VINA RESULT:      -7.2      5.101      7.702
REMARK  Name = 
REMARK  6 active torsions:
REMARK  status: ('A' for Active; 'I' for Inactive)
REMARK    1  A    between atoms: C_1  and  N_2
REMARK    2  A    between atoms: C_4  and  C_5
REMARK    3  A    between atoms: C_5  and  N_6
REMARK    4  A    between atoms: N_6  and  C_7
REMARK    5  A    between atoms: C_10  and  N_11
REMARK    6  A    between atoms: C_15  and  C_16
REMARK                            x       y       z     vdW  Elec       q    Type
REMARK                         _______ _______ _______ _____ _____    ______ ____
ROOT
ATOM      1  C   UNL     1       7.303   6.900  18.066  0.00  0.00    +0.000 A 
ATOM      2  C   UNL     1       7.235   5.866  19.006  0.00  0.00    +0.000 A 
ATOM      3  C   UNL     1       6.195   4.934  18.995  0.00  0.00    +0.000 A 
ATOM      4  C   UNL     1       5.187   5.020  18.030  0.00  0.00    +0.000 A 
ATOM      5  C   UNL     1       5.220   6.065  17.102  0.00  0.00    +0.000 A 
ATOM      6  C   UNL     1       6.273   6.997  17.128  0.00  0.00    +0.000 A 
ENDROOT
BRANCH   4   7
ATOM      7  N   UNL     1       4.114   4.093  18.077  0.00  0.00    +0.000 N 
ATOM      8  N   UNL     1       4.235   2.932  17.371  0.00  0.00    +0.000 NA
ATOM      9  C   UNL     1       3.249   2.155  17.815  0.00  0.00    +0.000 A 
ATOM     10  C   UNL     1       2.399   2.838  18.685  0.00  0.00    +0.000 A 
ATOM     11  C   UNL     1       2.926   4.113  18.779  0.00  0.00    +0.000 A 
BRANCH  11  12
ATOM     12  C   UNL     1       2.329   5.309  19.388  0.00  0.00    +0.000 C 
ATOM     13  F   UNL     1       3.139   6.002  20.219  0.00  0.00    +0.000 F 
ATOM     14  F   UNL     1       1.939   6.192  18.431  0.00  0.00    +0.000 F 
ATOM     15  F   UNL     1       1.214   4.993  20.094  0.00  0.00    +0.000 F 
ENDBRANCH  11  12
ENDBRANCH   4   7
BRANCH   1  16
ATOM     16  N   UNL     1       8.300   7.863  18.222  0.00  0.00    +0.000 N 
ATOM     17  H   UNL     1       9.210   7.542  17.909  0.00  0.00    +0.000 HD
BRANCH  16  18
ATOM     18  C   UNL     1       8.068   9.254  17.846  0.00  0.00    +0.000 C 
BRANCH  18  22
ATOM     19  C   UNL     1      11.490  12.816  18.750  0.00  0.00    +0.000 C 
ATOM     20  N   UNL     1      10.504  11.772  18.890  0.00  0.00    +0.000 N 
ATOM     21  C   UNL     1       9.821  11.149  17.890  0.00  0.00    +0.000 A 
ATOM     22  C   UNL     1       9.018  10.203  18.496  0.00  0.00    +0.000 A 
ATOM     23  C   UNL     1       9.285  10.362  19.873  0.00  0.00    +0.000 A 
ATOM     24  N   UNL     1      10.190  11.312  20.115  0.00  0.00    +0.000 NA
ENDBRANCH  18  22
ENDBRANCH  16  18
ENDBRANCH   1  16
TORSDOF 5
ENDMDL
