MODEL 1
REMARK VINA RESULT:      -5.9      0.000      0.000
REMARK  Name = 
REMARK  10 active torsions:
REMARK  status: ('A' for Active; 'I' for Inactive)
REMARK    1  A    between atoms: C_2  and  C_3
REMARK    2  A    between atoms: C_3  and  C_4
REMARK    3  A    between atoms: C_8  and  O_9
REMARK    4  A    between atoms: O_9  and  C_10
REMARK    5  A    between atoms: C_10  and  C_11
REMARK    6  A    between atoms: C_11  and  C_12
REMARK    7  A    between atoms: C_13  and  O_14
REMARK    8  A    between atoms: O_14  and  C_15
REMARK    9  A    between atoms: C_15  and  C_16
REMARK   10  A    between atoms: C_16  and  C_17
REMARK                            x       y       z     vdW  Elec       q    Type
REMARK                         _______ _______ _______ _____ _____    ______ ____
ROOT
ATOM      1  C   UNL     1       4.318   4.209  17.112  0.00  0.00    +0.000 A 
ATOM      2  C   UNL     1       3.128   3.448  17.010  0.00  0.00    +0.000 A 
ATOM      3  C   UNL     1       2.005   3.721  17.788  0.00  0.00    +0.000 A 
ATOM      4  C   UNL     1       2.033   4.792  18.665  0.00  0.00    +0.000 A 
ATOM      5  C   UNL     1       3.185   5.579  18.790  0.00  0.00    +0.000 A 
ATOM      6  C   UNL     1       4.356   5.270  18.052  0.00  0.00    +0.000 A 
ENDROOT
BRANCH   1   7
ATOM      7  C   UNL     1       5.418   3.799  16.149  0.00  0.00    +0.000 C 
BRANCH   7   9
ATOM      8  C   UNL     1       6.199   4.117  13.805  0.00  0.00    +0.000 C 
ATOM      9  C   UNL     1       5.450   4.528  14.838  0.00  0.00    +0.000 C 
ENDBRANCH   7   9
ENDBRANCH   1   7
BRANCH   5  10
ATOM     10  O   UNL     1       3.020   6.612  19.684  0.00  0.00    +0.000 OA
BRANCH  10  11
ATOM     11  C   UNL     1       2.022   7.575  19.346  0.00  0.00    +0.000 C 
BRANCH  11  12
ATOM     12  C   UNL     1       2.468   8.367  18.120  0.00  0.00    +0.000 C 
ATOM     13  C   UNL     1       1.445   9.437  17.775  0.00  0.00    +0.000 C 
ENDBRANCH  11  12
ENDBRANCH  10  11
ENDBRANCH   5  10
BRANCH   6  14
ATOM     14  O   UNL     1       5.464   5.988  18.427  0.00  0.00    +0.000 OA
BRANCH  14  15
ATOM     15  C   UNL     1       6.462   5.414  19.256  0.00  0.00    +0.000 C 
BRANCH  15  16
ATOM     16  C   UNL     1       7.829   5.958  18.849  0.00  0.00    +0.000 C 
ATOM     17  C   UNL     1       7.676   7.087  17.846  0.00  0.00    +0.000 C 
ENDBRANCH  15  16
ENDBRANCH  14  15
ENDBRANCH   6  14
TORSDOF 8
ENDMDL
MODEL 2
REMARK VINA RESULT:      -5.8      1.757      4.179
REMARK  Name = 
REMARK  10 active torsions:
REMARK  status: ('A' for Active; 'I' for Inactive)
REMARK    1  A    between atoms: C_2  and  C_3
REMARK    2  A    between atoms: C_3  and  C_4
REMARK    3  A    between atoms: C_8  and  O_9
REMARK    4  A    between atoms: O_9  and  C_10
REMARK    5  A    between atoms: C_10  and  C_11
REMARK    6  A    between atoms: C_11  and  C_12
REMARK    7  A    between atoms: C_13  and  O_14
REMARK    8  A    between atoms: O_14  and  C_15
REMARK    9  A    between atoms: C_15  and  C_16
REMARK   10  A    between atoms: C_16  and  C_17
REMARK                            x       y       z     vdW  Elec       q    Type
REMARK                         _______ _______ _______ _____ _____    ______ ____
ROOT
ATOM      1  C   UNL     1       4.768   6.333  17.719  0.00  0.00    +0.000 A 
ATOM      2  C   UNL     1       3.931   7.426  17.386  0.00  0.00    +0.000 A 
ATOM      3  C   UNL     1       2.751   7.693  18.077  0.00  0.00    +0.000 A 
ATOM      4  C   UNL     1       2.396   6.890  19.147  0.00  0.00    +0.000 A 
ATOM      5  C   UNL     1       3.201   5.805  19.519  0.00  0.00    +0.000 A 
ATOM      6  C   UNL     1       4.370   5.484  18.783  0.00  0.00    +0.000 A 
ENDROOT
BRANCH   1   7
ATOM      7  C   UNL     1       6.038   6.231  16.892  0.00  0.00    +0.000 C 
BRANCH   7   9
ATOM      8  C   UNL     1       7.830   6.414  18.612  0.00  0.00    +0.000 C 
ATOM      9  C   UNL     1       7.262   6.865  17.485  0.00  0.00    +0.000 C 
ENDBRANCH   7   9
ENDBRANCH   1   7
BRANCH   5  10
ATOM     10  O   UNL     1       2.709   5.140  20.619  0.00  0.00    +0.000 OA
BRANCH  10  11
ATOM     11  C   UNL     1       1.327   4.785  20.566  0.00  0.00    +0.000 C 
BRANCH  11  12
ATOM     12  C   UNL     1       1.164   3.307  20.908  0.00  0.00    +0.000 C 
ATOM     13  C   UNL     1       2.450   2.752  21.498  0.00  0.00    +0.000 C 
ENDBRANCH  11  12
ENDBRANCH  10  11
ENDBRANCH   5  10
BRANCH   6  14
ATOM     14  O   UNL     1       4.939   4.283  19.124  0.00  0.00    +0.000 OA
BRANCH  14  15
ATOM     15  C   UNL     1       4.668   3.106  18.380  0.00  0.00    +0.000 C 
BRANCH  15  16
ATOM     16  C   UNL     1       3.461   3.348  17.477  0.00  0.00    +0.000 C 
ATOM     17  C   UNL     1       2.409   2.277  17.696  0.00  0.00    +0.000 C 
ENDBRANCH  15  16
ENDBRANCH  14  15
ENDBRANCH   6  14
TORSDOF 8
ENDMDL
MODEL 3
REMARK VINA RESULT:      -5.8      1.858      3.747
REMARK  Name = 
REMARK  10 active torsions:
REMARK  status: ('A' for Active; 'I' for Inactive)
REMARK    1  A    between atoms: C_2  and  C_3
REMARK    2  A    between atoms: C_3  and  C_4
REMARK    3  A    between atoms: C_8  and  O_9
REMARK    4  A    between atoms: O_9  and  C_10
REMARK    5  A    between atoms: C_10  and  C_11
REMARK    6  A    between atoms: C_11  and  C_12
REMARK    7  A    between atoms: C_13  and  O_14
REMARK    8  A    between atoms: O_14  and  C_15
REMARK    9  A    between atoms: C_15  and  C_16
REMARK   10  A    between atoms: C_16  and  C_17
REMARK                            x       y       z     vdW  Elec       q    Type
REMARK                         _______ _______ _______ _____ _____    ______ ____
ROOT
ATOM      1  C   UNL     1       4.495   6.255  17.446  0.00  0.00    +0.000 A 
ATOM      2  C   UNL     1       3.761   7.464  17.368  0.00  0.00    +0.000 A 
ATOM      3  C   UNL     1       2.734   7.766  18.258  0.00  0.00    +0.000 A 
ATOM      4  C   UNL     1       2.437   6.877  19.277  0.00  0.00    +0.000 A 
ATOM      5  C   UNL     1       3.145   5.675  19.400  0.00  0.00    +0.000 A 
ATOM      6  C   UNL     1       4.149   5.326  18.461  0.00  0.00    +0.000 A 
ENDROOT
BRANCH   1   7
ATOM      7  C   UNL     1       5.612   6.123  16.426  0.00  0.00    +0.000 C 
BRANCH   7   9
ATOM      8  C   UNL     1       6.075   4.152  14.975  0.00  0.00    +0.000 C 
ATOM      9  C   UNL     1       5.329   5.230  15.253  0.00  0.00    +0.000 C 
ENDBRANCH   7   9
ENDBRANCH   1   7
BRANCH   5  10
ATOM     10  O   UNL     1       2.735   4.933  20.485  0.00  0.00    +0.000 OA
BRANCH  10  11
ATOM     11  C   UNL     1       1.328   4.712  20.592  0.00  0.00    +0.000 C 
BRANCH  11  12
ATOM     12  C   UNL     1       1.042   3.213  20.570  0.00  0.00    +0.000 C 
ATOM     13  C   UNL     1       0.549   2.786  19.197  0.00  0.00    +0.000 C 
ENDBRANCH  11  12
ENDBRANCH  10  11
ENDBRANCH   5  10
BRANCH   6  14
ATOM     14  O   UNL     1       4.608   4.038  18.577  0.00  0.00    +0.000 OA
BRANCH  14  15
ATOM     15  C   UNL     1       3.992   2.975  17.868  0.00  0.00    +0.000 C 
BRANCH  15  16
ATOM     16  C   UNL     1       3.921   1.743  18.768  0.00  0.00    +0.000 C 
ATOM     17  C   UNL     1       4.530   2.040  20.126  0.00  0.00    +0.000 C 
ENDBRANCH  15  16
ENDBRANCH  14  15
ENDBRANCH   6  14
TORSDOF 8
ENDMDL
MODEL 4
REMARK VINA RESULT:      -5.8      1.669      4.075
REMARK  Name = 
REMARK  10 active torsions:
REMARK  status: ('A' for Active; 'I' for Inactive)
REMARK    1  A    between atoms: C_2  and  C_3
REMARK    2  A    between atoms: C_3  and  C_4
REMARK    3  A    between atoms: C_8  and  O_9
REMARK    4  A    between atoms: O_9  and  C_10
REMARK    5  A    between atoms: C_10  and  C_11
REMARK    6  A    between atoms: C_11  and  C_12
REMARK    7  A    between atoms: C_13  and  O_14
REMARK    8  A    between atoms: O_14  and  C_15
REMARK    9  A    between atoms: C_15  and  C_16
REMARK   10  A    between atoms: C_16  and  C_17
REMARK                            x       y       z     vdW  Elec       q    Type
REMARK                         _______ _______ _______ _____ _____    ______ ____
ROOT
ATOM      1  C   UNL     1       4.616   6.645  17.511  0.00  0.00    +0.000 A 
ATOM      2  C   UNL     1       3.622   7.623  17.760  0.00  0.00    +0.000 A 
ATOM      3  C   UNL     1       2.494   7.355  18.532  0.00  0.00    +0.000 A 
ATOM      4  C   UNL     1       2.350   6.104  19.107  0.00  0.00    +0.000 A 
ATOM      5  C   UNL     1       3.314   5.110  18.898  0.00  0.00    +0.000 A 
ATOM      6  C   UNL     1       4.433   5.350  18.061  0.00  0.00    +0.000 A 
ENDROOT
BRANCH   1   7
ATOM      7  C   UNL     1       5.798   7.134  16.693  0.00  0.00    +0.000 C 
BRANCH   7   9
ATOM      8  C   UNL     1       7.847   8.179  17.649  0.00  0.00    +0.000 C 
ATOM      9  C   UNL     1       7.136   7.078  17.372  0.00  0.00    +0.000 C 
ENDBRANCH   7   9
ENDBRANCH   1   7
BRANCH   5  10
ATOM     10  O   UNL     1       3.021   3.944  19.570  0.00  0.00    +0.000 OA
BRANCH  10  11
ATOM     11  C   UNL     1       1.861   3.242  19.121  0.00  0.00    +0.000 C 
BRANCH  11  12
ATOM     12  C   UNL     1       0.882   3.077  20.279  0.00  0.00    +0.000 C 
ATOM     13  C   UNL     1       1.619   2.679  21.548  0.00  0.00    +0.000 C 
ENDBRANCH  11  12
ENDBRANCH  10  11
ENDBRANCH   5  10
BRANCH   6  14
ATOM     14  O   UNL     1       5.177   4.232  17.778  0.00  0.00    +0.000 OA
BRANCH  14  15
ATOM     15  C   UNL     1       4.959   3.490  16.588  0.00  0.00    +0.000 C 
BRANCH  15  16
ATOM     16  C   UNL     1       6.131   3.712  15.635  0.00  0.00    +0.000 C 
ATOM     17  C   UNL     1       5.646   4.306  14.324  0.00  0.00    +0.000 C 
ENDBRANCH  15  16
ENDBRANCH  14  15
ENDBRANCH   6  14
TORSDOF 8
ENDMDL
MODEL 5
REMARK VINA RESULT:      -5.7      1.735      5.823
REMARK  Name = 
REMARK  10 active torsions:
REMARK  status: ('A' for Active; 'I' for Inactive)
REMARK    1  A    between atoms: C_2  and  C_3
REMARK    2  A    between atoms: C_3  and  C_4
REMARK    3  A    between atoms: C_8  and  O_9
REMARK    4  A    between atoms: O_9  and  C_10
REMARK    5  A    between atoms: C_10  and  C_11
REMARK    6  A    between atoms: C_11  and  C_12
REMARK    7  A    between atoms: C_13  and  O_14
REMARK    8  A    between atoms: O_14  and  C_15
REMARK    9  A    between atoms: C_15  and  C_16
REMARK   10  A    between atoms: C_16  and  C_17
REMARK                            x       y       z     vdW  Elec       q    Type
REMARK                         _______ _______ _______ _____ _____    ______ ____
ROOT
ATOM      1  C   UNL     1       4.976   5.191  18.442  0.00  0.00    +0.000 A 
ATOM      2  C   UNL     1       6.274   5.640  18.790  0.00  0.00    +0.000 A 
ATOM      3  C   UNL     1       7.393   5.342  18.016  0.00  0.00    +0.000 A 
ATOM      4  C   UNL     1       7.235   4.614  16.849  0.00  0.00    +0.000 A 
ATOM      5  C   UNL     1       5.968   4.160  16.460  0.00  0.00    +0.000 A 
ATOM      6  C   UNL     1       4.832   4.401  17.273  0.00  0.00    +0.000 A 
ENDROOT
BRANCH   1   7
ATOM      7  C   UNL     1       3.871   5.657  19.375  0.00  0.00    +0.000 C 
BRANCH   7   9
ATOM      8  C   UNL     1       2.402   7.613  18.910  0.00  0.00    +0.000 C 
ATOM      9  C   UNL     1       2.694   6.319  18.721  0.00  0.00    +0.000 C 
ENDBRANCH   7   9
ENDBRANCH   1   7
BRANCH   5  10
ATOM     10  O   UNL     1       5.999   3.482  15.262  0.00  0.00    +0.000 OA
BRANCH  10  11
ATOM     11  C   UNL     1       5.725   4.263  14.098  0.00  0.00    +0.000 C 
BRANCH  11  12
ATOM     12  C   UNL     1       6.187   3.507  12.855  0.00  0.00    +0.000 C 
ATOM     13  C   UNL     1       5.025   3.302  11.896  0.00  0.00    +0.000 C 
ENDBRANCH  11  12
ENDBRANCH  10  11
ENDBRANCH   5  10
BRANCH   6  14
ATOM     14  O   UNL     1       3.704   3.724  16.881  0.00  0.00    +0.000 OA
BRANCH  14  15
ATOM     15  C   UNL     1       3.245   2.589  17.599  0.00  0.00    +0.000 C 
BRANCH  15  16
ATOM     16  C   UNL     1       1.839   2.863  18.128  0.00  0.00    +0.000 C 
ATOM     17  C   UNL     1       1.625   2.165  19.459  0.00  0.00    +0.000 C 
ENDBRANCH  15  16
ENDBRANCH  14  15
ENDBRANCH   6  14
TORSDOF 8
ENDMDL
MODEL 6
REMARK VINA RESULT:      -5.7      1.425      4.884
REMARK  Name = 
REMARK  10 active torsions:
REMARK  status: ('A' for Active; 'I' for Inactive)
REMARK    1  A    between atoms: C_2  and  C_3
REMARK    2  A    between atoms: C_3  and  C_4
REMARK    3  A    between atoms: C_8  and  O_9
REMARK    4  A    between atoms: O_9  and  C_10
REMARK    5  A    between atoms: C_10  and  C_11
REMARK    6  A    between atoms: C_11  and  C_12
REMARK    7  A    between atoms: C_13  and  O_14
REMARK    8  A    between atoms: O_14  and  C_15
REMARK    9  A    between atoms: C_15  and  C_16
REMARK   10  A    between atoms: C_16  and  C_17
REMARK                            x       y       z     vdW  Elec       q    Type
REMARK                         _______ _______ _______ _____ _____    ______ ____
ROOT
ATOM      1  C   UNL     1       2.339   3.936  18.292  0.00  0.00    +0.000 A 
ATOM      2  C   UNL     1       3.088   2.814  17.861  0.00  0.00    +0.000 A 
ATOM      3  C   UNL     1       4.322   2.946  17.229  0.00  0.00    +0.000 A 
ATOM      4  C   UNL     1       4.857   4.209  17.045  0.00  0.00    +0.000 A 
ATOM      5  C   UNL     1       4.156   5.347  17.466  0.00  0.00    +0.000 A 
ATOM      6  C   UNL     1       2.870   5.229  18.051  0.00  0.00    +0.000 A 
ENDROOT
BRANCH   1   7
ATOM      7  C   UNL     1       1.043   3.598  19.008  0.00  0.00    +0.000 C 
BRANCH   7   9
ATOM      8  C   UNL     1       1.697   2.941  21.320  0.00  0.00    +0.000 C 
ATOM      9  C   UNL     1       1.048   3.778  20.498  0.00  0.00    +0.000 C 
ENDBRANCH   7   9
ENDBRANCH   1   7
BRANCH   5  10
ATOM     10  O   UNL     1       4.853   6.510  17.228  0.00  0.00    +0.000 OA
BRANCH  10  11
ATOM     11  C   UNL     1       6.159   6.352  16.674  0.00  0.00    +0.000 C 
BRANCH  11  12
ATOM     12  C   UNL     1       7.163   7.160  17.490  0.00  0.00    +0.000 C 
ATOM     13  C   UNL     1       7.750   6.311  18.606  0.00  0.00    +0.000 C 
ENDBRANCH  11  12
ENDBRANCH  10  11
ENDBRANCH   5  10
BRANCH   6  14
ATOM     14  O   UNL     1       2.216   6.423  18.219  0.00  0.00    +0.000 OA
BRANCH  14  15
ATOM     15  C   UNL     1       2.317   7.148  19.435  0.00  0.00    +0.000 C 
BRANCH  15  16
ATOM     16  C   UNL     1       1.796   8.567  19.220  0.00  0.00    +0.000 C 
ATOM     17  C   UNL     1       2.022   9.006  17.785  0.00  0.00    +0.000 C 
ENDBRANCH  15  16
ENDBRANCH  14  15
ENDBRANCH   6  14
TORSDOF 8
ENDMDL
MODEL 7
REMARK VINA RESULT:      -5.7      1.850      4.356
REMARK  Name = 
REMARK  10 active torsions:
REMARK  status: ('A' for Active; 'I' for Inactive)
REMARK    1  A    between atoms: C_2  and  C_3
REMARK    2  A    between atoms: C_3  and  C_4
REMARK    3  A    between atoms: C_8  and  O_9
REMARK    4  A    between atoms: O_9  and  C_10
REMARK    5  A    between atoms: C_10  and  C_11
REMARK    6  A    between atoms: C_11  and  C_12
REMARK    7  A    between atoms: C_13  and  O_14
REMARK    8  A    between atoms: O_14  and  C_15
REMARK    9  A    between atoms: C_15  and  C_16
REMARK   10  A    between atoms: C_16  and  C_17
REMARK                            x       y       z     vdW  Elec       q    Type
REMARK                         _______ _______ _______ _____ _____    ______ ____
ROOT
ATOM      1  C   UNL     1       5.088   6.144  17.018  0.00  0.00    +0.000 A 
ATOM      2  C   UNL     1       4.170   7.109  17.501  0.00  0.00    +0.000 A 
ATOM      3  C   UNL     1       2.911   6.759  17.981  0.00  0.00    +0.000 A 
ATOM      4  C   UNL     1       2.550   5.423  18.024  0.00  0.00    +0.000 A 
ATOM      5  C   UNL     1       3.430   4.434  17.568  0.00  0.00    +0.000 A 
ATOM      6  C   UNL     1       4.689   4.783  17.016  0.00  0.00    +0.000 A 
ENDROOT
BRANCH   1   7
ATOM      7  C   UNL     1       6.431   6.706  16.585  0.00  0.00    +0.000 C 
BRANCH   7   9
ATOM      8  C   UNL     1       7.971   8.244  17.795  0.00  0.00    +0.000 C 
ATOM      9  C   UNL     1       7.391   7.041  17.689  0.00  0.00    +0.000 C 
ENDBRANCH   7   9
ENDBRANCH   1   7
BRANCH   5  10
ATOM     10  O   UNL     1       2.916   3.165  17.714  0.00  0.00    +0.000 OA
BRANCH  10  11
ATOM     11  C   UNL     1       1.570   3.089  18.184  0.00  0.00    +0.000 C 
BRANCH  11  12
ATOM     12  C   UNL     1       1.521   2.266  19.468  0.00  0.00    +0.000 C 
ATOM     13  C   UNL     1       1.128   3.141  20.647  0.00  0.00    +0.000 C 
ENDBRANCH  11  12
ENDBRANCH  10  11
ENDBRANCH   5  10
BRANCH   6  14
ATOM     14  O   UNL     1       5.353   3.740  16.420  0.00  0.00    +0.000 OA
BRANCH  14  15
ATOM     15  C   UNL     1       6.224   3.959  15.321  0.00  0.00    +0.000 C 
BRANCH  15  16
ATOM     16  C   UNL     1       5.402   4.051  14.038  0.00  0.00    +0.000 C 
ATOM     17  C   UNL     1       6.225   3.604  12.844  0.00  0.00    +0.000 C 
ENDBRANCH  15  16
ENDBRANCH  14  15
ENDBRANCH   6  14
TORSDOF 8
ENDMDL
MODEL 8
REMARK VINA RESULT:      -5.7      2.663      4.926
REMARK  Name = 
REMARK  10 active torsions:
REMARK  status: ('A' for Active; 'I' for Inactive)
REMARK    1  A    between atoms: C_2  and  C_3
REMARK    2  A    between atoms: C_3  and  C_4
REMARK    3  A    between atoms: C_8  and  O_9
REMARK    4  A    between atoms: O_9  and  C_10
REMARK    5  A    between atoms: C_10  and  C_11
REMARK    6  A    between atoms: C_11  and  C_12
REMARK    7  A    between atoms: C_13  and  O_14
REMARK    8  A    between atoms: O_14  and  C_15
REMARK    9  A    between atoms: C_15  and  C_16
REMARK   10  A    between atoms: C_16  and  C_17
REMARK                            x       y       z     vdW  Elec       q    Type
REMARK                         _______ _______ _______ _____ _____    ______ ____
ROOT
ATOM      1  C   UNL     1       5.156   4.654  17.358  0.00  0.00    +0.000 A 
ATOM      2  C   UNL     1       5.386   4.422  18.737  0.00  0.00    +0.000 A 
ATOM      3  C   UNL     1       6.404   5.065  19.437  0.00  0.00    +0.000 A 
ATOM      4  C   UNL     1       7.198   5.989  18.780  0.00  0.00    +0.000 A 
ATOM      5  C   UNL     1       6.999   6.259  17.420  0.00  0.00    +0.000 A 
ATOM      6  C   UNL     1       6.009   5.563  16.681  0.00  0.00    +0.000 A 
ENDROOT
BRANCH   1   7
ATOM      7  C   UNL     1       3.970   3.904  16.777  0.00  0.00    +0.000 C 
BRANCH   7   9
ATOM      8  C   UNL     1       1.989   2.959  17.954  0.00  0.00    +0.000 C 
ATOM      9  C   UNL     1       2.680   4.027  17.533  0.00  0.00    +0.000 C 
ENDBRANCH   7   9
ENDBRANCH   1   7
BRANCH   5  10
ATOM     10  O   UNL     1       7.859   7.224  16.945  0.00  0.00    +0.000 OA
BRANCH  10  11
ATOM     11  C   UNL     1       7.632   8.550  17.422  0.00  0.00    +0.000 C 
BRANCH  11  12
ATOM     12  C   UNL     1       8.686   8.907  18.466  0.00  0.00    +0.000 C 
ATOM     13  C   UNL     1       8.998  10.394  18.420  0.00  0.00    +0.000 C 
ENDBRANCH  11  12
ENDBRANCH  10  11
ENDBRANCH   5  10
BRANCH   6  14
ATOM     14  O   UNL     1       6.066   5.772  15.326  0.00  0.00    +0.000 OA
BRANCH  14  15
ATOM     15  C   UNL     1       6.829   4.921  14.485  0.00  0.00    +0.000 C 
BRANCH  15  16
ATOM     16  C   UNL     1       5.893   3.956  13.762  0.00  0.00    +0.000 C 
ATOM     17  C   UNL     1       6.470   3.564  12.414  0.00  0.00    +0.000 C 
ENDBRANCH  15  16
ENDBRANCH  14  15
ENDBRANCH   6  14
TORSDOF 8
ENDMDL
MODEL 9
REMARK VINA RESULT:      -5.7      1.991      5.277
REMARK  Name = 
REMARK  10 active torsions:
REMARK  status: ('A' for Active; 'I' for Inactive)
REMARK    1  A    between atoms: C_2  and  C_3
REMARK    2  A    between atoms: C_3  and  C_4
REMARK    3  A    between atoms: C_8  and  O_9
REMARK    4  A    between atoms: O_9  and  C_10
REMARK    5  A    between atoms: C_10  and  C_11
REMARK    6  A    between atoms: C_11  and  C_12
REMARK    7  A    between atoms: C_13  and  O_14
REMARK    8  A    between atoms: O_14  and  C_15
REMARK    9  A    between atoms: C_15  and  C_16
REMARK   10  A    between atoms: C_16  and  C_17
REMARK                            x       y       z     vdW  Elec       q    Type
REMARK                         _______ _______ _______ _____ _____    ______ ____
ROOT
ATOM      1  C   UNL     1       3.243   5.630  19.410  0.00  0.00    +0.000 A 
ATOM      2  C   UNL     1       2.923   6.836  18.739  0.00  0.00    +0.000 A 
ATOM      3  C   UNL     1       3.671   7.306  17.663  0.00  0.00    +0.000 A 
ATOM      4  C   UNL     1       4.742   6.559  17.204  0.00  0.00    +0.000 A 
ATOM      5  C   UNL     1       5.087   5.354  17.829  0.00  0.00    +0.000 A 
ATOM      6  C   UNL     1       4.374   4.897  18.967  0.00  0.00    +0.000 A 
ENDROOT
BRANCH   1   7
ATOM      7  C   UNL     1       2.285   5.249  20.525  0.00  0.00    +0.000 C 
BRANCH   7   9
ATOM      8  C   UNL     1       1.056   3.111  20.872  0.00  0.00    +0.000 C 
ATOM      9  C   UNL     1       1.232   4.240  20.172  0.00  0.00    +0.000 C 
ENDBRANCH   7   9
ENDBRANCH   1   7
BRANCH   5  10
ATOM     10  O   UNL     1       6.156   4.734  17.221  0.00  0.00    +0.000 OA
BRANCH  10  11
ATOM     11  C   UNL     1       6.372   5.069  15.850  0.00  0.00    +0.000 C 
BRANCH  11  12
ATOM     12  C   UNL     1       6.232   3.817  14.989  0.00  0.00    +0.000 C 
ATOM     13  C   UNL     1       5.447   4.126  13.724  0.00  0.00    +0.000 C 
ENDBRANCH  11  12
ENDBRANCH  10  11
ENDBRANCH   5  10
BRANCH   6  14
ATOM     14  O   UNL     1       4.948   3.823  19.599  0.00  0.00    +0.000 OA
BRANCH  14  15
ATOM     15  C   UNL     1       4.363   2.532  19.525  0.00  0.00    +0.000 C 
BRANCH  15  16
ATOM     16  C   UNL     1       4.087   2.187  18.063  0.00  0.00    +0.000 C 
ATOM     17  C   UNL     1       2.599   1.997  17.833  0.00  0.00    +0.000 C 
ENDBRANCH  15  16
ENDBRANCH  14  15
ENDBRANCH   6  14
TORSDOF 8
ENDMDL
