MODEL 1
REMARK VINA RESULT:      -7.4      0.000      0.000
REMARK  Name = 
REMARK  9 active torsions:
REMARK  status: ('A' for Active; 'I' for Inactive)
REMARK    1  A    between atoms: C_1  and  C_2
REMARK    2  A    between atoms: C_2  and  N_3
REMARK    3  A    between atoms: C_7  and  C_8
REMARK    4  A    between atoms: C_8  and  N_9
REMARK    5  A    between atoms: C_10  and  C_12
REMARK    6  A    between atoms: C_14  and  S_15
REMARK    7  A    between atoms: S_15  and  C_16
REMARK    8  A    between atoms: C_21  and  O_22
REMARK    9  A    between atoms: O_22  and  C_23
REMARK                            x       y       z     vdW  Elec       q    Type
REMARK                         _______ _______ _______ _____ _____    ______ ____
ROOT
ATOM      1  N   UNL     1       2.265   7.363  19.891  0.00  0.00    +0.000 N 
ATOM      2  C   UNL     1       2.303   5.979  19.906  0.00  0.00    +0.000 C 
ATOM      3  O   UNL     1       1.780   5.311  20.790  0.00  0.00    +0.000 OA
ATOM      4  H   UNL     1       2.756   7.901  19.189  0.00  0.00    +0.000 HD
ENDROOT
BRANCH   2   5
ATOM      5  C   UNL     1       3.055   5.315  18.797  0.00  0.00    +0.000 A 
ATOM      6  C   UNL     1       4.397   5.725  18.627  0.00  0.00    +0.000 A 
ATOM      7  C   UNL     1       5.209   5.143  17.644  0.00  0.00    +0.000 A 
ATOM      8  C   UNL     1       4.718   4.126  16.835  0.00  0.00    +0.000 A 
ATOM      9  C   UNL     1       3.403   3.703  17.014  0.00  0.00    +0.000 A 
ATOM     10  C   UNL     1       2.547   4.291  17.973  0.00  0.00    +0.000 A 
BRANCH   7  11
ATOM     11  S   UNL     1       6.829   5.801  17.321  0.00  0.00    +0.000 S 
ATOM     12  C   UNL     1       7.587   5.922  18.918  0.00  0.00    +0.000 C 
ATOM     13  O   UNL     1       7.551   4.804  16.555  0.00  0.00    +0.000 OA
ATOM     14  O   UNL     1       6.647   7.139  16.808  0.00  0.00    +0.000 OA
ENDBRANCH   7  11
BRANCH  10  15
ATOM     15  O   UNL     1       1.310   3.718  17.880  0.00  0.00    +0.000 OA
ATOM     16  C   UNL     1       0.949   2.586  18.647  0.00  0.00    +0.000 C 
ENDBRANCH  10  15
ENDBRANCH   2   5
BRANCH   1  17
ATOM     17  C   UNL     1       1.537   8.145  20.889  0.00  0.00    +0.000 C 
BRANCH  17  22
ATOM     18  N   UNL     1       0.617  10.490  21.092  0.00  0.00    +0.000 NA
ATOM     19  C   UNL     1       1.286  11.517  20.262  0.00  0.00    +0.000 C 
ATOM     20  C   UNL     1       0.962  11.140  18.830  0.00  0.00    +0.000 C 
ATOM     21  C   UNL     1       1.107   9.635  18.863  0.00  0.00    +0.000 C 
ATOM     22  C   UNL     1       0.633   9.242  20.270  0.00  0.00    +0.000 C 
BRANCH  18  24
ATOM     23  C   UNL     1      -1.066  11.109  22.904  0.00  0.00    +0.000 C 
ATOM     24  C   UNL     1      -0.747  10.966  21.421  0.00  0.00    +0.000 C 
ENDBRANCH  18  24
ENDBRANCH  17  22
ENDBRANCH   1  17
TORSDOF 6
ENDMDL
MODEL 2
REMARK VINA RESULT:      -7.2      1.560      2.012
REMARK  Name = 
REMARK  9 active torsions:
REMARK  status: ('A' for Active; 'I' for Inactive)
REMARK    1  A    between atoms: C_1  and  C_2
REMARK    2  A    between atoms: C_2  and  N_3
REMARK    3  A    between atoms: C_7  and  C_8
REMARK    4  A    between atoms: C_8  and  N_9
REMARK    5  A    between atoms: C_10  and  C_12
REMARK    6  A    between atoms: C_14  and  S_15
REMARK    7  A    between atoms: S_15  and  C_16
REMARK    8  A    between atoms: C_21  and  O_22
REMARK    9  A    between atoms: O_22  and  C_23
REMARK                            x       y       z     vdW  Elec       q    Type
REMARK                         _______ _______ _______ _____ _____    ______ ____
ROOT
ATOM      1  N   UNL     1       2.543   8.372  17.705  0.00  0.00    +0.000 N 
ATOM      2  C   UNL     1       2.746   7.296  18.552  0.00  0.00    +0.000 C 
ATOM      3  O   UNL     1       2.468   7.331  19.745  0.00  0.00    +0.000 OA
ATOM      4  H   UNL     1       2.837   8.349  16.737  0.00  0.00    +0.000 HD
ENDROOT
BRANCH   2   5
ATOM      5  C   UNL     1       3.364   6.074  17.952  0.00  0.00    +0.000 A 
ATOM      6  C   UNL     1       4.722   6.189  17.576  0.00  0.00    +0.000 A 
ATOM      7  C   UNL     1       5.415   5.095  17.039  0.00  0.00    +0.000 A 
ATOM      8  C   UNL     1       4.787   3.864  16.894  0.00  0.00    +0.000 A 
ATOM      9  C   UNL     1       3.456   3.741  17.284  0.00  0.00    +0.000 A 
ATOM     10  C   UNL     1       2.718   4.831  17.798  0.00  0.00    +0.000 A 
BRANCH   7  11
ATOM     11  S   UNL     1       7.060   5.310  16.399  0.00  0.00    +0.000 S 
ATOM     12  C   UNL     1       6.940   4.838  14.696  0.00  0.00    +0.000 C 
ATOM     13  O   UNL     1       7.360   6.727  16.454  0.00  0.00    +0.000 OA
ATOM     14  O   UNL     1       7.903   4.350  17.074  0.00  0.00    +0.000 OA
ENDBRANCH   7  11
BRANCH  10  15
ATOM     15  O   UNL     1       1.434   4.430  18.035  0.00  0.00    +0.000 OA
ATOM     16  C   UNL     1       1.078   3.702  19.194  0.00  0.00    +0.000 C 
ENDBRANCH  10  15
ENDBRANCH   2   5
BRANCH   1  17
ATOM     17  C   UNL     1       1.915   9.618  18.143  0.00  0.00    +0.000 C 
BRANCH  17  22
ATOM     18  N   UNL     1       0.371  10.101  20.085  0.00  0.00    +0.000 NA
ATOM     19  C   UNL     1      -0.622  11.176  19.863  0.00  0.00    +0.000 C 
ATOM     20  C   UNL     1      -1.559  10.637  18.800  0.00  0.00    +0.000 C 
ATOM     21  C   UNL     1      -0.597   9.957  17.852  0.00  0.00    +0.000 C 
ATOM     22  C   UNL     1       0.510   9.411  18.766  0.00  0.00    +0.000 C 
BRANCH  18  24
ATOM     23  C   UNL     1       0.680   9.231  22.461  0.00  0.00    +0.000 C 
ATOM     24  C   UNL     1      -0.125   9.219  21.166  0.00  0.00    +0.000 C 
ENDBRANCH  18  24
ENDBRANCH  17  22
ENDBRANCH   1  17
TORSDOF 6
ENDMDL
MODEL 3
REMARK VINA RESULT:      -7.1      1.242      2.159
REMARK  Name = 
REMARK  9 active torsions:
REMARK  status: ('A' for Active; 'I' for Inactive)
REMARK    1  A    between atoms: C_1  and  C_2
REMARK    2  A    between atoms: C_2  and  N_3
REMARK    3  A    between atoms: C_7  and  C_8
REMARK    4  A    between atoms: C_8  and  N_9
REMARK    5  A    between atoms: C_10  and  C_12
REMARK    6  A    between atoms: C_14  and  S_15
REMARK    7  A    between atoms: S_15  and  C_16
REMARK    8  A    between atoms: C_21  and  O_22
REMARK    9  A    between atoms: O_22  and  C_23
REMARK                            x       y       z     vdW  Elec       q    Type
REMARK                         _______ _______ _______ _____ _____    ______ ____
ROOT
ATOM      1  N   UNL     1       2.273   7.022  20.185  0.00  0.00    +0.000 N 
ATOM      2  C   UNL     1       2.275   5.638  20.144  0.00  0.00    +0.000 C 
ATOM      3  O   UNL     1       1.573   4.953  20.878  0.00  0.00    +0.000 OA
ATOM      4  H   UNL     1       2.905   7.571  19.616  0.00  0.00    +0.000 HD
ENDROOT
BRANCH   2   5
ATOM      5  C   UNL     1       3.212   4.995  19.173  0.00  0.00    +0.000 A 
ATOM      6  C   UNL     1       4.579   5.325  19.322  0.00  0.00    +0.000 A 
ATOM      7  C   UNL     1       5.552   4.751  18.492  0.00  0.00    +0.000 A 
ATOM      8  C   UNL     1       5.196   3.820  17.525  0.00  0.00    +0.000 A 
ATOM      9  C   UNL     1       3.853   3.475  17.390  0.00  0.00    +0.000 A 
ATOM     10  C   UNL     1       2.842   4.058  18.187  0.00  0.00    +0.000 A 
BRANCH   7  11
ATOM     11  S   UNL     1       7.236   5.319  18.569  0.00  0.00    +0.000 S 
ATOM     12  C   UNL     1       7.234   6.841  17.662  0.00  0.00    +0.000 C 
ATOM     13  O   UNL     1       7.523   5.623  19.958  0.00  0.00    +0.000 OA
ATOM     14  O   UNL     1       8.037   4.363  17.841  0.00  0.00    +0.000 OA
ENDBRANCH   7  11
BRANCH  10  15
ATOM     15  O   UNL     1       1.627   3.575  17.792  0.00  0.00    +0.000 OA
ATOM     16  C   UNL     1       0.901   2.644  18.572  0.00  0.00    +0.000 C 
ENDBRANCH  10  15
ENDBRANCH   2   5
BRANCH   1  17
ATOM     17  C   UNL     1       1.384   7.787  21.057  0.00  0.00    +0.000 C 
BRANCH  17  22
ATOM     18  N   UNL     1       0.256   9.495  19.574  0.00  0.00    +0.000 NA
ATOM     19  C   UNL     1      -0.836  10.270  20.204  0.00  0.00    +0.000 C 
ATOM     20  C   UNL     1      -0.160  11.121  21.261  0.00  0.00    +0.000 C 
ATOM     21  C   UNL     1       0.841  10.152  21.848  0.00  0.00    +0.000 C 
ATOM     22  C   UNL     1       1.265   9.280  20.656  0.00  0.00    +0.000 C 
BRANCH  18  24
ATOM     23  C   UNL     1       2.118   9.808  17.862  0.00  0.00    +0.000 C 
ATOM     24  C   UNL     1       0.777  10.266  18.422  0.00  0.00    +0.000 C 
ENDBRANCH  18  24
ENDBRANCH  17  22
ENDBRANCH   1  17
TORSDOF 6
ENDMDL
MODEL 4
REMARK VINA RESULT:      -7.1      0.791      1.062
REMARK  Name = 
REMARK  9 active torsions:
REMARK  status: ('A' for Active; 'I' for Inactive)
REMARK    1  A    between atoms: C_1  and  C_2
REMARK    2  A    between atoms: C_2  and  N_3
REMARK    3  A    between atoms: C_7  and  C_8
REMARK    4  A    between atoms: C_8  and  N_9
REMARK    5  A    between atoms: C_10  and  C_12
REMARK    6  A    between atoms: C_14  and  S_15
REMARK    7  A    between atoms: S_15  and  C_16
REMARK    8  A    between atoms: C_21  and  O_22
REMARK    9  A    between atoms: O_22  and  C_23
REMARK                            x       y       z     vdW  Elec       q    Type
REMARK                         _______ _______ _______ _____ _____    ______ ____
ROOT
ATOM      1  N   UNL     1       2.165   7.346  20.057  0.00  0.00    +0.000 N 
ATOM      2  C   UNL     1       2.223   5.963  20.058  0.00  0.00    +0.000 C 
ATOM      3  O   UNL     1       1.779   5.282  20.974  0.00  0.00    +0.000 OA
ATOM      4  H   UNL     1       2.593   7.897  19.324  0.00  0.00    +0.000 HD
ENDROOT
BRANCH   2   5
ATOM      5  C   UNL     1       2.896   5.318  18.889  0.00  0.00    +0.000 A 
ATOM      6  C   UNL     1       4.224   5.731  18.635  0.00  0.00    +0.000 A 
ATOM      7  C   UNL     1       4.966   5.165  17.589  0.00  0.00    +0.000 A 
ATOM      8  C   UNL     1       4.419   4.162  16.798  0.00  0.00    +0.000 A 
ATOM      9  C   UNL     1       3.119   3.736  17.060  0.00  0.00    +0.000 A 
ATOM     10  C   UNL     1       2.331   4.308  18.084  0.00  0.00    +0.000 A 
BRANCH   7  11
ATOM     11  S   UNL     1       6.562   5.828  17.167  0.00  0.00    +0.000 S 
ATOM     12  C   UNL     1       7.055   4.919  15.728  0.00  0.00    +0.000 C 
ATOM     13  O   UNL     1       6.362   7.211  16.779  0.00  0.00    +0.000 OA
ATOM     14  O   UNL     1       7.459   5.485  18.246  0.00  0.00    +0.000 OA
ENDBRANCH   7  11
BRANCH  10  15
ATOM     15  O   UNL     1       1.091   3.737  18.067  0.00  0.00    +0.000 OA
ATOM     16  C   UNL     1       0.803   2.547  18.775  0.00  0.00    +0.000 C 
ENDBRANCH  10  15
ENDBRANCH   2   5
BRANCH   1  17
ATOM     17  C   UNL     1       1.506   8.111  21.115  0.00  0.00    +0.000 C 
BRANCH  17  22
ATOM     18  N   UNL     1       0.820  10.534  21.337  0.00  0.00    +0.000 NA
ATOM     19  C   UNL     1       1.447  11.469  20.377  0.00  0.00    +0.000 C 
ATOM     20  C   UNL     1       0.895  11.075  19.021  0.00  0.00    +0.000 C 
ATOM     21  C   UNL     1       0.918   9.565  19.102  0.00  0.00    +0.000 C 
ATOM     22  C   UNL     1       0.617   9.262  20.578  0.00  0.00    +0.000 C 
BRANCH  18  24
ATOM     23  C   UNL     1      -1.014  10.541  23.108  0.00  0.00    +0.000 C 
ATOM     24  C   UNL     1      -0.439  11.138  21.828  0.00  0.00    +0.000 C 
ENDBRANCH  18  24
ENDBRANCH  17  22
ENDBRANCH   1  17
TORSDOF 6
ENDMDL
MODEL 5
REMARK VINA RESULT:      -7.1      1.037      1.760
REMARK  Name = 
REMARK  9 active torsions:
REMARK  status: ('A' for Active; 'I' for Inactive)
REMARK    1  A    between atoms: C_1  and  C_2
REMARK    2  A    between atoms: C_2  and  N_3
REMARK    3  A    between atoms: C_7  and  C_8
REMARK    4  A    between atoms: C_8  and  N_9
REMARK    5  A    between atoms: C_10  and  C_12
REMARK    6  A    between atoms: C_14  and  S_15
REMARK    7  A    between atoms: S_15  and  C_16
REMARK    8  A    between atoms: C_21  and  O_22
REMARK    9  A    between atoms: O_22  and  C_23
REMARK                            x       y       z     vdW  Elec       q    Type
REMARK                         _______ _______ _______ _____ _____    ______ ____
ROOT
ATOM      1  N   UNL     1       2.202   7.495  19.664  0.00  0.00    +0.000 N 
ATOM      2  C   UNL     1       2.296   6.120  19.789  0.00  0.00    +0.000 C 
ATOM      3  O   UNL     1       1.811   5.506  20.731  0.00  0.00    +0.000 OA
ATOM      4  H   UNL     1       2.663   7.994  18.914  0.00  0.00    +0.000 HD
ENDROOT
BRANCH   2   5
ATOM      5  C   UNL     1       3.060   5.399  18.725  0.00  0.00    +0.000 A 
ATOM      6  C   UNL     1       4.408   5.792  18.558  0.00  0.00    +0.000 A 
ATOM      7  C   UNL     1       5.231   5.157  17.618  0.00  0.00    +0.000 A 
ATOM      8  C   UNL     1       4.746   4.106  16.850  0.00  0.00    +0.000 A 
ATOM      9  C   UNL     1       3.425   3.702  17.027  0.00  0.00    +0.000 A 
ATOM     10  C   UNL     1       2.558   4.340  17.942  0.00  0.00    +0.000 A 
BRANCH   7  11
ATOM     11  S   UNL     1       6.862   5.788  17.291  0.00  0.00    +0.000 S 
ATOM     12  C   UNL     1       7.612   5.933  18.889  0.00  0.00    +0.000 C 
ATOM     13  O   UNL     1       7.575   4.767  16.549  0.00  0.00    +0.000 OA
ATOM     14  O   UNL     1       6.699   7.117  16.748  0.00  0.00    +0.000 OA
ENDBRANCH   7  11
BRANCH  10  15
ATOM     15  O   UNL     1       1.319   3.771  17.857  0.00  0.00    +0.000 OA
ATOM     16  C   UNL     1       0.936   2.680  18.671  0.00  0.00    +0.000 C 
ENDBRANCH  10  15
ENDBRANCH   2   5
BRANCH   1  17
ATOM     17  C   UNL     1       1.455   8.327  20.608  0.00  0.00    +0.000 C 
BRANCH  17  22
ATOM     18  N   UNL     1       1.184   9.721  18.518  0.00  0.00    +0.000 NA
ATOM     19  C   UNL     1      -0.171   9.731  17.924  0.00  0.00    +0.000 C 
ATOM     20  C   UNL     1      -1.042  10.449  18.935  0.00  0.00    +0.000 C 
ATOM     21  C   UNL     1      -0.531   9.887  20.242  0.00  0.00    +0.000 C 
ATOM     22  C   UNL     1       0.970   9.666  19.996  0.00  0.00    +0.000 C 
BRANCH  18  24
ATOM     23  C   UNL     1       1.930  12.100  19.052  0.00  0.00    +0.000 C 
ATOM     24  C   UNL     1       1.903  10.935  18.068  0.00  0.00    +0.000 C 
ENDBRANCH  18  24
ENDBRANCH  17  22
ENDBRANCH   1  17
TORSDOF 6
ENDMDL
MODEL 6
REMARK VINA RESULT:      -7.1      1.246      1.705
REMARK  Name = 
REMARK  9 active torsions:
REMARK  status: ('A' for Active; 'I' for Inactive)
REMARK    1  A    between atoms: C_1  and  C_2
REMARK    2  A    between atoms: C_2  and  N_3
REMARK    3  A    between atoms: C_7  and  C_8
REMARK    4  A    between atoms: C_8  and  N_9
REMARK    5  A    between atoms: C_10  and  C_12
REMARK    6  A    between atoms: C_14  and  S_15
REMARK    7  A    between atoms: S_15  and  C_16
REMARK    8  A    between atoms: C_21  and  O_22
REMARK    9  A    between atoms: O_22  and  C_23
REMARK                            x       y       z     vdW  Elec       q    Type
REMARK                         _______ _______ _______ _____ _____    ______ ____
ROOT
ATOM      1  N   UNL     1       2.312   7.585  19.005  0.00  0.00    +0.000 N 
ATOM      2  C   UNL     1       2.420   6.250  19.356  0.00  0.00    +0.000 C 
ATOM      3  O   UNL     1       2.005   5.810  20.421  0.00  0.00    +0.000 OA
ATOM      4  H   UNL     1       2.716   7.945  18.150  0.00  0.00    +0.000 HD
ENDROOT
BRANCH   2   5
ATOM      5  C   UNL     1       3.108   5.352  18.379  0.00  0.00    +0.000 A 
ATOM      6  C   UNL     1       4.453   5.676  18.083  0.00  0.00    +0.000 A 
ATOM      7  C   UNL     1       5.209   4.881  17.211  0.00  0.00    +0.000 A 
ATOM      8  C   UNL     1       4.660   3.737  16.643  0.00  0.00    +0.000 A 
ATOM      9  C   UNL     1       3.344   3.403  16.950  0.00  0.00    +0.000 A 
ATOM     10  C   UNL     1       2.542   4.199  17.798  0.00  0.00    +0.000 A 
BRANCH   7  11
ATOM     11  S   UNL     1       6.831   5.406  16.705  0.00  0.00    +0.000 S 
ATOM     12  C   UNL     1       6.989   4.822  15.040  0.00  0.00    +0.000 C 
ATOM     13  O   UNL     1       6.821   6.856  16.674  0.00  0.00    +0.000 OA
ATOM     14  O   UNL     1       7.781   4.691  17.525  0.00  0.00    +0.000 OA
ENDBRANCH   7  11
BRANCH  10  15
ATOM     15  O   UNL     1       1.289   3.660  17.867  0.00  0.00    +0.000 OA
ATOM     16  C   UNL     1       0.976   2.600  18.749  0.00  0.00    +0.000 C 
ENDBRANCH  10  15
ENDBRANCH   2   5
BRANCH   1  17
ATOM     17  C   UNL     1       1.632   8.572  19.843  0.00  0.00    +0.000 C 
BRANCH  17  22
ATOM     18  N   UNL     1       0.313  10.727  19.916  0.00  0.00    +0.000 NA
ATOM     19  C   UNL     1       1.108  11.970  19.803  0.00  0.00    +0.000 C 
ATOM     20  C   UNL     1       1.671  11.955  18.396  0.00  0.00    +0.000 C 
ATOM     21  C   UNL     1       2.061  10.503  18.232  0.00  0.00    +0.000 C 
ATOM     22  C   UNL     1       1.001   9.735  19.035  0.00  0.00    +0.000 C 
BRANCH  18  24
ATOM     23  C   UNL     1      -1.611  10.217  18.323  0.00  0.00    +0.000 C 
ATOM     24  C   UNL     1      -1.079  11.020  19.505  0.00  0.00    +0.000 C 
ENDBRANCH  18  24
ENDBRANCH  17  22
ENDBRANCH   1  17
TORSDOF 6
ENDMDL
MODEL 7
REMARK VINA RESULT:      -7.0      1.739      2.681
REMARK  Name = 
REMARK  9 active torsions:
REMARK  status: ('A' for Active; 'I' for Inactive)
REMARK    1  A    between atoms: C_1  and  C_2
REMARK    2  A    between atoms: C_2  and  N_3
REMARK    3  A    between atoms: C_7  and  C_8
REMARK    4  A    between atoms: C_8  and  N_9
REMARK    5  A    between atoms: C_10  and  C_12
REMARK    6  A    between atoms: C_14  and  S_15
REMARK    7  A    between atoms: S_15  and  C_16
REMARK    8  A    between atoms: C_21  and  O_22
REMARK    9  A    between atoms: O_22  and  C_23
REMARK                            x       y       z     vdW  Elec       q    Type
REMARK                         _______ _______ _______ _____ _____    ______ ____
ROOT
ATOM      1  N   UNL     1       1.573   8.405  19.561  0.00  0.00    +0.000 N 
ATOM      2  C   UNL     1       2.311   8.134  18.421  0.00  0.00    +0.000 C 
ATOM      3  O   UNL     1       2.298   8.862  17.436  0.00  0.00    +0.000 OA
ATOM      4  H   UNL     1       1.545   7.762  20.342  0.00  0.00    +0.000 HD
ENDROOT
BRANCH   2   5
ATOM      5  C   UNL     1       3.114   6.873  18.424  0.00  0.00    +0.000 A 
ATOM      6  C   UNL     1       4.134   6.787  17.449  0.00  0.00    +0.000 A 
ATOM      7  C   UNL     1       4.975   5.668  17.384  0.00  0.00    +0.000 A 
ATOM      8  C   UNL     1       4.843   4.632  18.300  0.00  0.00    +0.000 A 
ATOM      9  C   UNL     1       3.854   4.723  19.276  0.00  0.00    +0.000 A 
ATOM     10  C   UNL     1       2.968   5.821  19.351  0.00  0.00    +0.000 A 
BRANCH   7  11
ATOM     11  S   UNL     1       6.123   5.492  16.037  0.00  0.00    +0.000 S 
ATOM     12  C   UNL     1       6.004   3.788  15.569  0.00  0.00    +0.000 C 
ATOM     13  O   UNL     1       5.622   6.297  14.940  0.00  0.00    +0.000 OA
ATOM     14  O   UNL     1       7.444   5.719  16.577  0.00  0.00    +0.000 OA
ENDBRANCH   7  11
BRANCH  10  15
ATOM     15  O   UNL     1       2.076   5.609  20.363  0.00  0.00    +0.000 OA
ATOM     16  C   UNL     1       2.140   4.464  21.191  0.00  0.00    +0.000 C 
ENDBRANCH  10  15
ENDBRANCH   2   5
BRANCH   1  17
ATOM     17  C   UNL     1       0.771   9.618  19.715  0.00  0.00    +0.000 C 
BRANCH  17  22
ATOM     18  N   UNL     1      -0.445  10.851  21.556  0.00  0.00    +0.000 NA
ATOM     19  C   UNL     1      -0.941  10.013  22.670  0.00  0.00    +0.000 C 
ATOM     20  C   UNL     1       0.304   9.496  23.363  0.00  0.00    +0.000 C 
ATOM     21  C   UNL     1       1.199   9.165  22.190  0.00  0.00    +0.000 C 
ATOM     22  C   UNL     1       0.848  10.229  21.138  0.00  0.00    +0.000 C 
BRANCH  18  24
ATOM     23  C   UNL     1      -1.408  12.745  22.964  0.00  0.00    +0.000 C 
ATOM     24  C   UNL     1      -0.304  12.243  22.041  0.00  0.00    +0.000 C 
ENDBRANCH  18  24
ENDBRANCH  17  22
ENDBRANCH   1  17
TORSDOF 6
ENDMDL
MODEL 8
REMARK VINA RESULT:      -7.0      1.579      2.559
REMARK  Name = 
REMARK  9 active torsions:
REMARK  status: ('A' for Active; 'I' for Inactive)
REMARK    1  A    between atoms: C_1  and  C_2
REMARK    2  A    between atoms: C_2  and  N_3
REMARK    3  A    between atoms: C_7  and  C_8
REMARK    4  A    between atoms: C_8  and  N_9
REMARK    5  A    between atoms: C_10  and  C_12
REMARK    6  A    between atoms: C_14  and  S_15
REMARK    7  A    between atoms: S_15  and  C_16
REMARK    8  A    between atoms: C_21  and  O_22
REMARK    9  A    between atoms: O_22  and  C_23
REMARK                            x       y       z     vdW  Elec       q    Type
REMARK                         _______ _______ _______ _____ _____    ______ ____
ROOT
ATOM      1  N   UNL     1       1.959   7.989  19.333  0.00  0.00    +0.000 N 
ATOM      2  C   UNL     1       2.764   7.647  18.260  0.00  0.00    +0.000 C 
ATOM      3  O   UNL     1       2.800   8.300  17.224  0.00  0.00    +0.000 OA
ATOM      4  H   UNL     1       1.893   7.404  20.156  0.00  0.00    +0.000 HD
ENDROOT
BRANCH   2   5
ATOM      5  C   UNL     1       3.580   6.402  18.402  0.00  0.00    +0.000 A 
ATOM      6  C   UNL     1       4.756   6.340  17.618  0.00  0.00    +0.000 A 
ATOM      7  C   UNL     1       5.618   5.239  17.700  0.00  0.00    +0.000 A 
ATOM      8  C   UNL     1       5.350   4.197  18.578  0.00  0.00    +0.000 A 
ATOM      9  C   UNL     1       4.206   4.264  19.368  0.00  0.00    +0.000 A 
ATOM     10  C   UNL     1       3.297   5.343  19.288  0.00  0.00    +0.000 A 
BRANCH   7  11
ATOM     11  S   UNL     1       6.987   5.093  16.573  0.00  0.00    +0.000 S 
ATOM     12  C   UNL     1       6.322   4.232  15.175  0.00  0.00    +0.000 C 
ATOM     13  O   UNL     1       7.338   6.434  16.150  0.00  0.00    +0.000 OA
ATOM     14  O   UNL     1       7.964   4.237  17.206  0.00  0.00    +0.000 OA
ENDBRANCH   7  11
BRANCH  10  15
ATOM     15  O   UNL     1       2.247   5.109  20.130  0.00  0.00    +0.000 OA
ATOM     16  C   UNL     1       1.359   4.026  19.936  0.00  0.00    +0.000 C 
ENDBRANCH  10  15
ENDBRANCH   2   5
BRANCH   1  17
ATOM     17  C   UNL     1       1.135   9.197  19.351  0.00  0.00    +0.000 C 
BRANCH  17  22
ATOM     18  N   UNL     1      -0.116  10.701  20.951  0.00  0.00    +0.000 NA
ATOM     19  C   UNL     1      -0.803  10.018  22.070  0.00  0.00    +0.000 C 
ATOM     20  C   UNL     1       0.309   9.447  22.928  0.00  0.00    +0.000 C 
ATOM     21  C   UNL     1       1.273   8.928  21.885  0.00  0.00    +0.000 C 
ATOM     22  C   UNL     1       1.139   9.923  20.721  0.00  0.00    +0.000 C 
BRANCH  18  24
ATOM     23  C   UNL     1       1.362  12.767  20.738  0.00  0.00    +0.000 C 
ATOM     24  C   UNL     1       0.123  12.111  21.336  0.00  0.00    +0.000 C 
ENDBRANCH  18  24
ENDBRANCH  17  22
ENDBRANCH   1  17
TORSDOF 6
ENDMDL
MODEL 9
REMARK VINA RESULT:      -6.9      2.223      4.014
REMARK  Name = 
REMARK  9 active torsions:
REMARK  status: ('A' for Active; 'I' for Inactive)
REMARK    1  A    between atoms: C_1  and  C_2
REMARK    2  A    between atoms: C_2  and  N_3
REMARK    3  A    between atoms: C_7  and  C_8
REMARK    4  A    between atoms: C_8  and  N_9
REMARK    5  A    between atoms: C_10  and  C_12
REMARK    6  A    between atoms: C_14  and  S_15
REMARK    7  A    between atoms: S_15  and  C_16
REMARK    8  A    between atoms: C_21  and  O_22
REMARK    9  A    between atoms: O_22  and  C_23
REMARK                            x       y       z     vdW  Elec       q    Type
REMARK                         _______ _______ _______ _____ _____    ______ ____
ROOT
ATOM      1  N   UNL     1       2.242   8.604  17.779  0.00  0.00    +0.000 N 
ATOM      2  C   UNL     1       2.364   7.626  18.751  0.00  0.00    +0.000 C 
ATOM      3  O   UNL     1       2.130   7.837  19.935  0.00  0.00    +0.000 OA
ATOM      4  H   UNL     1       2.500   8.432  16.815  0.00  0.00    +0.000 HD
ENDROOT
BRANCH   2   5
ATOM      5  C   UNL     1       2.837   6.283  18.298  0.00  0.00    +0.000 A 
ATOM      6  C   UNL     1       2.084   5.175  18.752  0.00  0.00    +0.000 A 
ATOM      7  C   UNL     1       2.412   3.871  18.358  0.00  0.00    +0.000 A 
ATOM      8  C   UNL     1       3.468   3.643  17.485  0.00  0.00    +0.000 A 
ATOM      9  C   UNL     1       4.199   4.732  17.017  0.00  0.00    +0.000 A 
ATOM     10  C   UNL     1       3.917   6.057  17.420  0.00  0.00    +0.000 A 
BRANCH   7  11
ATOM     11  S   UNL     1       1.574   2.482  19.087  0.00  0.00    +0.000 S 
ATOM     12  C   UNL     1       1.256   2.981  20.757  0.00  0.00    +0.000 C 
ATOM     13  O   UNL     1       0.300   2.346  18.407  0.00  0.00    +0.000 OA
ATOM     14  O   UNL     1       2.517   1.388  19.115  0.00  0.00    +0.000 OA
ENDBRANCH   7  11
BRANCH  10  15
ATOM     15  O   UNL     1       4.828   6.901  16.851  0.00  0.00    +0.000 OA
ATOM     16  C   UNL     1       6.221   6.724  17.018  0.00  0.00    +0.000 C 
ENDBRANCH  10  15
ENDBRANCH   2   5
BRANCH   1  17
ATOM     17  C   UNL     1       1.756   9.953  18.069  0.00  0.00    +0.000 C 
BRANCH  17  22
ATOM     18  N   UNL     1       0.073  11.259  19.429  0.00  0.00    +0.000 NA
ATOM     19  C   UNL     1      -1.013  11.904  18.658  0.00  0.00    +0.000 C 
ATOM     20  C   UNL     1      -1.834  10.760  18.096  0.00  0.00    +0.000 C 
ATOM     21  C   UNL     1      -0.760   9.782  17.677  0.00  0.00    +0.000 C 
ATOM     22  C   UNL     1       0.350   9.971  18.723  0.00  0.00    +0.000 C 
BRANCH  18  24
ATOM     23  C   UNL     1      -0.254   9.676  21.400  0.00  0.00    +0.000 C 
ATOM     24  C   UNL     1      -0.383  11.083  20.826  0.00  0.00    +0.000 C 
ENDBRANCH  18  24
ENDBRANCH  17  22
ENDBRANCH   1  17
TORSDOF 6
ENDMDL
