MODEL 1
REMARK VINA RESULT:      -7.9      0.000      0.000
REMARK  Name = 
REMARK  12 active torsions:
REMARK  status: ('A' for Active; 'I' for Inactive)
REMARK    1  A    between atoms: C_1  and  C_2
REMARK    2  A    between atoms: C_2  and  C_3
REMARK    3  A    between atoms: C_5  and  C_6
REMARK    4  A    between atoms: N_8  and  C_9
REMARK    5  A    between atoms: C_9  and  C_10
REMARK    6  A    between atoms: C_10  and  C_11
REMARK    7  A    between atoms: C_11  and  N_12
REMARK    8  A    between atoms: C_13  and  C_15
REMARK    9  A    between atoms: C_20  and  C_21
REMARK   10  A    between atoms: C_21  and  O_23
REMARK   11  A    between atoms: C_24  and  C_25
REMARK   12  A    between atoms: C_24  and  C_26
REMARK                            x       y       z     vdW  Elec       q    Type
REMARK                         _______ _______ _______ _____ _____    ______ ____
ROOT
ATOM      1  C   UNL     1       3.212   7.980  17.024  0.00  0.00    +0.000 C 
ENDROOT
BRANCH   1   2
ATOM      2  C   UNL     1       2.471   8.528  18.244  0.00  0.00    +0.000 C 
BRANCH   2   5
ATOM      3  C   UNL     1       0.397   9.752  18.807  0.00  0.00    +0.000 C 
ATOM      4  O   UNL     1       0.583   9.691  20.015  0.00  0.00    +0.000 OA
ATOM      5  N   UNL     1       1.268   9.243  17.867  0.00  0.00    +0.000 N 
ATOM      6  H   UNL     1       1.134   9.488  16.897  0.00  0.00    +0.000 HD
BRANCH   3  11
ATOM      7  C   UNL     1      -2.895  10.938  15.516  0.00  0.00    +0.000 C 
ATOM      8  C   UNL     1      -2.745  10.874  17.041  0.00  0.00    +0.000 C 
ATOM      9  C   UNL     1      -4.093  10.521  17.676  0.00  0.00    +0.000 C 
ATOM     10  C   UNL     1      -1.689   9.891  17.423  0.00  0.00    +0.000 C 
ATOM     11  C   UNL     1      -0.778  10.449  18.234  0.00  0.00    +0.000 C 
ATOM     12  C   UNL     1      -1.161  11.867  18.554  0.00  0.00    +0.000 C 
ATOM     13  C   UNL     1      -0.029  12.887  18.358  0.00  0.00    +0.000 C 
ATOM     14  C   UNL     1      -1.741  12.020  19.969  0.00  0.00    +0.000 C 
ATOM     15  N   UNL     1      -2.261  12.171  17.576  0.00  0.00    +0.000 NA
ATOM     16  H   UNL     1      -1.861  12.709  16.809  0.00  0.00    +0.000 HD
ENDBRANCH   3  11
ENDBRANCH   2   5
ENDBRANCH   1   2
BRANCH   1  17
ATOM     17  C   UNL     1       4.212   6.897  17.430  0.00  0.00    +0.000 C 
BRANCH  17  18
ATOM     18  N   UNL     1       3.696   6.027  18.477  0.00  0.00    +0.000 N 
ATOM     19  C   UNL     1       3.317   4.727  18.225  0.00  0.00    +0.000 C 
ATOM     20  O   UNL     1       3.456   4.203  17.125  0.00  0.00    +0.000 OA
ATOM     21  H   UNL     1       3.528   6.458  19.378  0.00  0.00    +0.000 HD
BRANCH  19  22
ATOM     22  C   UNL     1       2.727   3.936  19.343  0.00  0.00    +0.000 A 
ATOM     23  C   UNL     1       1.354   4.165  19.577  0.00  0.00    +0.000 A 
ATOM     24  C   UNL     1       0.671   3.509  20.604  0.00  0.00    +0.000 A 
ATOM     25  C   UNL     1       1.346   2.606  21.414  0.00  0.00    +0.000 A 
ATOM     26  C   UNL     1       2.702   2.356  21.189  0.00  0.00    +0.000 A 
ATOM     27  C   UNL     1       3.401   3.003  20.148  0.00  0.00    +0.000 A 
BRANCH  27  28
ATOM     28  C   UNL     1       4.830   2.619  20.043  0.00  0.00    +0.000 C 
ATOM     29  O   UNL     1       5.282   1.662  20.650  0.00  0.00    +0.000 OA
BRANCH  28  30
ATOM     30  O   UNL     1       5.585   3.354  19.207  0.00  0.00    +0.000 OA
ATOM     31  H   UNL     1       6.352   2.912  18.796  0.00  0.00    +0.000 HD
ENDBRANCH  28  30
ENDBRANCH  27  28
ENDBRANCH  19  22
ENDBRANCH  17  18
ENDBRANCH   1  17
TORSDOF 8
ENDMDL
MODEL 2
REMARK VINA RESULT:      -7.7      2.241      3.626
REMARK  Name = 
REMARK  12 active torsions:
REMARK  status: ('A' for Active; 'I' for Inactive)
REMARK    1  A    between atoms: C_1  and  C_2
REMARK    2  A    between atoms: C_2  and  C_3
REMARK    3  A    between atoms: C_5  and  C_6
REMARK    4  A    between atoms: N_8  and  C_9
REMARK    5  A    between atoms: C_9  and  C_10
REMARK    6  A    between atoms: C_10  and  C_11
REMARK    7  A    between atoms: C_11  and  N_12
REMARK    8  A    between atoms: C_13  and  C_15
REMARK    9  A    between atoms: C_20  and  C_21
REMARK   10  A    between atoms: C_21  and  O_23
REMARK   11  A    between atoms: C_24  and  C_25
REMARK   12  A    between atoms: C_24  and  C_26
REMARK                            x       y       z     vdW  Elec       q    Type
REMARK                         _______ _______ _______ _____ _____    ______ ____
ROOT
ATOM      1  C   UNL     1       2.043   7.024  19.153  0.00  0.00    +0.000 C 
ENDROOT
BRANCH   1   2
ATOM      2  C   UNL     1       2.378   8.279  18.347  0.00  0.00    +0.000 C 
BRANCH   2   5
ATOM      3  C   UNL     1       0.534   9.860  18.813  0.00  0.00    +0.000 C 
ATOM      4  O   UNL     1       0.924  10.122  19.943  0.00  0.00    +0.000 OA
ATOM      5  N   UNL     1       1.185   9.002  17.954  0.00  0.00    +0.000 N 
ATOM      6  H   UNL     1       0.902   8.976  16.985  0.00  0.00    +0.000 HD
BRANCH   3  11
ATOM      7  C   UNL     1      -2.805  10.885  15.517  0.00  0.00    +0.000 C 
ATOM      8  C   UNL     1      -2.651  10.845  17.042  0.00  0.00    +0.000 C 
ATOM      9  C   UNL     1      -3.984  10.448  17.684  0.00  0.00    +0.000 C 
ATOM     10  C   UNL     1      -1.558   9.906  17.433  0.00  0.00    +0.000 C 
ATOM     11  C   UNL     1      -0.668  10.506  18.235  0.00  0.00    +0.000 C 
ATOM     12  C   UNL     1      -1.102  11.912  18.541  0.00  0.00    +0.000 C 
ATOM     13  C   UNL     1      -0.010  12.972  18.331  0.00  0.00    +0.000 C 
ATOM     14  C   UNL     1      -1.686  12.060  19.955  0.00  0.00    +0.000 C 
ATOM     15  N   UNL     1      -2.214  12.164  17.562  0.00  0.00    +0.000 NA
ATOM     16  H   UNL     1      -1.837  12.708  16.788  0.00  0.00    +0.000 HD
ENDBRANCH   3  11
ENDBRANCH   2   5
ENDBRANCH   1   2
BRANCH   1  17
ATOM     17  C   UNL     1       3.305   6.219  19.465  0.00  0.00    +0.000 C 
BRANCH  17  18
ATOM     18  N   UNL     1       4.163   6.055  18.301  0.00  0.00    +0.000 N 
ATOM     19  C   UNL     1       4.327   4.835  17.681  0.00  0.00    +0.000 C 
ATOM     20  O   UNL     1       3.708   3.834  18.026  0.00  0.00    +0.000 OA
ATOM     21  H   UNL     1       4.719   6.859  18.034  0.00  0.00    +0.000 HD
BRANCH  19  22
ATOM     22  C   UNL     1       5.287   4.746  16.543  0.00  0.00    +0.000 A 
ATOM     23  C   UNL     1       4.706   4.436  15.295  0.00  0.00    +0.000 A 
ATOM     24  C   UNL     1       5.485   4.302  14.142  0.00  0.00    +0.000 A 
ATOM     25  C   UNL     1       6.859   4.480  14.214  0.00  0.00    +0.000 A 
ATOM     26  C   UNL     1       7.450   4.800  15.439  0.00  0.00    +0.000 A 
ATOM     27  C   UNL     1       6.676   4.950  16.608  0.00  0.00    +0.000 A 
BRANCH  27  28
ATOM     28  C   UNL     1       7.459   5.298  17.819  0.00  0.00    +0.000 C 
ATOM     29  O   UNL     1       8.166   4.478  18.382  0.00  0.00    +0.000 OA
BRANCH  28  30
ATOM     30  O   UNL     1       7.383   6.576  18.230  0.00  0.00    +0.000 OA
ATOM     31  H   UNL     1       8.213   6.999  18.523  0.00  0.00    +0.000 HD
ENDBRANCH  28  30
ENDBRANCH  27  28
ENDBRANCH  19  22
ENDBRANCH  17  18
ENDBRANCH   1  17
TORSDOF 8
ENDMDL
MODEL 3
REMARK VINA RESULT:      -7.7      1.266      1.611
REMARK  Name = 
REMARK  12 active torsions:
REMARK  status: ('A' for Active; 'I' for Inactive)
REMARK    1  A    between atoms: C_1  and  C_2
REMARK    2  A    between atoms: C_2  and  C_3
REMARK    3  A    between atoms: C_5  and  C_6
REMARK    4  A    between atoms: N_8  and  C_9
REMARK    5  A    between atoms: C_9  and  C_10
REMARK    6  A    between atoms: C_10  and  C_11
REMARK    7  A    between atoms: C_11  and  N_12
REMARK    8  A    between atoms: C_13  and  C_15
REMARK    9  A    between atoms: C_20  and  C_21
REMARK   10  A    between atoms: C_21  and  O_23
REMARK   11  A    between atoms: C_24  and  C_25
REMARK   12  A    between atoms: C_24  and  C_26
REMARK                            x       y       z     vdW  Elec       q    Type
REMARK                         _______ _______ _______ _____ _____    ______ ____
ROOT
ATOM      1  C   UNL     1       2.965   8.738  17.626  0.00  0.00    +0.000 C 
ENDROOT
BRANCH   1   2
ATOM      2  C   UNL     1       1.848   8.685  18.668  0.00  0.00    +0.000 C 
BRANCH   2   5
ATOM      3  C   UNL     1      -0.276   9.879  19.090  0.00  0.00    +0.000 C 
ATOM      4  O   UNL     1      -0.150   9.858  20.307  0.00  0.00    +0.000 OA
ATOM      5  N   UNL     1       0.651   9.362  18.211  0.00  0.00    +0.000 N 
ATOM      6  H   UNL     1       0.561   9.575  17.229  0.00  0.00    +0.000 HD
BRANCH   3  11
ATOM      7  C   UNL     1      -3.542  10.755  15.679  0.00  0.00    +0.000 C 
ATOM      8  C   UNL     1      -3.393  10.865  17.201  0.00  0.00    +0.000 C 
ATOM      9  C   UNL     1      -4.748  10.620  17.871  0.00  0.00    +0.000 C 
ATOM     10  C   UNL     1      -2.359   9.908  17.696  0.00  0.00    +0.000 C 
ATOM     11  C   UNL     1      -1.435  10.533  18.439  0.00  0.00    +0.000 C 
ATOM     12  C   UNL     1      -1.783  11.987  18.592  0.00  0.00    +0.000 C 
ATOM     13  C   UNL     1      -0.628  12.951  18.281  0.00  0.00    +0.000 C 
ATOM     14  C   UNL     1      -2.358  12.317  19.979  0.00  0.00    +0.000 C 
ATOM     15  N   UNL     1      -2.876  12.203  17.584  0.00  0.00    +0.000 NA
ATOM     16  H   UNL     1      -2.465  12.638  16.760  0.00  0.00    +0.000 HD
ENDBRANCH   3  11
ENDBRANCH   2   5
ENDBRANCH   1   2
BRANCH   1  17
ATOM     17  C   UNL     1       3.709   7.405  17.551  0.00  0.00    +0.000 C 
BRANCH  17  18
ATOM     18  N   UNL     1       3.018   6.340  18.262  0.00  0.00    +0.000 N 
ATOM     19  C   UNL     1       3.688   5.443  19.065  0.00  0.00    +0.000 C 
ATOM     20  O   UNL     1       4.892   5.530  19.286  0.00  0.00    +0.000 OA
ATOM     21  H   UNL     1       2.034   6.223  18.052  0.00  0.00    +0.000 HD
BRANCH  19  22
ATOM     22  C   UNL     1       2.907   4.337  19.691  0.00  0.00    +0.000 A 
ATOM     23  C   UNL     1       2.454   4.595  21.002  0.00  0.00    +0.000 A 
ATOM     24  C   UNL     1       1.726   3.644  21.722  0.00  0.00    +0.000 A 
ATOM     25  C   UNL     1       1.432   2.417  21.141  0.00  0.00    +0.000 A 
ATOM     26  C   UNL     1       1.862   2.150  19.839  0.00  0.00    +0.000 A 
ATOM     27  C   UNL     1       2.587   3.105  19.098  0.00  0.00    +0.000 A 
BRANCH  27  28
ATOM     28  C   UNL     1       2.959   2.662  17.731  0.00  0.00    +0.000 C 
ATOM     29  O   UNL     1       2.264   2.923  16.762  0.00  0.00    +0.000 OA
BRANCH  28  30
ATOM     30  O   UNL     1       4.125   2.000  17.616  0.00  0.00    +0.000 OA
ATOM     31  H   UNL     1       4.710   2.257  16.878  0.00  0.00    +0.000 HD
ENDBRANCH  28  30
ENDBRANCH  27  28
ENDBRANCH  19  22
ENDBRANCH  17  18
ENDBRANCH   1  17
TORSDOF 8
ENDMDL
MODEL 4
REMARK VINA RESULT:      -7.7      2.438      9.417
REMARK  Name = 
REMARK  12 active torsions:
REMARK  status: ('A' for Active; 'I' for Inactive)
REMARK    1  A    between atoms: C_1  and  C_2
REMARK    2  A    between atoms: C_2  and  C_3
REMARK    3  A    between atoms: C_5  and  C_6
REMARK    4  A    between atoms: N_8  and  C_9
REMARK    5  A    between atoms: C_9  and  C_10
REMARK    6  A    between atoms: C_10  and  C_11
REMARK    7  A    between atoms: C_11  and  N_12
REMARK    8  A    between atoms: C_13  and  C_15
REMARK    9  A    between atoms: C_20  and  C_21
REMARK   10  A    between atoms: C_21  and  O_23
REMARK   11  A    between atoms: C_24  and  C_25
REMARK   12  A    between atoms: C_24  and  C_26
REMARK                            x       y       z     vdW  Elec       q    Type
REMARK                         _______ _______ _______ _____ _____    ______ ____
ROOT
ATOM      1  C   UNL     1       1.452   9.071  19.268  0.00  0.00    +0.000 C 
ENDROOT
BRANCH   1   2
ATOM      2  C   UNL     1       2.174   8.403  18.098  0.00  0.00    +0.000 C 
BRANCH   2   5
ATOM      3  C   UNL     1       3.698   6.479  17.792  0.00  0.00    +0.000 C 
ATOM      4  O   UNL     1       4.366   7.030  16.928  0.00  0.00    +0.000 OA
ATOM      5  N   UNL     1       2.634   7.071  18.438  0.00  0.00    +0.000 N 
ATOM      6  H   UNL     1       2.250   6.620  19.255  0.00  0.00    +0.000 HD
BRANCH   3  11
ATOM      7  C   UNL     1       3.347   2.525  20.497  0.00  0.00    +0.000 C 
ATOM      8  C   UNL     1       3.790   2.933  19.086  0.00  0.00    +0.000 C 
ATOM      9  C   UNL     1       3.486   1.800  18.103  0.00  0.00    +0.000 C 
ATOM     10  C   UNL     1       3.123   4.204  18.676  0.00  0.00    +0.000 C 
ATOM     11  C   UNL     1       4.021   5.115  18.274  0.00  0.00    +0.000 C 
ATOM     12  C   UNL     1       5.405   4.531  18.297  0.00  0.00    +0.000 C 
ATOM     13  C   UNL     1       6.447   5.402  19.015  0.00  0.00    +0.000 C 
ATOM     14  C   UNL     1       5.923   4.174  16.894  0.00  0.00    +0.000 C 
ATOM     15  N   UNL     1       5.240   3.248  19.061  0.00  0.00    +0.000 NA
ATOM     16  H   UNL     1       5.554   3.406  20.017  0.00  0.00    +0.000 HD
ENDBRANCH   3  11
ENDBRANCH   2   5
ENDBRANCH   1   2
BRANCH   1  17
ATOM     17  C   UNL     1       1.009  10.487  18.903  0.00  0.00    +0.000 C 
BRANCH  17  18
ATOM     18  N   UNL     1      -0.438  10.611  18.807  0.00  0.00    +0.000 N 
ATOM     19  C   UNL     1      -1.056  11.829  18.623  0.00  0.00    +0.000 C 
ATOM     20  O   UNL     1      -0.426  12.868  18.457  0.00  0.00    +0.000 OA
ATOM     21  H   UNL     1      -0.976   9.772  18.991  0.00  0.00    +0.000 HD
BRANCH  19  22
ATOM     22  C   UNL     1      -2.548  11.869  18.615  0.00  0.00    +0.000 A 
ATOM     23  C   UNL     1      -3.135  12.435  19.766  0.00  0.00    +0.000 A 
ATOM     24  C   UNL     1      -4.523  12.522  19.908  0.00  0.00    +0.000 A 
ATOM     25  C   UNL     1      -5.350  12.049  18.899  0.00  0.00    +0.000 A 
ATOM     26  C   UNL     1      -4.785  11.497  17.746  0.00  0.00    +0.000 A 
ATOM     27  C   UNL     1      -3.387  11.413  17.585  0.00  0.00    +0.000 A 
BRANCH  27  28
ATOM     28  C   UNL     1      -2.956  10.807  16.301  0.00  0.00    +0.000 C 
ATOM     29  O   UNL     1      -2.371   9.737  16.262  0.00  0.00    +0.000 OA
BRANCH  28  30
ATOM     30  O   UNL     1      -3.287  11.481  15.184  0.00  0.00    +0.000 OA
ATOM     31  H   UNL     1      -2.700  12.214  14.917  0.00  0.00    +0.000 HD
ENDBRANCH  28  30
ENDBRANCH  27  28
ENDBRANCH  19  22
ENDBRANCH  17  18
ENDBRANCH   1  17
TORSDOF 8
ENDMDL
MODEL 5
REMARK VINA RESULT:      -7.7      6.133      8.267
REMARK  Name = 
REMARK  12 active torsions:
REMARK  status: ('A' for Active; 'I' for Inactive)
REMARK    1  A    between atoms: C_1  and  C_2
REMARK    2  A    between atoms: C_2  and  C_3
REMARK    3  A    between atoms: C_5  and  C_6
REMARK    4  A    between atoms: N_8  and  C_9
REMARK    5  A    between atoms: C_9  and  C_10
REMARK    6  A    between atoms: C_10  and  C_11
REMARK    7  A    between atoms: C_11  and  N_12
REMARK    8  A    between atoms: C_13  and  C_15
REMARK    9  A    between atoms: C_20  and  C_21
REMARK   10  A    between atoms: C_21  and  O_23
REMARK   11  A    between atoms: C_24  and  C_25
REMARK   12  A    between atoms: C_24  and  C_26
REMARK                            x       y       z     vdW  Elec       q    Type
REMARK                         _______ _______ _______ _____ _____    ______ ____
ROOT
ATOM      1  C   UNL     1       7.615   7.904  17.380  0.00  0.00    +0.000 C 
ENDROOT
BRANCH   1   2
ATOM      2  C   UNL     1       8.341   8.451  18.609  0.00  0.00    +0.000 C 
BRANCH   2   5
ATOM      3  C   UNL     1       9.336  10.595  19.338  0.00  0.00    +0.000 C 
ATOM      4  O   UNL     1       9.175  10.368  20.529  0.00  0.00    +0.000 OA
ATOM      5  N   UNL     1       8.990   9.717  18.333  0.00  0.00    +0.000 N 
ATOM      6  H   UNL     1       9.316   9.900  17.395  0.00  0.00    +0.000 HD
BRANCH   3  11
ATOM      7  C   UNL     1      11.163  13.729  16.190  0.00  0.00    +0.000 C 
ATOM      8  C   UNL     1      10.512  13.721  17.578  0.00  0.00    +0.000 C 
ATOM      9  C   UNL     1       9.701  15.006  17.774  0.00  0.00    +0.000 C 
ATOM     10  C   UNL     1       9.660  12.507  17.750  0.00  0.00    +0.000 C 
ATOM     11  C   UNL     1       9.989  11.838  18.864  0.00  0.00    +0.000 C 
ATOM     12  C   UNL     1      11.063  12.571  19.618  0.00  0.00    +0.000 C 
ATOM     13  C   UNL     1      12.255  11.696  20.032  0.00  0.00    +0.000 C 
ATOM     14  C   UNL     1      10.523  13.309  20.853  0.00  0.00    +0.000 C 
ATOM     15  N   UNL     1      11.541  13.609  18.642  0.00  0.00    +0.000 NA
ATOM     16  H   UNL     1      12.405  13.272  18.221  0.00  0.00    +0.000 HD
ENDBRANCH   3  11
ENDBRANCH   2   5
ENDBRANCH   1   2
BRANCH   1  17
ATOM     17  C   UNL     1       7.300   6.418  17.545  0.00  0.00    +0.000 C 
BRANCH  17  18
ATOM     18  N   UNL     1       6.108   6.187  18.349  0.00  0.00    +0.000 N 
ATOM     19  C   UNL     1       5.257   5.130  18.106  0.00  0.00    +0.000 C 
ATOM     20  O   UNL     1       5.488   4.284  17.249  0.00  0.00    +0.000 OA
ATOM     21  H   UNL     1       5.877   6.903  19.027  0.00  0.00    +0.000 HD
BRANCH  19  22
ATOM     22  C   UNL     1       4.020   5.018  18.932  0.00  0.00    +0.000 A 
ATOM     23  C   UNL     1       3.365   6.241  19.194  0.00  0.00    +0.000 A 
ATOM     24  C   UNL     1       2.204   6.293  19.970  0.00  0.00    +0.000 A 
ATOM     25  C   UNL     1       1.672   5.123  20.494  0.00  0.00    +0.000 A 
ATOM     26  C   UNL     1       2.300   3.902  20.234  0.00  0.00    +0.000 A 
ATOM     27  C   UNL     1       3.466   3.833  19.443  0.00  0.00    +0.000 A 
BRANCH  27  28
ATOM     28  C   UNL     1       3.999   2.461  19.260  0.00  0.00    +0.000 C 
ATOM     29  O   UNL     1       3.367   1.602  18.666  0.00  0.00    +0.000 OA
BRANCH  28  30
ATOM     30  O   UNL     1       5.233   2.232  19.744  0.00  0.00    +0.000 OA
ATOM     31  H   UNL     1       5.918   1.961  19.103  0.00  0.00    +0.000 HD
ENDBRANCH  28  30
ENDBRANCH  27  28
ENDBRANCH  19  22
ENDBRANCH  17  18
ENDBRANCH   1  17
TORSDOF 8
ENDMDL
MODEL 6
REMARK VINA RESULT:      -7.6      2.570      9.182
REMARK  Name = 
REMARK  12 active torsions:
REMARK  status: ('A' for Active; 'I' for Inactive)
REMARK    1  A    between atoms: C_1  and  C_2
REMARK    2  A    between atoms: C_2  and  C_3
REMARK    3  A    between atoms: C_5  and  C_6
REMARK    4  A    between atoms: N_8  and  C_9
REMARK    5  A    between atoms: C_9  and  C_10
REMARK    6  A    between atoms: C_10  and  C_11
REMARK    7  A    between atoms: C_11  and  N_12
REMARK    8  A    between atoms: C_13  and  C_15
REMARK    9  A    between atoms: C_20  and  C_21
REMARK   10  A    between atoms: C_21  and  O_23
REMARK   11  A    between atoms: C_24  and  C_25
REMARK   12  A    between atoms: C_24  and  C_26
REMARK                            x       y       z     vdW  Elec       q    Type
REMARK                         _______ _______ _______ _____ _____    ______ ____
ROOT
ATOM      1  C   UNL     1       1.130   9.278  21.845  0.00  0.00    +0.000 C 
ENDROOT
BRANCH   1   2
ATOM      2  C   UNL     1       1.483   8.779  20.444  0.00  0.00    +0.000 C 
BRANCH   2   5
ATOM      3  C   UNL     1       2.429   6.763  19.368  0.00  0.00    +0.000 C 
ATOM      4  O   UNL     1       2.796   7.361  18.366  0.00  0.00    +0.000 OA
ATOM      5  N   UNL     1       1.809   7.367  20.441  0.00  0.00    +0.000 N 
ATOM      6  H   UNL     1       1.699   6.843  21.297  0.00  0.00    +0.000 HD
BRANCH   3  11
ATOM      7  C   UNL     1       2.498   2.508  21.596  0.00  0.00    +0.000 C 
ATOM      8  C   UNL     1       2.421   3.074  20.173  0.00  0.00    +0.000 C 
ATOM      9  C   UNL     1       1.574   2.148  19.296  0.00  0.00    +0.000 C 
ATOM     10  C   UNL     1       1.870   4.462  20.191  0.00  0.00    +0.000 C 
ATOM     11  C   UNL     1       2.680   5.313  19.546  0.00  0.00    +0.000 C 
ATOM     12  C   UNL     1       3.846   4.577  18.950  0.00  0.00    +0.000 C 
ATOM     13  C   UNL     1       5.214   5.201  19.260  0.00  0.00    +0.000 C 
ATOM     14  C   UNL     1       3.711   4.381  17.431  0.00  0.00    +0.000 C 
ATOM     15  N   UNL     1       3.778   3.219  19.590  0.00  0.00    +0.000 NA
ATOM     16  H   UNL     1       4.459   3.192  20.346  0.00  0.00    +0.000 HD
ENDBRANCH   3  11
ENDBRANCH   2   5
ENDBRANCH   1   2
BRANCH   1  17
ATOM     17  C   UNL     1       0.043  10.351  21.788  0.00  0.00    +0.000 C 
BRANCH  17  18
ATOM     18  N   UNL     1      -0.809  10.220  20.615  0.00  0.00    +0.000 N 
ATOM     19  C   UNL     1      -1.100  11.292  19.800  0.00  0.00    +0.000 C 
ATOM     20  O   UNL     1      -0.605  12.401  19.971  0.00  0.00    +0.000 OA
ATOM     21  H   UNL     1      -1.265   9.324  20.488  0.00  0.00    +0.000 HD
BRANCH  19  22
ATOM     22  C   UNL     1      -2.045  11.078  18.666  0.00  0.00    +0.000 A 
ATOM     23  C   UNL     1      -1.554  10.260  17.627  0.00  0.00    +0.000 A 
ATOM     24  C   UNL     1      -2.322   9.987  16.491  0.00  0.00    +0.000 A 
ATOM     25  C   UNL     1      -3.597  10.524  16.375  0.00  0.00    +0.000 A 
ATOM     26  C   UNL     1      -4.104  11.326  17.401  0.00  0.00    +0.000 A 
ATOM     27  C   UNL     1      -3.345  11.600  18.557  0.00  0.00    +0.000 A 
BRANCH  27  28
ATOM     28  C   UNL     1      -4.035  12.461  19.549  0.00  0.00    +0.000 C 
ATOM     29  O   UNL     1      -5.097  12.133  20.053  0.00  0.00    +0.000 OA
BRANCH  28  30
ATOM     30  O   UNL     1      -3.402  13.596  19.894  0.00  0.00    +0.000 OA
ATOM     31  H   UNL     1      -3.562  13.938  20.795  0.00  0.00    +0.000 HD
ENDBRANCH  28  30
ENDBRANCH  27  28
ENDBRANCH  19  22
ENDBRANCH  17  18
ENDBRANCH   1  17
TORSDOF 8
ENDMDL
MODEL 7
REMARK VINA RESULT:      -7.6      3.862     10.006
REMARK  Name = 
REMARK  12 active torsions:
REMARK  status: ('A' for Active; 'I' for Inactive)
REMARK    1  A    between atoms: C_1  and  C_2
REMARK    2  A    between atoms: C_2  and  C_3
REMARK    3  A    between atoms: C_5  and  C_6
REMARK    4  A    between atoms: N_8  and  C_9
REMARK    5  A    between atoms: C_9  and  C_10
REMARK    6  A    between atoms: C_10  and  C_11
REMARK    7  A    between atoms: C_11  and  N_12
REMARK    8  A    between atoms: C_13  and  C_15
REMARK    9  A    between atoms: C_20  and  C_21
REMARK   10  A    between atoms: C_21  and  O_23
REMARK   11  A    between atoms: C_24  and  C_25
REMARK   12  A    between atoms: C_24  and  C_26
REMARK                            x       y       z     vdW  Elec       q    Type
REMARK                         _______ _______ _______ _____ _____    ______ ____
ROOT
ATOM      1  C   UNL     1      -0.177   9.082  21.816  0.00  0.00    +0.000 C 
ENDROOT
BRANCH   1   2
ATOM      2  C   UNL     1       1.266   8.822  21.381  0.00  0.00    +0.000 C 
BRANCH   2   5
ATOM      3  C   UNL     1       2.028   6.952  19.953  0.00  0.00    +0.000 C 
ATOM      4  O   UNL     1       2.362   7.677  19.026  0.00  0.00    +0.000 OA
ATOM      5  N   UNL     1       1.513   7.413  21.145  0.00  0.00    +0.000 N 
ATOM      6  H   UNL     1       1.430   6.772  21.920  0.00  0.00    +0.000 HD
BRANCH   3  11
ATOM      7  C   UNL     1       1.970   2.406  21.504  0.00  0.00    +0.000 C 
ATOM      8  C   UNL     1       1.861   3.188  20.189  0.00  0.00    +0.000 C 
ATOM      9  C   UNL     1       0.929   2.447  19.225  0.00  0.00    +0.000 C 
ATOM     10  C   UNL     1       1.385   4.580  20.445  0.00  0.00    +0.000 C 
ATOM     11  C   UNL     1       2.210   5.482  19.896  0.00  0.00    +0.000 C 
ATOM     12  C   UNL     1       3.309   4.794  19.137  0.00  0.00    +0.000 C 
ATOM     13  C   UNL     1       4.720   5.300  19.469  0.00  0.00    +0.000 C 
ATOM     14  C   UNL     1       3.099   4.842  17.615  0.00  0.00    +0.000 C 
ATOM     15  N   UNL     1       3.197   3.359  19.566  0.00  0.00    +0.000 NA
ATOM     16  H   UNL     1       3.908   3.184  20.274  0.00  0.00    +0.000 HD
ENDBRANCH   3  11
ENDBRANCH   2   5
ENDBRANCH   1   2
BRANCH   1  17
ATOM     17  C   UNL     1      -0.223   9.781  23.174  0.00  0.00    +0.000 C 
BRANCH  17  18
ATOM     18  N   UNL     1      -1.306  10.749  23.266  0.00  0.00    +0.000 N 
ATOM     19  C   UNL     1      -1.157  12.055  22.852  0.00  0.00    +0.000 C 
ATOM     20  O   UNL     1      -0.130  12.461  22.318  0.00  0.00    +0.000 OA
ATOM     21  H   UNL     1      -2.143  10.444  23.750  0.00  0.00    +0.000 HD
BRANCH  19  22
ATOM     22  C   UNL     1      -2.297  12.994  23.058  0.00  0.00    +0.000 A 
ATOM     23  C   UNL     1      -3.550  12.516  22.621  0.00  0.00    +0.000 A 
ATOM     24  C   UNL     1      -4.706  13.294  22.732  0.00  0.00    +0.000 A 
ATOM     25  C   UNL     1      -4.631  14.564  23.288  0.00  0.00    +0.000 A 
ATOM     26  C   UNL     1      -3.400  15.049  23.738  0.00  0.00    +0.000 A 
ATOM     27  C   UNL     1      -2.229  14.270  23.643  0.00  0.00    +0.000 A 
BRANCH  27  28
ATOM     28  C   UNL     1      -1.012  14.932  24.173  0.00  0.00    +0.000 C 
ATOM     29  O   UNL     1      -0.888  15.190  25.360  0.00  0.00    +0.000 OA
BRANCH  28  30
ATOM     30  O   UNL     1      -0.036  15.187  23.283  0.00  0.00    +0.000 OA
ATOM     31  H   UNL     1       0.814  14.725  23.411  0.00  0.00    +0.000 HD
ENDBRANCH  28  30
ENDBRANCH  27  28
ENDBRANCH  19  22
ENDBRANCH  17  18
ENDBRANCH   1  17
TORSDOF 8
ENDMDL
MODEL 8
REMARK VINA RESULT:      -7.5      2.433      4.008
REMARK  Name = 
REMARK  12 active torsions:
REMARK  status: ('A' for Active; 'I' for Inactive)
REMARK    1  A    between atoms: C_1  and  C_2
REMARK    2  A    between atoms: C_2  and  C_3
REMARK    3  A    between atoms: C_5  and  C_6
REMARK    4  A    between atoms: N_8  and  C_9
REMARK    5  A    between atoms: C_9  and  C_10
REMARK    6  A    between atoms: C_10  and  C_11
REMARK    7  A    between atoms: C_11  and  N_12
REMARK    8  A    between atoms: C_13  and  C_15
REMARK    9  A    between atoms: C_20  and  C_21
REMARK   10  A    between atoms: C_21  and  O_23
REMARK   11  A    between atoms: C_24  and  C_25
REMARK   12  A    between atoms: C_24  and  C_26
REMARK                            x       y       z     vdW  Elec       q    Type
REMARK                         _______ _______ _______ _____ _____    ______ ____
ROOT
ATOM      1  C   UNL     1       1.779   5.716  19.982  0.00  0.00    +0.000 C 
ENDROOT
BRANCH   1   2
ATOM      2  C   UNL     1       2.574   7.018  19.879  0.00  0.00    +0.000 C 
BRANCH   2   5
ATOM      3  C   UNL     1       1.169   9.027  20.200  0.00  0.00    +0.000 C 
ATOM      4  O   UNL     1       1.307   9.040  21.416  0.00  0.00    +0.000 OA
ATOM      5  N   UNL     1       1.764   8.105  19.367  0.00  0.00    +0.000 N 
ATOM      6  H   UNL     1       1.746   8.267  18.371  0.00  0.00    +0.000 HD
BRANCH   3  11
ATOM      7  C   UNL     1      -2.156  10.828  17.238  0.00  0.00    +0.000 C 
ATOM      8  C   UNL     1      -1.412  11.213  18.523  0.00  0.00    +0.000 C 
ATOM      9  C   UNL     1      -2.326  12.061  19.413  0.00  0.00    +0.000 C 
ATOM     10  C   UNL     1      -0.935   9.992  19.238  0.00  0.00    +0.000 C 
ATOM     11  C   UNL     1       0.378  10.064  19.496  0.00  0.00    +0.000 C 
ATOM     12  C   UNL     1       0.929  11.388  19.046  0.00  0.00    +0.000 C 
ATOM     13  C   UNL     1       2.199  11.286  18.189  0.00  0.00    +0.000 C 
ATOM     14  C   UNL     1       1.182  12.354  20.215  0.00  0.00    +0.000 C 
ATOM     15  N   UNL     1      -0.175  11.969  18.208  0.00  0.00    +0.000 NA
ATOM     16  H   UNL     1       0.058  11.814  17.228  0.00  0.00    +0.000 HD
ENDBRANCH   3  11
ENDBRANCH   2   5
ENDBRANCH   1   2
BRANCH   1  17
ATOM     17  C   UNL     1       2.681   4.503  19.753  0.00  0.00    +0.000 C 
BRANCH  17  18
ATOM     18  N   UNL     1       3.488   4.628  18.549  0.00  0.00    +0.000 N 
ATOM     19  C   UNL     1       4.792   4.185  18.494  0.00  0.00    +0.000 C 
ATOM     20  O   UNL     1       5.325   3.595  19.427  0.00  0.00    +0.000 OA
ATOM     21  H   UNL     1       3.080   5.156  17.786  0.00  0.00    +0.000 HD
BRANCH  19  22
ATOM     22  C   UNL     1       5.566   4.426  17.242  0.00  0.00    +0.000 A 
ATOM     23  C   UNL     1       4.981   3.905  16.069  0.00  0.00    +0.000 A 
ATOM     24  C   UNL     1       5.602   4.038  14.823  0.00  0.00    +0.000 A 
ATOM     25  C   UNL     1       6.818   4.701  14.727  0.00  0.00    +0.000 A 
ATOM     26  C   UNL     1       7.406   5.235  15.877  0.00  0.00    +0.000 A 
ATOM     27  C   UNL     1       6.785   5.117  17.138  0.00  0.00    +0.000 A 
BRANCH  27  28
ATOM     28  C   UNL     1       7.539   5.746  18.250  0.00  0.00    +0.000 C 
ATOM     29  O   UNL     1       7.707   6.953  18.308  0.00  0.00    +0.000 OA
BRANCH  28  30
ATOM     30  O   UNL     1       7.984   4.916  19.211  0.00  0.00    +0.000 OA
ATOM     31  H   UNL     1       8.356   5.326  20.015  0.00  0.00    +0.000 HD
ENDBRANCH  28  30
ENDBRANCH  27  28
ENDBRANCH  19  22
ENDBRANCH  17  18
ENDBRANCH   1  17
TORSDOF 8
ENDMDL
MODEL 9
REMARK VINA RESULT:      -7.5      2.680      8.442
REMARK  Name = 
REMARK  12 active torsions:
REMARK  status: ('A' for Active; 'I' for Inactive)
REMARK    1  A    between atoms: C_1  and  C_2
REMARK    2  A    between atoms: C_2  and  C_3
REMARK    3  A    between atoms: C_5  and  C_6
REMARK    4  A    between atoms: N_8  and  C_9
REMARK    5  A    between atoms: C_9  and  C_10
REMARK    6  A    between atoms: C_10  and  C_11
REMARK    7  A    between atoms: C_11  and  N_12
REMARK    8  A    between atoms: C_13  and  C_15
REMARK    9  A    between atoms: C_20  and  C_21
REMARK   10  A    between atoms: C_21  and  O_23
REMARK   11  A    between atoms: C_24  and  C_25
REMARK   12  A    between atoms: C_24  and  C_26
REMARK                            x       y       z     vdW  Elec       q    Type
REMARK                         _______ _______ _______ _____ _____    ______ ____
ROOT
ATOM      1  C   UNL     1       1.169   9.459  17.868  0.00  0.00    +0.000 C 
ENDROOT
BRANCH   1   2
ATOM      2  C   UNL     1       2.492   8.695  17.802  0.00  0.00    +0.000 C 
BRANCH   2   5
ATOM      3  C   UNL     1       3.363   6.406  18.145  0.00  0.00    +0.000 C 
ATOM      4  O   UNL     1       4.462   6.656  17.668  0.00  0.00    +0.000 OA
ATOM      5  N   UNL     1       2.352   7.333  18.278  0.00  0.00    +0.000 N 
ATOM      6  H   UNL     1       1.547   7.098  18.839  0.00  0.00    +0.000 HD
BRANCH   3  11
ATOM      7  C   UNL     1       1.500   3.176  21.173  0.00  0.00    +0.000 C 
ATOM      8  C   UNL     1       1.881   3.298  19.693  0.00  0.00    +0.000 C 
ATOM      9  C   UNL     1       0.922   2.458  18.843  0.00  0.00    +0.000 C 
ATOM     10  C   UNL     1       1.875   4.729  19.266  0.00  0.00    +0.000 C 
ATOM     11  C   UNL     1       3.037   5.067  18.690  0.00  0.00    +0.000 C 
ATOM     12  C   UNL     1       3.943   3.871  18.594  0.00  0.00    +0.000 C 
ATOM     13  C   UNL     1       5.368   4.113  19.113  0.00  0.00    +0.000 C 
ATOM     14  C   UNL     1       4.012   3.291  17.172  0.00  0.00    +0.000 C 
ATOM     15  N   UNL     1       3.277   2.847  19.470  0.00  0.00    +0.000 NA
ATOM     16  H   UNL     1       3.760   2.837  20.367  0.00  0.00    +0.000 HD
ENDBRANCH   3  11
ENDBRANCH   2   5
ENDBRANCH   1   2
BRANCH   1  17
ATOM     17  C   UNL     1       1.389  10.897  18.337  0.00  0.00    +0.000 C 
BRANCH  17  18
ATOM     18  N   UNL     1       0.369  11.339  19.277  0.00  0.00    +0.000 N 
ATOM     19  C   UNL     1       0.565  11.297  20.640  0.00  0.00    +0.000 C 
ATOM     20  O   UNL     1       1.631  10.955  21.141  0.00  0.00    +0.000 OA
ATOM     21  H   UNL     1      -0.533  11.577  18.882  0.00  0.00    +0.000 HD
BRANCH  19  22
ATOM     22  C   UNL     1      -0.566  11.697  21.527  0.00  0.00    +0.000 A 
ATOM     23  C   UNL     1      -1.214  12.897  21.163  0.00  0.00    +0.000 A 
ATOM     24  C   UNL     1      -2.279  13.405  21.912  0.00  0.00    +0.000 A 
ATOM     25  C   UNL     1      -2.720  12.721  23.036  0.00  0.00    +0.000 A 
ATOM     26  C   UNL     1      -2.099  11.524  23.404  0.00  0.00    +0.000 A 
ATOM     27  C   UNL     1      -1.031  10.994  22.651  0.00  0.00    +0.000 A 
BRANCH  27  28
ATOM     28  C   UNL     1      -0.492   9.715  23.174  0.00  0.00    +0.000 C 
ATOM     29  O   UNL     1       0.428   9.688  23.976  0.00  0.00    +0.000 OA
BRANCH  28  30
ATOM     30  O   UNL     1      -1.104   8.594  22.753  0.00  0.00    +0.000 OA
ATOM     31  H   UNL     1      -0.826   7.754  23.166  0.00  0.00    +0.000 HD
ENDBRANCH  28  30
ENDBRANCH  27  28
ENDBRANCH  19  22
ENDBRANCH  17  18
ENDBRANCH   1  17
TORSDOF 8
ENDMDL
