MODEL 1
REMARK VINA RESULT:      -7.4      0.000      0.000
REMARK  Name = 
REMARK  18 active torsions:
REMARK  status: ('A' for Active; 'I' for Inactive)
REMARK    1  A    between atoms: C_1  and  C_2
REMARK    2  A    between atoms: C_2  and  C_3
REMARK    3  A    between atoms: C_3  and  C_4
REMARK    4  A    between atoms: C_4  and  C_5
REMARK    5  A    between atoms: C_5  and  O_6
REMARK    6  A    between atoms: O_6  and  C_7
REMARK    7  A    between atoms: C_16  and  C_17
REMARK    8  A    between atoms: C_17  and  O_18
REMARK    9  A    between atoms: C_17  and  C_19
REMARK   10  A    between atoms: C_19  and  C_20
REMARK   11  A    between atoms: C_20  and  C_21
REMARK   12  A    between atoms: C_21  and  C_22
REMARK   13  A    between atoms: C_22  and  C_23
REMARK   14  A    between atoms: C_23  and  C_24
REMARK   15  A    between atoms: C_24  and  C_25
REMARK   16  A    between atoms: C_25  and  C_26
REMARK   17  A    between atoms: C_26  and  O_28
REMARK   18  A    between atoms: O_28  and  C_29
REMARK                            x       y       z     vdW  Elec       q    Type
REMARK                         _______ _______ _______ _____ _____    ______ ____
ROOT
ATOM      1  C   UNL     1       4.976   3.740  17.250  0.00  0.00    +0.000 A 
ATOM      2  C   UNL     1       3.676   3.246  17.450  0.00  0.00    +0.000 A 
ATOM      3  C   UNL     1       2.897   3.668  18.538  0.00  0.00    +0.000 A 
ATOM      4  C   UNL     1       1.555   3.273  18.681  0.00  0.00    +0.000 A 
ATOM      5  C   UNL     1       0.780   3.761  19.735  0.00  0.00    +0.000 A 
ATOM      6  C   UNL     1       1.339   4.622  20.674  0.00  0.00    +0.000 A 
ATOM      7  C   UNL     1       2.675   5.000  20.558  0.00  0.00    +0.000 A 
ATOM      8  C   UNL     1       3.458   4.538  19.490  0.00  0.00    +0.000 A 
ATOM      9  C   UNL     1       4.793   4.935  19.346  0.00  0.00    +0.000 A 
ATOM     10  C   UNL     1       5.568   4.555  18.231  0.00  0.00    +0.000 A 
ENDROOT
BRANCH  10  11
ATOM     11  C   UNL     1       6.976   5.113  18.162  0.00  0.00    +0.000 C 
BRANCH  11  12
ATOM     12  O   UNL     1       7.940   4.080  17.941  0.00  0.00    +0.000 OA
ATOM     13  H   UNL     1       7.637   3.309  18.458  0.00  0.00    +0.000 HD
ENDBRANCH  11  12
BRANCH  11  14
ATOM     14  C   UNL     1       7.183   6.179  17.083  0.00  0.00    +0.000 C 
BRANCH  14  15
ATOM     15  C   UNL     1       6.991   7.644  17.503  0.00  0.00    +0.000 C 
BRANCH  15  16
ATOM     16  C   UNL     1       8.244   8.088  18.265  0.00  0.00    +0.000 C 
BRANCH  16  17
ATOM     17  C   UNL     1       8.536   9.581  18.170  0.00  0.00    +0.000 C 
BRANCH  17  18
ATOM     18  C   UNL     1       9.216  10.072  19.459  0.00  0.00    +0.000 C 
BRANCH  18  19
ATOM     19  C   UNL     1      10.203  11.190  19.147  0.00  0.00    +0.000 C 
BRANCH  19  20
ATOM     20  C   UNL     1      10.036  11.774  17.744  0.00  0.00    +0.000 C 
BRANCH  20  21
ATOM     21  C   UNL     1      10.501  13.213  17.732  0.00  0.00    +0.000 C 
ATOM     22  O   UNL     1      11.672  13.571  17.668  0.00  0.00    +0.000 OA
BRANCH  21  23
ATOM     23  O   UNL     1       9.438  14.061  17.802  0.00  0.00    +0.000 OA
ATOM     24  C   UNL     1       9.553  15.009  18.866  0.00  0.00    +0.000 C 
ENDBRANCH  21  23
ENDBRANCH  20  21
ENDBRANCH  19  20
ENDBRANCH  18  19
ENDBRANCH  17  18
ENDBRANCH  16  17
ENDBRANCH  15  16
ENDBRANCH  14  15
ENDBRANCH  11  14
ENDBRANCH  10  11
BRANCH   1  25
ATOM     25  O   UNL     1       5.708   3.459  16.114  0.00  0.00    +0.000 OA
BRANCH  25  26
ATOM     26  C   UNL     1       5.259   4.147  14.932  0.00  0.00    +0.000 C 
BRANCH  26  27
ATOM     27  C   UNL     1       6.454   4.482  14.040  0.00  0.00    +0.000 C 
BRANCH  27  28
ATOM     28  C   UNL     1       6.420   3.681  12.732  0.00  0.00    +0.000 C 
BRANCH  28  30
ATOM     29  C   UNL     1       7.959   5.600  12.134  0.00  0.00    +0.000 C 
ATOM     30  C   UNL     1       7.339   4.289  11.669  0.00  0.00    +0.000 C 
ENDBRANCH  28  30
ENDBRANCH  27  28
ENDBRANCH  26  27
ENDBRANCH  25  26
ENDBRANCH   1  25
TORSDOF 16
ENDMDL
MODEL 2
REMARK VINA RESULT:      -7.2      1.114      1.401
REMARK  Name = 
REMARK  18 active torsions:
REMARK  status: ('A' for Active; 'I' for Inactive)
REMARK    1  A    between atoms: C_1  and  C_2
REMARK    2  A    between atoms: C_2  and  C_3
REMARK    3  A    between atoms: C_3  and  C_4
REMARK    4  A    between atoms: C_4  and  C_5
REMARK    5  A    between atoms: C_5  and  O_6
REMARK    6  A    between atoms: O_6  and  C_7
REMARK    7  A    between atoms: C_16  and  C_17
REMARK    8  A    between atoms: C_17  and  O_18
REMARK    9  A    between atoms: C_17  and  C_19
REMARK   10  A    between atoms: C_19  and  C_20
REMARK   11  A    between atoms: C_20  and  C_21
REMARK   12  A    between atoms: C_21  and  C_22
REMARK   13  A    between atoms: C_22  and  C_23
REMARK   14  A    between atoms: C_23  and  C_24
REMARK   15  A    between atoms: C_24  and  C_25
REMARK   16  A    between atoms: C_25  and  C_26
REMARK   17  A    between atoms: C_26  and  O_28
REMARK   18  A    between atoms: O_28  and  C_29
REMARK                            x       y       z     vdW  Elec       q    Type
REMARK                         _______ _______ _______ _____ _____    ______ ____
ROOT
ATOM      1  C   UNL     1       5.210   4.084  17.295  0.00  0.00    +0.000 A 
ATOM      2  C   UNL     1       4.061   3.276  17.322  0.00  0.00    +0.000 A 
ATOM      3  C   UNL     1       3.075   3.444  18.306  0.00  0.00    +0.000 A 
ATOM      4  C   UNL     1       1.868   2.724  18.272  0.00  0.00    +0.000 A 
ATOM      5  C   UNL     1       0.873   2.961  19.224  0.00  0.00    +0.000 A 
ATOM      6  C   UNL     1       1.082   3.892  20.235  0.00  0.00    +0.000 A 
ATOM      7  C   UNL     1       2.284   4.593  20.296  0.00  0.00    +0.000 A 
ATOM      8  C   UNL     1       3.281   4.385  19.332  0.00  0.00    +0.000 A 
ATOM      9  C   UNL     1       4.482   5.106  19.364  0.00  0.00    +0.000 A 
ATOM     10  C   UNL     1       5.456   4.977  18.353  0.00  0.00    +0.000 A 
ENDROOT
BRANCH  10  11
ATOM     11  C   UNL     1       6.677   5.868  18.471  0.00  0.00    +0.000 C 
BRANCH  11  12
ATOM     12  O   UNL     1       7.870   5.178  18.089  0.00  0.00    +0.000 OA
ATOM     13  H   UNL     1       7.934   5.264  17.119  0.00  0.00    +0.000 HD
ENDBRANCH  11  12
BRANCH  11  14
ATOM     14  C   UNL     1       6.602   7.157  17.648  0.00  0.00    +0.000 C 
BRANCH  14  15
ATOM     15  C   UNL     1       7.932   7.845  17.307  0.00  0.00    +0.000 C 
BRANCH  15  16
ATOM     16  C   UNL     1       8.351   8.693  18.513  0.00  0.00    +0.000 C 
BRANCH  16  17
ATOM     17  C   UNL     1       8.757  10.120  18.162  0.00  0.00    +0.000 C 
BRANCH  17  18
ATOM     18  C   UNL     1       9.449  10.785  19.363  0.00  0.00    +0.000 C 
BRANCH  18  19
ATOM     19  C   UNL     1      10.891  11.135  19.019  0.00  0.00    +0.000 C 
BRANCH  19  20
ATOM     20  C   UNL     1      11.244  12.598  19.291  0.00  0.00    +0.000 C 
BRANCH  20  21
ATOM     21  C   UNL     1      10.465  13.492  18.353  0.00  0.00    +0.000 C 
ATOM     22  O   UNL     1      10.481  13.410  17.130  0.00  0.00    +0.000 OA
BRANCH  21  23
ATOM     23  O   UNL     1       9.738  14.407  19.055  0.00  0.00    +0.000 OA
ATOM     24  C   UNL     1      10.177  15.749  18.837  0.00  0.00    +0.000 C 
ENDBRANCH  21  23
ENDBRANCH  20  21
ENDBRANCH  19  20
ENDBRANCH  18  19
ENDBRANCH  17  18
ENDBRANCH  16  17
ENDBRANCH  15  16
ENDBRANCH  14  15
ENDBRANCH  11  14
ENDBRANCH  10  11
BRANCH   1  25
ATOM     25  O   UNL     1       6.121   4.041  16.260  0.00  0.00    +0.000 OA
BRANCH  25  26
ATOM     26  C   UNL     1       5.659   4.642  15.036  0.00  0.00    +0.000 C 
BRANCH  26  27
ATOM     27  C   UNL     1       5.954   3.715  13.857  0.00  0.00    +0.000 C 
BRANCH  27  28
ATOM     28  C   UNL     1       5.141   4.106  12.617  0.00  0.00    +0.000 C 
BRANCH  28  30
ATOM     29  C   UNL     1       3.716   3.144  10.759  0.00  0.00    +0.000 C 
ATOM     30  C   UNL     1       4.888   2.905  11.702  0.00  0.00    +0.000 C 
ENDBRANCH  28  30
ENDBRANCH  27  28
ENDBRANCH  26  27
ENDBRANCH  25  26
ENDBRANCH   1  25
TORSDOF 16
ENDMDL
MODEL 3
REMARK VINA RESULT:      -7.2      1.130      1.549
REMARK  Name = 
REMARK  18 active torsions:
REMARK  status: ('A' for Active; 'I' for Inactive)
REMARK    1  A    between atoms: C_1  and  C_2
REMARK    2  A    between atoms: C_2  and  C_3
REMARK    3  A    between atoms: C_3  and  C_4
REMARK    4  A    between atoms: C_4  and  C_5
REMARK    5  A    between atoms: C_5  and  O_6
REMARK    6  A    between atoms: O_6  and  C_7
REMARK    7  A    between atoms: C_16  and  C_17
REMARK    8  A    between atoms: C_17  and  O_18
REMARK    9  A    between atoms: C_17  and  C_19
REMARK   10  A    between atoms: C_19  and  C_20
REMARK   11  A    between atoms: C_20  and  C_21
REMARK   12  A    between atoms: C_21  and  C_22
REMARK   13  A    between atoms: C_22  and  C_23
REMARK   14  A    between atoms: C_23  and  C_24
REMARK   15  A    between atoms: C_24  and  C_25
REMARK   16  A    between atoms: C_25  and  C_26
REMARK   17  A    between atoms: C_26  and  O_28
REMARK   18  A    between atoms: O_28  and  C_29
REMARK                            x       y       z     vdW  Elec       q    Type
REMARK                         _______ _______ _______ _____ _____    ______ ____
ROOT
ATOM      1  C   UNL     1       4.745   4.767  17.042  0.00  0.00    +0.000 A 
ATOM      2  C   UNL     1       3.536   4.055  16.996  0.00  0.00    +0.000 A 
ATOM      3  C   UNL     1       2.767   3.850  18.152  0.00  0.00    +0.000 A 
ATOM      4  C   UNL     1       1.500   3.244  18.097  0.00  0.00    +0.000 A 
ATOM      5  C   UNL     1       0.725   3.114  19.252  0.00  0.00    +0.000 A 
ATOM      6  C   UNL     1       1.215   3.557  20.476  0.00  0.00    +0.000 A 
ATOM      7  C   UNL     1       2.480   4.135  20.548  0.00  0.00    +0.000 A 
ATOM      8  C   UNL     1       3.259   4.295  19.392  0.00  0.00    +0.000 A 
ATOM      9  C   UNL     1       4.520   4.903  19.447  0.00  0.00    +0.000 A 
ATOM     10  C   UNL     1       5.277   5.155  18.284  0.00  0.00    +0.000 A 
ENDROOT
BRANCH  10  11
ATOM     11  C   UNL     1       6.592   5.884  18.478  0.00  0.00    +0.000 C 
BRANCH  11  12
ATOM     12  O   UNL     1       7.709   5.035  18.198  0.00  0.00    +0.000 OA
ATOM     13  H   UNL     1       7.335   4.185  17.898  0.00  0.00    +0.000 HD
ENDBRANCH  11  12
BRANCH  11  14
ATOM     14  C   UNL     1       6.747   7.149  17.627  0.00  0.00    +0.000 C 
BRANCH  14  15
ATOM     15  C   UNL     1       8.151   7.765  17.542  0.00  0.00    +0.000 C 
BRANCH  15  16
ATOM     16  C   UNL     1       8.064   9.215  18.029  0.00  0.00    +0.000 C 
BRANCH  16  17
ATOM     17  C   UNL     1       9.210   9.638  18.941  0.00  0.00    +0.000 C 
BRANCH  17  18
ATOM     18  C   UNL     1       9.188  11.160  19.150  0.00  0.00    +0.000 C 
BRANCH  18  19
ATOM     19  C   UNL     1       9.020  11.878  17.816  0.00  0.00    +0.000 C 
BRANCH  19  20
ATOM     20  C   UNL     1       9.305  13.379  17.894  0.00  0.00    +0.000 C 
BRANCH  20  21
ATOM     21  C   UNL     1      10.774  13.633  17.642  0.00  0.00    +0.000 C 
ATOM     22  O   UNL     1      11.359  13.384  16.593  0.00  0.00    +0.000 OA
BRANCH  21  23
ATOM     23  O   UNL     1      11.362  14.179  18.742  0.00  0.00    +0.000 OA
ATOM     24  C   UNL     1      12.331  13.315  19.340  0.00  0.00    +0.000 C 
ENDBRANCH  21  23
ENDBRANCH  20  21
ENDBRANCH  19  20
ENDBRANCH  18  19
ENDBRANCH  17  18
ENDBRANCH  16  17
ENDBRANCH  15  16
ENDBRANCH  14  15
ENDBRANCH  11  14
ENDBRANCH  10  11
BRANCH   1  25
ATOM     25  O   UNL     1       5.446   5.111  15.904  0.00  0.00    +0.000 OA
BRANCH  25  26
ATOM     26  C   UNL     1       5.791   3.998  15.059  0.00  0.00    +0.000 C 
BRANCH  26  27
ATOM     27  C   UNL     1       5.475   4.332  13.601  0.00  0.00    +0.000 C 
BRANCH  27  28
ATOM     28  C   UNL     1       6.335   3.508  12.636  0.00  0.00    +0.000 C 
BRANCH  28  30
ATOM     29  C   UNL     1       4.202   3.166  11.316  0.00  0.00    +0.000 C 
ATOM     30  C   UNL     1       5.490   2.527  11.818  0.00  0.00    +0.000 C 
ENDBRANCH  28  30
ENDBRANCH  27  28
ENDBRANCH  26  27
ENDBRANCH  25  26
ENDBRANCH   1  25
TORSDOF 16
ENDMDL
MODEL 4
REMARK VINA RESULT:      -7.2      1.351      5.208
REMARK  Name = 
REMARK  18 active torsions:
REMARK  status: ('A' for Active; 'I' for Inactive)
REMARK    1  A    between atoms: C_1  and  C_2
REMARK    2  A    between atoms: C_2  and  C_3
REMARK    3  A    between atoms: C_3  and  C_4
REMARK    4  A    between atoms: C_4  and  C_5
REMARK    5  A    between atoms: C_5  and  O_6
REMARK    6  A    between atoms: O_6  and  C_7
REMARK    7  A    between atoms: C_16  and  C_17
REMARK    8  A    between atoms: C_17  and  O_18
REMARK    9  A    between atoms: C_17  and  C_19
REMARK   10  A    between atoms: C_19  and  C_20
REMARK   11  A    between atoms: C_20  and  C_21
REMARK   12  A    between atoms: C_21  and  C_22
REMARK   13  A    between atoms: C_22  and  C_23
REMARK   14  A    between atoms: C_23  and  C_24
REMARK   15  A    between atoms: C_24  and  C_25
REMARK   16  A    between atoms: C_25  and  C_26
REMARK   17  A    between atoms: C_26  and  O_28
REMARK   18  A    between atoms: O_28  and  C_29
REMARK                            x       y       z     vdW  Elec       q    Type
REMARK                         _______ _______ _______ _____ _____    ______ ____
ROOT
ATOM      1  C   UNL     1       5.253   4.201  16.726  0.00  0.00    +0.000 A 
ATOM      2  C   UNL     1       5.017   3.659  15.452  0.00  0.00    +0.000 A 
ATOM      3  C   UNL     1       5.825   3.996  14.355  0.00  0.00    +0.000 A 
ATOM      4  C   UNL     1       5.673   3.370  13.107  0.00  0.00    +0.000 A 
ATOM      5  C   UNL     1       6.535   3.674  12.050  0.00  0.00    +0.000 A 
ATOM      6  C   UNL     1       7.535   4.626  12.216  0.00  0.00    +0.000 A 
ATOM      7  C   UNL     1       7.679   5.274  13.440  0.00  0.00    +0.000 A 
ATOM      8  C   UNL     1       6.838   4.959  14.518  0.00  0.00    +0.000 A 
ATOM      9  C   UNL     1       6.992   5.581  15.763  0.00  0.00    +0.000 A 
ATOM     10  C   UNL     1       6.217   5.213  16.882  0.00  0.00    +0.000 A 
ENDROOT
BRANCH  10  11
ATOM     11  C   UNL     1       6.536   5.915  18.188  0.00  0.00    +0.000 C 
BRANCH  11  12
ATOM     12  O   UNL     1       6.599   4.992  19.278  0.00  0.00    +0.000 OA
ATOM     13  H   UNL     1       5.679   4.724  19.462  0.00  0.00    +0.000 HD
ENDBRANCH  11  12
BRANCH  11  14
ATOM     14  C   UNL     1       7.844   6.710  18.177  0.00  0.00    +0.000 C 
BRANCH  14  15
ATOM     15  C   UNL     1       7.762   8.184  17.754  0.00  0.00    +0.000 C 
BRANCH  15  16
ATOM     16  C   UNL     1       8.662   8.998  18.689  0.00  0.00    +0.000 C 
BRANCH  16  17
ATOM     17  C   UNL     1       8.979  10.402  18.187  0.00  0.00    +0.000 C 
BRANCH  17  18
ATOM     18  C   UNL     1       9.933  11.112  19.161  0.00  0.00    +0.000 C 
BRANCH  18  19
ATOM     19  C   UNL     1      11.149  11.649  18.416  0.00  0.00    +0.000 C 
BRANCH  19  20
ATOM     20  C   UNL     1      11.463  13.110  18.739  0.00  0.00    +0.000 C 
BRANCH  20  21
ATOM     21  C   UNL     1      11.854  13.840  17.474  0.00  0.00    +0.000 C 
ATOM     22  O   UNL     1      12.315  13.306  16.471  0.00  0.00    +0.000 OA
BRANCH  21  23
ATOM     23  O   UNL     1      11.622  15.176  17.599  0.00  0.00    +0.000 OA
ATOM     24  C   UNL     1      10.579  15.475  18.530  0.00  0.00    +0.000 C 
ENDBRANCH  21  23
ENDBRANCH  20  21
ENDBRANCH  19  20
ENDBRANCH  18  19
ENDBRANCH  17  18
ENDBRANCH  16  17
ENDBRANCH  15  16
ENDBRANCH  14  15
ENDBRANCH  11  14
ENDBRANCH  10  11
BRANCH   1  25
ATOM     25  O   UNL     1       4.573   3.778  17.849  0.00  0.00    +0.000 OA
BRANCH  25  26
ATOM     26  C   UNL     1       3.154   4.015  17.809  0.00  0.00    +0.000 C 
BRANCH  26  27
ATOM     27  C   UNL     1       2.415   2.706  17.533  0.00  0.00    +0.000 C 
BRANCH  27  28
ATOM     28  C   UNL     1       1.540   2.292  18.723  0.00  0.00    +0.000 C 
BRANCH  28  30
ATOM     29  C   UNL     1       1.339   3.265  21.051  0.00  0.00    +0.000 C 
ATOM     30  C   UNL     1       1.116   3.500  19.563  0.00  0.00    +0.000 C 
ENDBRANCH  28  30
ENDBRANCH  27  28
ENDBRANCH  26  27
ENDBRANCH  25  26
ENDBRANCH   1  25
TORSDOF 16
ENDMDL
MODEL 5
REMARK VINA RESULT:      -7.1      2.818      7.979
REMARK  Name = 
REMARK  18 active torsions:
REMARK  status: ('A' for Active; 'I' for Inactive)
REMARK    1  A    between atoms: C_1  and  C_2
REMARK    2  A    between atoms: C_2  and  C_3
REMARK    3  A    between atoms: C_3  and  C_4
REMARK    4  A    between atoms: C_4  and  C_5
REMARK    5  A    between atoms: C_5  and  O_6
REMARK    6  A    between atoms: O_6  and  C_7
REMARK    7  A    between atoms: C_16  and  C_17
REMARK    8  A    between atoms: C_17  and  O_18
REMARK    9  A    between atoms: C_17  and  C_19
REMARK   10  A    between atoms: C_19  and  C_20
REMARK   11  A    between atoms: C_20  and  C_21
REMARK   12  A    between atoms: C_21  and  C_22
REMARK   13  A    between atoms: C_22  and  C_23
REMARK   14  A    between atoms: C_23  and  C_24
REMARK   15  A    between atoms: C_24  and  C_25
REMARK   16  A    between atoms: C_25  and  C_26
REMARK   17  A    between atoms: C_26  and  O_28
REMARK   18  A    between atoms: O_28  and  C_29
REMARK                            x       y       z     vdW  Elec       q    Type
REMARK                         _______ _______ _______ _____ _____    ______ ____
ROOT
ATOM      1  C   UNL     1       6.158   5.526  16.522  0.00  0.00    +0.000 A 
ATOM      2  C   UNL     1       7.100   5.584  15.482  0.00  0.00    +0.000 A 
ATOM      3  C   UNL     1       6.906   4.883  14.283  0.00  0.00    +0.000 A 
ATOM      4  C   UNL     1       7.781   5.029  13.193  0.00  0.00    +0.000 A 
ATOM      5  C   UNL     1       7.527   4.372  11.986  0.00  0.00    +0.000 A 
ATOM      6  C   UNL     1       6.419   3.541  11.862  0.00  0.00    +0.000 A 
ATOM      7  C   UNL     1       5.559   3.367  12.944  0.00  0.00    +0.000 A 
ATOM      8  C   UNL     1       5.787   4.040  14.153  0.00  0.00    +0.000 A 
ATOM      9  C   UNL     1       4.912   3.898  15.238  0.00  0.00    +0.000 A 
ATOM     10  C   UNL     1       5.073   4.635  16.428  0.00  0.00    +0.000 A 
ENDROOT
BRANCH  10  11
ATOM     11  C   UNL     1       4.015   4.439  17.496  0.00  0.00    +0.000 C 
BRANCH  11  12
ATOM     12  O   UNL     1       3.268   5.638  17.720  0.00  0.00    +0.000 OA
ATOM     13  H   UNL     1       2.895   5.892  16.855  0.00  0.00    +0.000 HD
ENDBRANCH  11  12
BRANCH  11  14
ATOM     14  C   UNL     1       3.015   3.318  17.198  0.00  0.00    +0.000 C 
BRANCH  14  15
ATOM     15  C   UNL     1       3.200   1.998  17.960  0.00  0.00    +0.000 C 
BRANCH  15  16
ATOM     16  C   UNL     1       3.089   2.293  19.459  0.00  0.00    +0.000 C 
BRANCH  16  17
ATOM     17  C   UNL     1       1.658   2.460  19.959  0.00  0.00    +0.000 C 
BRANCH  17  18
ATOM     18  C   UNL     1       1.622   3.432  21.149  0.00  0.00    +0.000 C 
BRANCH  18  19
ATOM     19  C   UNL     1       1.178   4.816  20.692  0.00  0.00    +0.000 C 
BRANCH  19  20
ATOM     20  C   UNL     1       2.278   5.873  20.798  0.00  0.00    +0.000 C 
BRANCH  20  21
ATOM     21  C   UNL     1       1.719   7.230  20.434  0.00  0.00    +0.000 C 
ATOM     22  O   UNL     1       0.975   7.896  21.146  0.00  0.00    +0.000 OA
BRANCH  21  23
ATOM     23  O   UNL     1       2.155   7.615  19.203  0.00  0.00    +0.000 OA
ATOM     24  C   UNL     1       1.699   8.918  18.834  0.00  0.00    +0.000 C 
ENDBRANCH  21  23
ENDBRANCH  20  21
ENDBRANCH  19  20
ENDBRANCH  18  19
ENDBRANCH  17  18
ENDBRANCH  16  17
ENDBRANCH  15  16
ENDBRANCH  14  15
ENDBRANCH  11  14
ENDBRANCH  10  11
BRANCH   1  25
ATOM     25  O   UNL     1       6.247   6.318  17.649  0.00  0.00    +0.000 OA
BRANCH  25  26
ATOM     26  C   UNL     1       7.581   6.762  17.958  0.00  0.00    +0.000 C 
BRANCH  26  27
ATOM     27  C   UNL     1       7.695   8.269  17.724  0.00  0.00    +0.000 C 
BRANCH  27  28
ATOM     28  C   UNL     1       8.682   8.916  18.704  0.00  0.00    +0.000 C 
BRANCH  28  30
ATOM     29  C   UNL     1       9.623  11.141  19.461  0.00  0.00    +0.000 C 
ATOM     30  C   UNL     1       9.014  10.357  18.306  0.00  0.00    +0.000 C 
ENDBRANCH  28  30
ENDBRANCH  27  28
ENDBRANCH  26  27
ENDBRANCH  25  26
ENDBRANCH   1  25
TORSDOF 16
ENDMDL
MODEL 6
REMARK VINA RESULT:      -7.1      2.197      4.422
REMARK  Name = 
REMARK  18 active torsions:
REMARK  status: ('A' for Active; 'I' for Inactive)
REMARK    1  A    between atoms: C_1  and  C_2
REMARK    2  A    between atoms: C_2  and  C_3
REMARK    3  A    between atoms: C_3  and  C_4
REMARK    4  A    between atoms: C_4  and  C_5
REMARK    5  A    between atoms: C_5  and  O_6
REMARK    6  A    between atoms: O_6  and  C_7
REMARK    7  A    between atoms: C_16  and  C_17
REMARK    8  A    between atoms: C_17  and  O_18
REMARK    9  A    between atoms: C_17  and  C_19
REMARK   10  A    between atoms: C_19  and  C_20
REMARK   11  A    between atoms: C_20  and  C_21
REMARK   12  A    between atoms: C_21  and  C_22
REMARK   13  A    between atoms: C_22  and  C_23
REMARK   14  A    between atoms: C_23  and  C_24
REMARK   15  A    between atoms: C_24  and  C_25
REMARK   16  A    between atoms: C_25  and  C_26
REMARK   17  A    between atoms: C_26  and  O_28
REMARK   18  A    between atoms: O_28  and  C_29
REMARK                            x       y       z     vdW  Elec       q    Type
REMARK                         _______ _______ _______ _____ _____    ______ ____
ROOT
ATOM      1  C   UNL     1       4.444   5.092  18.789  0.00  0.00    +0.000 A 
ATOM      2  C   UNL     1       3.563   5.717  19.686  0.00  0.00    +0.000 A 
ATOM      3  C   UNL     1       2.902   6.908  19.348  0.00  0.00    +0.000 A 
ATOM      4  C   UNL     1       1.929   7.476  20.189  0.00  0.00    +0.000 A 
ATOM      5  C   UNL     1       1.235   8.624  19.798  0.00  0.00    +0.000 A 
ATOM      6  C   UNL     1       1.525   9.235  18.582  0.00  0.00    +0.000 A 
ATOM      7  C   UNL     1       2.505   8.697  17.752  0.00  0.00    +0.000 A 
ATOM      8  C   UNL     1       3.191   7.530  18.120  0.00  0.00    +0.000 A 
ATOM      9  C   UNL     1       4.157   6.962  17.280  0.00  0.00    +0.000 A 
ATOM     10  C   UNL     1       4.791   5.741  17.590  0.00  0.00    +0.000 A 
ENDROOT
BRANCH  10  11
ATOM     11  C   UNL     1       5.764   5.202  16.560  0.00  0.00    +0.000 C 
BRANCH  11  12
ATOM     12  O   UNL     1       5.255   5.346  15.231  0.00  0.00    +0.000 OA
ATOM     13  H   UNL     1       4.905   4.471  14.978  0.00  0.00    +0.000 HD
ENDBRANCH  11  12
BRANCH  11  14
ATOM     14  C   UNL     1       7.151   5.850  16.598  0.00  0.00    +0.000 C 
BRANCH  14  15
ATOM     15  C   UNL     1       7.520   6.635  17.865  0.00  0.00    +0.000 C 
BRANCH  15  16
ATOM     16  C   UNL     1       7.666   8.112  17.483  0.00  0.00    +0.000 C 
BRANCH  16  17
ATOM     17  C   UNL     1       8.546   8.919  18.432  0.00  0.00    +0.000 C 
BRANCH  17  18
ATOM     18  C   UNL     1       8.451  10.416  18.099  0.00  0.00    +0.000 C 
BRANCH  18  19
ATOM     19  C   UNL     1       9.817  11.078  18.230  0.00  0.00    +0.000 C 
BRANCH  19  20
ATOM     20  C   UNL     1       9.820  12.553  17.827  0.00  0.00    +0.000 C 
BRANCH  20  21
ATOM     21  C   UNL     1      10.461  13.378  18.920  0.00  0.00    +0.000 C 
ATOM     22  O   UNL     1      10.681  12.983  20.060  0.00  0.00    +0.000 OA
BRANCH  21  23
ATOM     23  O   UNL     1      10.764  14.626  18.464  0.00  0.00    +0.000 OA
ATOM     24  C   UNL     1      11.513  14.606  17.247  0.00  0.00    +0.000 C 
ENDBRANCH  21  23
ENDBRANCH  20  21
ENDBRANCH  19  20
ENDBRANCH  18  19
ENDBRANCH  17  18
ENDBRANCH  16  17
ENDBRANCH  15  16
ENDBRANCH  14  15
ENDBRANCH  11  14
ENDBRANCH  10  11
BRANCH   1  25
ATOM     25  O   UNL     1       4.992   3.850  19.033  0.00  0.00    +0.000 OA
BRANCH  25  26
ATOM     26  C   UNL     1       4.218   2.748  18.523  0.00  0.00    +0.000 C 
BRANCH  26  27
ATOM     27  C   UNL     1       3.142   2.357  19.536  0.00  0.00    +0.000 C 
BRANCH  27  28
ATOM     28  C   UNL     1       1.733   2.524  18.952  0.00  0.00    +0.000 C 
BRANCH  28  30
ATOM     29  C   UNL     1       1.326   3.108  21.381  0.00  0.00    +0.000 C 
ATOM     30  C   UNL     1       0.769   3.149  19.964  0.00  0.00    +0.000 C 
ENDBRANCH  28  30
ENDBRANCH  27  28
ENDBRANCH  26  27
ENDBRANCH  25  26
ENDBRANCH   1  25
TORSDOF 16
ENDMDL
MODEL 7
REMARK VINA RESULT:      -7.1      2.581      8.389
REMARK  Name = 
REMARK  18 active torsions:
REMARK  status: ('A' for Active; 'I' for Inactive)
REMARK    1  A    between atoms: C_1  and  C_2
REMARK    2  A    between atoms: C_2  and  C_3
REMARK    3  A    between atoms: C_3  and  C_4
REMARK    4  A    between atoms: C_4  and  C_5
REMARK    5  A    between atoms: C_5  and  O_6
REMARK    6  A    between atoms: O_6  and  C_7
REMARK    7  A    between atoms: C_16  and  C_17
REMARK    8  A    between atoms: C_17  and  O_18
REMARK    9  A    between atoms: C_17  and  C_19
REMARK   10  A    between atoms: C_19  and  C_20
REMARK   11  A    between atoms: C_20  and  C_21
REMARK   12  A    between atoms: C_21  and  C_22
REMARK   13  A    between atoms: C_22  and  C_23
REMARK   14  A    between atoms: C_23  and  C_24
REMARK   15  A    between atoms: C_24  and  C_25
REMARK   16  A    between atoms: C_25  and  C_26
REMARK   17  A    between atoms: C_26  and  O_28
REMARK   18  A    between atoms: O_28  and  C_29
REMARK                            x       y       z     vdW  Elec       q    Type
REMARK                         _______ _______ _______ _____ _____    ______ ____
ROOT
ATOM      1  C   UNL     1       7.304   5.615  16.781  0.00  0.00    +0.000 A 
ATOM      2  C   UNL     1       7.771   5.600  15.456  0.00  0.00    +0.000 A 
ATOM      3  C   UNL     1       7.101   4.880  14.456  0.00  0.00    +0.000 A 
ATOM      4  C   UNL     1       7.489   4.955  13.107  0.00  0.00    +0.000 A 
ATOM      5  C   UNL     1       6.763   4.283  12.121  0.00  0.00    +0.000 A 
ATOM      6  C   UNL     1       5.664   3.506  12.470  0.00  0.00    +0.000 A 
ATOM      7  C   UNL     1       5.285   3.402  13.806  0.00  0.00    +0.000 A 
ATOM      8  C   UNL     1       5.989   4.092  14.804  0.00  0.00    +0.000 A 
ATOM      9  C   UNL     1       5.599   4.020  16.147  0.00  0.00    +0.000 A 
ATOM     10  C   UNL     1       6.236   4.778  17.151  0.00  0.00    +0.000 A 
ENDROOT
BRANCH  10  11
ATOM     11  C   UNL     1       5.669   4.662  18.551  0.00  0.00    +0.000 C 
BRANCH  11  12
ATOM     12  O   UNL     1       6.698   4.726  19.542  0.00  0.00    +0.000 OA
ATOM     13  H   UNL     1       7.452   4.221  19.184  0.00  0.00    +0.000 HD
ENDBRANCH  11  12
BRANCH  11  14
ATOM     14  C   UNL     1       4.622   5.723  18.901  0.00  0.00    +0.000 C 
BRANCH  14  15
ATOM     15  C   UNL     1       4.200   6.684  17.780  0.00  0.00    +0.000 C 
BRANCH  15  16
ATOM     16  C   UNL     1       2.702   6.490  17.525  0.00  0.00    +0.000 C 
BRANCH  16  17
ATOM     17  C   UNL     1       2.019   5.542  18.505  0.00  0.00    +0.000 C 
BRANCH  17  18
ATOM     18  C   UNL     1       1.339   4.392  17.745  0.00  0.00    +0.000 C 
BRANCH  18  19
ATOM     19  C   UNL     1       2.363   3.331  17.361  0.00  0.00    +0.000 C 
BRANCH  19  20
ATOM     20  C   UNL     1       2.191   2.016  18.122  0.00  0.00    +0.000 C 
BRANCH  20  21
ATOM     21  C   UNL     1       2.709   2.172  19.533  0.00  0.00    +0.000 C 
ATOM     22  O   UNL     1       3.895   2.196  19.847  0.00  0.00    +0.000 OA
BRANCH  21  23
ATOM     23  O   UNL     1       1.677   2.284  20.415  0.00  0.00    +0.000 OA
ATOM     24  C   UNL     1       1.943   3.214  21.467  0.00  0.00    +0.000 C 
ENDBRANCH  21  23
ENDBRANCH  20  21
ENDBRANCH  19  20
ENDBRANCH  18  19
ENDBRANCH  17  18
ENDBRANCH  16  17
ENDBRANCH  15  16
ENDBRANCH  14  15
ENDBRANCH  11  14
ENDBRANCH  10  11
BRANCH   1  25
ATOM     25  O   UNL     1       7.853   6.429  17.751  0.00  0.00    +0.000 OA
BRANCH  25  26
ATOM     26  C   UNL     1       7.642   7.836  17.535  0.00  0.00    +0.000 C 
BRANCH  26  27
ATOM     27  C   UNL     1       8.569   8.647  18.442  0.00  0.00    +0.000 C 
BRANCH  27  28
ATOM     28  C   UNL     1       8.642  10.115  18.003  0.00  0.00    +0.000 C 
BRANCH  28  30
ATOM     29  C   UNL     1      10.548  11.768  17.800  0.00  0.00    +0.000 C 
ATOM     30  C   UNL     1       9.751  10.872  18.738  0.00  0.00    +0.000 C 
ENDBRANCH  28  30
ENDBRANCH  27  28
ENDBRANCH  26  27
ENDBRANCH  25  26
ENDBRANCH   1  25
TORSDOF 16
ENDMDL
MODEL 8
REMARK VINA RESULT:      -7.0      1.143      1.471
REMARK  Name = 
REMARK  18 active torsions:
REMARK  status: ('A' for Active; 'I' for Inactive)
REMARK    1  A    between atoms: C_1  and  C_2
REMARK    2  A    between atoms: C_2  and  C_3
REMARK    3  A    between atoms: C_3  and  C_4
REMARK    4  A    between atoms: C_4  and  C_5
REMARK    5  A    between atoms: C_5  and  O_6
REMARK    6  A    between atoms: O_6  and  C_7
REMARK    7  A    between atoms: C_16  and  C_17
REMARK    8  A    between atoms: C_17  and  O_18
REMARK    9  A    between atoms: C_17  and  C_19
REMARK   10  A    between atoms: C_19  and  C_20
REMARK   11  A    between atoms: C_20  and  C_21
REMARK   12  A    between atoms: C_21  and  C_22
REMARK   13  A    between atoms: C_22  and  C_23
REMARK   14  A    between atoms: C_23  and  C_24
REMARK   15  A    between atoms: C_24  and  C_25
REMARK   16  A    between atoms: C_25  and  C_26
REMARK   17  A    between atoms: C_26  and  O_28
REMARK   18  A    between atoms: O_28  and  C_29
REMARK                            x       y       z     vdW  Elec       q    Type
REMARK                         _______ _______ _______ _____ _____    ______ ____
ROOT
ATOM      1  C   UNL     1       5.132   4.652  16.948  0.00  0.00    +0.000 A 
ATOM      2  C   UNL     1       3.760   4.356  16.900  0.00  0.00    +0.000 A 
ATOM      3  C   UNL     1       3.057   3.971  18.051  0.00  0.00    +0.000 A 
ATOM      4  C   UNL     1       1.663   3.790  18.038  0.00  0.00    +0.000 A 
ATOM      5  C   UNL     1       0.977   3.474  19.214  0.00  0.00    +0.000 A 
ATOM      6  C   UNL     1       1.674   3.305  20.405  0.00  0.00    +0.000 A 
ATOM      7  C   UNL     1       3.059   3.454  20.426  0.00  0.00    +0.000 A 
ATOM      8  C   UNL     1       3.757   3.798  19.259  0.00  0.00    +0.000 A 
ATOM      9  C   UNL     1       5.146   3.982  19.273  0.00  0.00    +0.000 A 
ATOM     10  C   UNL     1       5.853   4.415  18.133  0.00  0.00    +0.000 A 
ENDROOT
BRANCH  10  11
ATOM     11  C   UNL     1       7.341   4.644  18.305  0.00  0.00    +0.000 C 
BRANCH  11  12
ATOM     12  O   UNL     1       8.042   4.493  17.067  0.00  0.00    +0.000 OA
ATOM     13  H   UNL     1       8.519   5.332  16.920  0.00  0.00    +0.000 HD
ENDBRANCH  11  12
BRANCH  11  14
ATOM     14  C   UNL     1       7.710   6.014  18.882  0.00  0.00    +0.000 C 
BRANCH  14  15
ATOM     15  C   UNL     1       7.631   7.216  17.930  0.00  0.00    +0.000 C 
BRANCH  15  16
ATOM     16  C   UNL     1       8.617   8.280  18.425  0.00  0.00    +0.000 C 
BRANCH  16  17
ATOM     17  C   UNL     1       8.259   9.704  18.014  0.00  0.00    +0.000 C 
BRANCH  17  18
ATOM     18  C   UNL     1       9.143  10.712  18.765  0.00  0.00    +0.000 C 
BRANCH  18  19
ATOM     19  C   UNL     1      10.246  11.235  17.853  0.00  0.00    +0.000 C 
BRANCH  19  20
ATOM     20  C   UNL     1      11.245  12.146  18.567  0.00  0.00    +0.000 C 
BRANCH  20  21
ATOM     21  C   UNL     1      10.889  13.593  18.311  0.00  0.00    +0.000 C 
ATOM     22  O   UNL     1       9.875  13.975  17.736  0.00  0.00    +0.000 OA
BRANCH  21  23
ATOM     23  O   UNL     1      11.850  14.419  18.808  0.00  0.00    +0.000 OA
ATOM     24  C   UNL     1      12.302  15.383  17.853  0.00  0.00    +0.000 C 
ENDBRANCH  21  23
ENDBRANCH  20  21
ENDBRANCH  19  20
ENDBRANCH  18  19
ENDBRANCH  17  18
ENDBRANCH  16  17
ENDBRANCH  15  16
ENDBRANCH  14  15
ENDBRANCH  11  14
ENDBRANCH  10  11
BRANCH   1  25
ATOM     25  O   UNL     1       5.816   5.173  15.869  0.00  0.00    +0.000 OA
BRANCH  25  26
ATOM     26  C   UNL     1       5.225   4.877  14.591  0.00  0.00    +0.000 C 
BRANCH  26  27
ATOM     27  C   UNL     1       5.954   3.701  13.941  0.00  0.00    +0.000 C 
BRANCH  27  28
ATOM     28  C   UNL     1       6.946   4.176  12.871  0.00  0.00    +0.000 C 
BRANCH  28  30
ATOM     29  C   UNL     1       5.693   2.389  11.587  0.00  0.00    +0.000 C 
ATOM     30  C   UNL     1       6.943   3.257  11.646  0.00  0.00    +0.000 C 
ENDBRANCH  28  30
ENDBRANCH  27  28
ENDBRANCH  26  27
ENDBRANCH  25  26
ENDBRANCH   1  25
TORSDOF 16
ENDMDL
MODEL 9
REMARK VINA RESULT:      -7.0      1.718      2.065
REMARK  Name = 
REMARK  18 active torsions:
REMARK  status: ('A' for Active; 'I' for Inactive)
REMARK    1  A    between atoms: C_1  and  C_2
REMARK    2  A    between atoms: C_2  and  C_3
REMARK    3  A    between atoms: C_3  and  C_4
REMARK    4  A    between atoms: C_4  and  C_5
REMARK    5  A    between atoms: C_5  and  O_6
REMARK    6  A    between atoms: O_6  and  C_7
REMARK    7  A    between atoms: C_16  and  C_17
REMARK    8  A    between atoms: C_17  and  O_18
REMARK    9  A    between atoms: C_17  and  C_19
REMARK   10  A    between atoms: C_19  and  C_20
REMARK   11  A    between atoms: C_20  and  C_21
REMARK   12  A    between atoms: C_21  and  C_22
REMARK   13  A    between atoms: C_22  and  C_23
REMARK   14  A    between atoms: C_23  and  C_24
REMARK   15  A    between atoms: C_24  and  C_25
REMARK   16  A    between atoms: C_25  and  C_26
REMARK   17  A    between atoms: C_26  and  O_28
REMARK   18  A    between atoms: O_28  and  C_29
REMARK                            x       y       z     vdW  Elec       q    Type
REMARK                         _______ _______ _______ _____ _____    ______ ____
ROOT
ATOM      1  C   UNL     1       5.144   4.055  17.272  0.00  0.00    +0.000 A 
ATOM      2  C   UNL     1       3.868   3.477  17.382  0.00  0.00    +0.000 A 
ATOM      3  C   UNL     1       3.019   3.784  18.455  0.00  0.00    +0.000 A 
ATOM      4  C   UNL     1       1.698   3.306  18.511  0.00  0.00    +0.000 A 
ATOM      5  C   UNL     1       0.851   3.683  19.556  0.00  0.00    +0.000 A 
ATOM      6  C   UNL     1       1.317   4.513  20.570  0.00  0.00    +0.000 A 
ATOM      7  C   UNL     1       2.632   4.971  20.540  0.00  0.00    +0.000 A 
ATOM      8  C   UNL     1       3.486   4.623  19.484  0.00  0.00    +0.000 A 
ATOM      9  C   UNL     1       4.801   5.103  19.426  0.00  0.00    +0.000 A 
ATOM     10  C   UNL     1       5.645   4.838  18.328  0.00  0.00    +0.000 A 
ENDROOT
BRANCH  10  11
ATOM     11  C   UNL     1       7.019   5.477  18.359  0.00  0.00    +0.000 C 
BRANCH  11  12
ATOM     12  O   UNL     1       8.055   4.502  18.218  0.00  0.00    +0.000 OA
ATOM     13  H   UNL     1       8.628   4.599  19.002  0.00  0.00    +0.000 HD
ENDBRANCH  11  12
BRANCH  11  14
ATOM     14  C   UNL     1       7.243   6.550  17.289  0.00  0.00    +0.000 C 
BRANCH  14  15
ATOM     15  C   UNL     1       7.016   8.010  17.706  0.00  0.00    +0.000 C 
BRANCH  15  16
ATOM     16  C   UNL     1       8.358   8.744  17.615  0.00  0.00    +0.000 C 
BRANCH  16  17
ATOM     17  C   UNL     1       8.738   9.512  18.877  0.00  0.00    +0.000 C 
BRANCH  17  18
ATOM     18  C   UNL     1       9.565  10.755  18.513  0.00  0.00    +0.000 C 
BRANCH  18  19
ATOM     19  C   UNL     1      10.145  11.394  19.769  0.00  0.00    +0.000 C 
BRANCH  19  20
ATOM     20  C   UNL     1       9.377  12.632  20.232  0.00  0.00    +0.000 C 
BRANCH  20  21
ATOM     21  C   UNL     1       8.971  12.470  21.679  0.00  0.00    +0.000 C 
ATOM     22  O   UNL     1       8.328  11.526  22.126  0.00  0.00    +0.000 OA
BRANCH  21  23
ATOM     23  O   UNL     1       9.420  13.518  22.424  0.00  0.00    +0.000 OA
ATOM     24  C   UNL     1       9.702  14.678  21.638  0.00  0.00    +0.000 C 
ENDBRANCH  21  23
ENDBRANCH  20  21
ENDBRANCH  19  20
ENDBRANCH  18  19
ENDBRANCH  17  18
ENDBRANCH  16  17
ENDBRANCH  15  16
ENDBRANCH  14  15
ENDBRANCH  11  14
ENDBRANCH  10  11
BRANCH   1  25
ATOM     25  O   UNL     1       5.940   3.888  16.158  0.00  0.00    +0.000 OA
BRANCH  25  26
ATOM     26  C   UNL     1       5.336   4.324  14.926  0.00  0.00    +0.000 C 
BRANCH  26  27
ATOM     27  C   UNL     1       6.351   4.230  13.787  0.00  0.00    +0.000 C 
BRANCH  27  28
ATOM     28  C   UNL     1       5.981   3.121  12.794  0.00  0.00    +0.000 C 
BRANCH  28  30
ATOM     29  C   UNL     1       3.969   3.051  11.259  0.00  0.00    +0.000 C 
ATOM     30  C   UNL     1       5.327   3.685  11.530  0.00  0.00    +0.000 C 
ENDBRANCH  28  30
ENDBRANCH  27  28
ENDBRANCH  26  27
ENDBRANCH  25  26
ENDBRANCH   1  25
TORSDOF 16
ENDMDL
