MODEL 1
REMARK VINA RESULT:      -5.9      0.000      0.000
REMARK  Name = 
REMARK  3 active torsions:
REMARK  status: ('A' for Active; 'I' for Inactive)
REMARK    1  A    between atoms: C_2  and  C_3
REMARK    2  A    between atoms: C_13  and  O_14
REMARK    3  A    between atoms: C_15  and  N_16
REMARK                            x       y       z     vdW  Elec       q    Type
REMARK                         _______ _______ _______ _____ _____    ______ ____
ROOT
ATOM      1  O   UNL     1      10.710  15.366  20.073  0.00  0.00    +0.000 OA
ATOM      2  C   UNL     1       9.795  14.747  19.540  0.00  0.00    +0.000 C 
ATOM      3  N   UNL     1       8.713  15.385  18.901  0.00  0.00    +0.000 N 
ATOM      4  C   UNL     1       8.676  16.840  18.822  0.00  0.00    +0.000 C 
ATOM      5  C   UNL     1       7.604  17.493  19.698  0.00  0.00    +0.000 C 
ATOM      6  C   UNL     1       6.147  17.358  19.197  0.00  0.00    +0.000 C 
ATOM      7  C   UNL     1       5.428  15.957  19.351  0.00  0.00    +0.000 C 
ATOM      8  C   UNL     1       6.446  14.827  19.577  0.00  0.00    +0.000 C 
ATOM      9  C   UNL     1       7.485  14.721  18.461  0.00  0.00    +0.000 C 
ENDROOT
BRANCH   2  10
ATOM     10  C   UNL     1       9.850  13.261  19.563  0.00  0.00    +0.000 A 
ATOM     11  C   UNL     1       9.471  12.576  20.729  0.00  0.00    +0.000 A 
ATOM     12  C   UNL     1       9.282  11.194  20.715  0.00  0.00    +0.000 A 
ATOM     13  C   UNL     1       9.579  10.469  19.568  0.00  0.00    +0.000 A 
ATOM     14  C   UNL     1      10.096  11.124  18.447  0.00  0.00    +0.000 A 
ATOM     15  C   UNL     1      10.225  12.520  18.436  0.00  0.00    +0.000 A 
ATOM     16 CL   UNL     1      10.827  13.238  16.988  0.00  0.00    +0.000 Cl
ENDBRANCH   2  10
BRANCH   7  17
ATOM     17  N   UNL     1       4.502  15.667  18.203  0.00  0.00    +0.000 NA
ATOM     18  C   UNL     1       3.391  16.645  18.065  0.00  0.00    +0.000 C 
ATOM     19  C   UNL     1       2.319  16.513  19.166  0.00  0.00    +0.000 C 
ATOM     20  O   UNL     1       1.763  15.194  19.203  0.00  0.00    +0.000 OA
ATOM     21  C   UNL     1       2.783  14.198  19.344  0.00  0.00    +0.000 C 
ATOM     22  C   UNL     1       3.843  14.333  18.237  0.00  0.00    +0.000 C 
ENDBRANCH   7  17
BRANCH   6  23
ATOM     23  O   UNL     1       5.421  18.341  19.963  0.00  0.00    +0.000 OA
ATOM     24  H   UNL     1       6.051  18.947  20.378  0.00  0.00    +0.000 HD
ENDBRANCH   6  23
TORSDOF 3
ENDMDL
MODEL 2
REMARK VINA RESULT:      -5.4      8.381     10.740
REMARK  Name = 
REMARK  3 active torsions:
REMARK  status: ('A' for Active; 'I' for Inactive)
REMARK    1  A    between atoms: C_2  and  C_3
REMARK    2  A    between atoms: C_13  and  O_14
REMARK    3  A    between atoms: C_15  and  N_16
REMARK                            x       y       z     vdW  Elec       q    Type
REMARK                         _______ _______ _______ _____ _____    ______ ____
ROOT
ATOM      1  O   UNL     1       0.881  13.835  22.198  0.00  0.00    +0.000 OA
ATOM      2  C   UNL     1      -0.163  13.436  21.693  0.00  0.00    +0.000 C 
ATOM      3  N   UNL     1      -1.385  14.128  21.822  0.00  0.00    +0.000 N 
ATOM      4  C   UNL     1      -1.428  15.392  22.547  0.00  0.00    +0.000 C 
ATOM      5  C   UNL     1      -2.157  15.324  23.891  0.00  0.00    +0.000 C 
ATOM      6  C   UNL     1      -3.699  15.231  23.820  0.00  0.00    +0.000 C 
ATOM      7  C   UNL     1      -4.348  13.853  23.392  0.00  0.00    +0.000 C 
ATOM      8  C   UNL     1      -3.325  12.947  22.688  0.00  0.00    +0.000 C 
ATOM      9  C   UNL     1      -2.698  13.593  21.454  0.00  0.00    +0.000 C 
ENDROOT
BRANCH   2  10
ATOM     10  C   UNL     1      -0.123  12.177  20.902  0.00  0.00    +0.000 A 
ATOM     11  C   UNL     1       0.125  12.240  19.521  0.00  0.00    +0.000 A 
ATOM     12  C   UNL     1       0.405  11.085  18.793  0.00  0.00    +0.000 A 
ATOM     13  C   UNL     1       0.329   9.843  19.413  0.00  0.00    +0.000 A 
ATOM     14  C   UNL     1      -0.060   9.760  20.753  0.00  0.00    +0.000 A 
ATOM     15  C   UNL     1      -0.279  10.923  21.503  0.00  0.00    +0.000 A 
ATOM     16 CL   UNL     1      -0.708  10.715  23.161  0.00  0.00    +0.000 Cl
ENDBRANCH   2  10
BRANCH   7  17
ATOM     17  N   UNL     1      -5.595  14.045  22.575  0.00  0.00    +0.000 NA
ATOM     18  C   UNL     1      -6.645  14.846  23.259  0.00  0.00    +0.000 C 
ATOM     19  C   UNL     1      -7.332  14.094  24.417  0.00  0.00    +0.000 C 
ATOM     20  O   UNL     1      -7.915  12.864  23.972  0.00  0.00    +0.000 OA
ATOM     21  C   UNL     1      -6.952  12.036  23.308  0.00  0.00    +0.000 C 
ATOM     22  C   UNL     1      -6.278  12.792  22.151  0.00  0.00    +0.000 C 
ENDBRANCH   7  17
BRANCH   6  23
ATOM     23  O   UNL     1      -4.131  15.555  25.157  0.00  0.00    +0.000 OA
ATOM     24  H   UNL     1      -3.602  15.051  25.792  0.00  0.00    +0.000 HD
ENDBRANCH   6  23
TORSDOF 3
ENDMDL
MODEL 3
REMARK VINA RESULT:      -5.4      6.825      9.683
REMARK  Name = 
REMARK  3 active torsions:
REMARK  status: ('A' for Active; 'I' for Inactive)
REMARK    1  A    between atoms: C_2  and  C_3
REMARK    2  A    between atoms: C_13  and  O_14
REMARK    3  A    between atoms: C_15  and  N_16
REMARK                            x       y       z     vdW  Elec       q    Type
REMARK                         _______ _______ _______ _____ _____    ______ ____
ROOT
ATOM      1  O   UNL     1      -1.021   9.787  19.393  0.00  0.00    +0.000 OA
ATOM      2  C   UNL     1      -1.071  10.842  18.770  0.00  0.00    +0.000 C 
ATOM      3  N   UNL     1      -0.046  11.808  18.823  0.00  0.00    +0.000 N 
ATOM      4  C   UNL     1       1.151  11.550  19.614  0.00  0.00    +0.000 C 
ATOM      5  C   UNL     1       1.269  12.406  20.878  0.00  0.00    +0.000 C 
ATOM      6  C   UNL     1       1.649  13.889  20.656  0.00  0.00    +0.000 C 
ATOM      7  C   UNL     1       0.545  14.870  20.088  0.00  0.00    +0.000 C 
ATOM      8  C   UNL     1      -0.608  14.093  19.432  0.00  0.00    +0.000 C 
ATOM      9  C   UNL     1      -0.148  13.172  18.302  0.00  0.00    +0.000 C 
ENDROOT
BRANCH   2  10
ATOM     10  C   UNL     1      -2.260  11.093  17.913  0.00  0.00    +0.000 A 
ATOM     11  C   UNL     1      -2.230  10.707  16.563  0.00  0.00    +0.000 A 
ATOM     12  C   UNL     1      -3.393  10.706  15.795  0.00  0.00    +0.000 A 
ATOM     13  C   UNL     1      -4.576  11.199  16.333  0.00  0.00    +0.000 A 
ATOM     14  C   UNL     1      -4.583  11.721  17.629  0.00  0.00    +0.000 A 
ATOM     15  C   UNL     1      -3.431  11.663  18.426  0.00  0.00    +0.000 A 
ATOM     16 CL   UNL     1      -3.556  12.291  20.028  0.00  0.00    +0.000 Cl
ENDBRANCH   2  10
BRANCH   7  17
ATOM     17  N   UNL     1       1.128  15.907  19.169  0.00  0.00    +0.000 NA
ATOM     18  C   UNL     1       2.148  16.776  19.814  0.00  0.00    +0.000 C 
ATOM     19  C   UNL     1       1.550  17.778  20.822  0.00  0.00    +0.000 C 
ATOM     20  O   UNL     1       0.562  18.615  20.208  0.00  0.00    +0.000 OA
ATOM     21  C   UNL     1      -0.461  17.838  19.572  0.00  0.00    +0.000 C 
ATOM     22  C   UNL     1       0.145  16.846  18.564  0.00  0.00    +0.000 C 
ENDBRANCH   7  17
BRANCH   6  23
ATOM     23  O   UNL     1       2.051  14.347  21.963  0.00  0.00    +0.000 OA
ATOM     24  H   UNL     1       1.385  14.077  22.611  0.00  0.00    +0.000 HD
ENDBRANCH   6  23
TORSDOF 3
ENDMDL
MODEL 4
REMARK VINA RESULT:      -5.2      2.305      6.340
REMARK  Name = 
REMARK  3 active torsions:
REMARK  status: ('A' for Active; 'I' for Inactive)
REMARK    1  A    between atoms: C_2  and  C_3
REMARK    2  A    between atoms: C_13  and  O_14
REMARK    3  A    between atoms: C_15  and  N_16
REMARK                            x       y       z     vdW  Elec       q    Type
REMARK                         _______ _______ _______ _____ _____    ______ ____
ROOT
ATOM      1  O   UNL     1       5.270  17.882  19.330  0.00  0.00    +0.000 OA
ATOM      2  C   UNL     1       5.698  16.809  19.744  0.00  0.00    +0.000 C 
ATOM      3  N   UNL     1       7.074  16.518  19.828  0.00  0.00    +0.000 N 
ATOM      4  C   UNL     1       8.052  17.532  19.450  0.00  0.00    +0.000 C 
ATOM      5  C   UNL     1       8.806  17.230  18.153  0.00  0.00    +0.000 C 
ATOM      6  C   UNL     1       9.882  16.123  18.238  0.00  0.00    +0.000 C 
ATOM      7  C   UNL     1       9.403  14.616  18.318  0.00  0.00    +0.000 C 
ATOM      8  C   UNL     1       7.928  14.520  18.740  0.00  0.00    +0.000 C 
ATOM      9  C   UNL     1       7.641  15.193  20.082  0.00  0.00    +0.000 C 
ENDROOT
BRANCH   2  10
ATOM     10  C   UNL     1       4.712  15.786  20.187  0.00  0.00    +0.000 A 
ATOM     11  C   UNL     1       4.395  15.682  21.550  0.00  0.00    +0.000 A 
ATOM     12  C   UNL     1       3.314  14.909  21.974  0.00  0.00    +0.000 A 
ATOM     13  C   UNL     1       2.611  14.143  21.053  0.00  0.00    +0.000 A 
ATOM     14  C   UNL     1       3.011  14.127  19.714  0.00  0.00    +0.000 A 
ATOM     15  C   UNL     1       4.055  14.952  19.274  0.00  0.00    +0.000 A 
ATOM     16 CL   UNL     1       4.442  14.895  17.594  0.00  0.00    +0.000 Cl
ENDBRANCH   2  10
BRANCH   7  17
ATOM     17  N   UNL     1      10.301  13.783  19.189  0.00  0.00    +0.000 NA
ATOM     18  C   UNL     1      11.727  13.794  18.768  0.00  0.00    +0.000 C 
ATOM     19  C   UNL     1      11.989  13.001  17.471  0.00  0.00    +0.000 C 
ATOM     20  O   UNL     1      11.560  11.640  17.592  0.00  0.00    +0.000 OA
ATOM     21  C   UNL     1      10.185  11.555  17.989  0.00  0.00    +0.000 C 
ATOM     22  C   UNL     1       9.936  12.343  19.286  0.00  0.00    +0.000 C 
ENDBRANCH   7  17
BRANCH   6  23
ATOM     23  O   UNL     1      10.664  16.301  17.039  0.00  0.00    +0.000 OA
ATOM     24  H   UNL     1      10.761  17.248  16.864  0.00  0.00    +0.000 HD
ENDBRANCH   6  23
TORSDOF 3
ENDMDL
MODEL 5
REMARK VINA RESULT:      -5.2      4.740      7.802
REMARK  Name = 
REMARK  3 active torsions:
REMARK  status: ('A' for Active; 'I' for Inactive)
REMARK    1  A    between atoms: C_2  and  C_3
REMARK    2  A    between atoms: C_13  and  O_14
REMARK    3  A    between atoms: C_15  and  N_16
REMARK                            x       y       z     vdW  Elec       q    Type
REMARK                         _______ _______ _______ _____ _____    ______ ____
ROOT
ATOM      1  O   UNL     1      -1.453  10.695  18.604  0.00  0.00    +0.000 OA
ATOM      2  C   UNL     1      -0.352  10.813  19.132  0.00  0.00    +0.000 C 
ATOM      3  N   UNL     1       0.069  12.003  19.759  0.00  0.00    +0.000 N 
ATOM      4  C   UNL     1      -0.838  13.143  19.832  0.00  0.00    +0.000 C 
ATOM      5  C   UNL     1      -0.439  14.324  18.944  0.00  0.00    +0.000 C 
ATOM      6  C   UNL     1       0.766  15.161  19.433  0.00  0.00    +0.000 C 
ATOM      7  C   UNL     1       2.217  14.549  19.279  0.00  0.00    +0.000 C 
ATOM      8  C   UNL     1       2.162  13.027  19.066  0.00  0.00    +0.000 C 
ATOM      9  C   UNL     1       1.438  12.288  20.192  0.00  0.00    +0.000 C 
ENDROOT
BRANCH   2  10
ATOM     10  C   UNL     1       0.561   9.640  19.116  0.00  0.00    +0.000 A 
ATOM     11  C   UNL     1       1.276   9.340  17.945  0.00  0.00    +0.000 A 
ATOM     12  C   UNL     1       2.309   8.404  17.960  0.00  0.00    +0.000 A 
ATOM     13  C   UNL     1       2.563   7.675  19.116  0.00  0.00    +0.000 A 
ATOM     14  C   UNL     1       1.760   7.862  20.244  0.00  0.00    +0.000 A 
ATOM     15  C   UNL     1       0.764   8.848  20.252  0.00  0.00    +0.000 A 
ATOM     16 CL   UNL     1      -0.141   9.034  21.709  0.00  0.00    +0.000 Cl
ENDBRANCH   2  10
BRANCH   7  17
ATOM     17  N   UNL     1       3.117  14.931  20.421  0.00  0.00    +0.000 NA
ATOM     18  C   UNL     1       3.178  16.395  20.674  0.00  0.00    +0.000 C 
ATOM     19  C   UNL     1       3.958  17.172  19.593  0.00  0.00    +0.000 C 
ATOM     20  O   UNL     1       5.295  16.678  19.454  0.00  0.00    +0.000 OA
ATOM     21  C   UNL     1       5.310  15.267  19.199  0.00  0.00    +0.000 C 
ATOM     22  C   UNL     1       4.535  14.501  20.285  0.00  0.00    +0.000 C 
ENDBRANCH   7  17
BRANCH   6  23
ATOM     23  O   UNL     1       0.687  16.375  18.658  0.00  0.00    +0.000 OA
ATOM     24  H   UNL     1      -0.169  16.796  18.815  0.00  0.00    +0.000 HD
ENDBRANCH   6  23
TORSDOF 3
ENDMDL
MODEL 6
REMARK VINA RESULT:      -5.2      2.481      6.493
REMARK  Name = 
REMARK  3 active torsions:
REMARK  status: ('A' for Active; 'I' for Inactive)
REMARK    1  A    between atoms: C_2  and  C_3
REMARK    2  A    between atoms: C_13  and  O_14
REMARK    3  A    between atoms: C_15  and  N_16
REMARK                            x       y       z     vdW  Elec       q    Type
REMARK                         _______ _______ _______ _____ _____    ______ ____
ROOT
ATOM      1  O   UNL     1       4.849  17.506  18.626  0.00  0.00    +0.000 OA
ATOM      2  C   UNL     1       5.205  16.410  19.046  0.00  0.00    +0.000 C 
ATOM      3  N   UNL     1       6.541  16.124  19.396  0.00  0.00    +0.000 N 
ATOM      4  C   UNL     1       7.552  17.170  19.301  0.00  0.00    +0.000 C 
ATOM      5  C   UNL     1       8.566  16.966  18.172  0.00  0.00    +0.000 C 
ATOM      6  C   UNL     1       9.625  15.863  18.405  0.00  0.00    +0.000 C 
ATOM      7  C   UNL     1       9.174  14.352  18.280  0.00  0.00    +0.000 C 
ATOM      8  C   UNL     1       7.646  14.214  18.377  0.00  0.00    +0.000 C 
ATOM      9  C   UNL     1       7.071  14.788  19.672  0.00  0.00    +0.000 C 
ENDROOT
BRANCH   2  10
ATOM     10  C   UNL     1       4.172  15.351  19.202  0.00  0.00    +0.000 A 
ATOM     11  C   UNL     1       3.723  14.655  18.069  0.00  0.00    +0.000 A 
ATOM     12  C   UNL     1       2.941  13.508  18.199  0.00  0.00    +0.000 A 
ATOM     13  C   UNL     1       2.506  13.109  19.458  0.00  0.00    +0.000 A 
ATOM     14  C   UNL     1       2.828  13.879  20.579  0.00  0.00    +0.000 A 
ATOM     15  C   UNL     1       3.666  14.995  20.458  0.00  0.00    +0.000 A 
ATOM     16 CL   UNL     1       4.043  15.851  21.908  0.00  0.00    +0.000 Cl
ENDBRANCH   2  10
BRANCH   7  17
ATOM     17  N   UNL     1       9.889  13.465  19.261  0.00  0.00    +0.000 NA
ATOM     18  C   UNL     1      11.371  13.551  19.181  0.00  0.00    +0.000 C 
ATOM     19  C   UNL     1      11.955  12.889  17.917  0.00  0.00    +0.000 C 
ATOM     20  O   UNL     1      11.574  11.511  17.821  0.00  0.00    +0.000 OA
ATOM     21  C   UNL     1      10.151  11.355  17.884  0.00  0.00    +0.000 C 
ATOM     22  C   UNL     1       9.578  12.014  19.151  0.00  0.00    +0.000 C 
ENDBRANCH   7  17
BRANCH   6  23
ATOM     23  O   UNL     1      10.635  16.132  17.411  0.00  0.00    +0.000 OA
ATOM     24  H   UNL     1      11.042  15.297  17.140  0.00  0.00    +0.000 HD
ENDBRANCH   6  23
TORSDOF 3
ENDMDL
MODEL 7
REMARK VINA RESULT:      -5.2      8.190     10.572
REMARK  Name = 
REMARK  3 active torsions:
REMARK  status: ('A' for Active; 'I' for Inactive)
REMARK    1  A    between atoms: C_2  and  C_3
REMARK    2  A    between atoms: C_13  and  O_14
REMARK    3  A    between atoms: C_15  and  N_16
REMARK                            x       y       z     vdW  Elec       q    Type
REMARK                         _______ _______ _______ _____ _____    ______ ____
ROOT
ATOM      1  O   UNL     1       0.906  14.111  22.290  0.00  0.00    +0.000 OA
ATOM      2  C   UNL     1      -0.105  13.620  21.798  0.00  0.00    +0.000 C 
ATOM      3  N   UNL     1      -1.365  14.249  21.860  0.00  0.00    +0.000 N 
ATOM      4  C   UNL     1      -1.491  15.555  22.496  0.00  0.00    +0.000 C 
ATOM      5  C   UNL     1      -2.241  15.537  23.830  0.00  0.00    +0.000 C 
ATOM      6  C   UNL     1      -3.774  15.353  23.743  0.00  0.00    +0.000 C 
ATOM      7  C   UNL     1      -4.338  13.915  23.400  0.00  0.00    +0.000 C 
ATOM      8  C   UNL     1      -3.253  13.023  22.776  0.00  0.00    +0.000 C 
ATOM      9  C   UNL     1      -2.639  13.618  21.510  0.00  0.00    +0.000 C 
ENDROOT
BRANCH   2  10
ATOM     10  C   UNL     1       0.021  12.315  21.096  0.00  0.00    +0.000 A 
ATOM     11  C   UNL     1      -0.117  11.124  21.826  0.00  0.00    +0.000 A 
ATOM     12  C   UNL     1      -0.243   9.898  21.175  0.00  0.00    +0.000 A 
ATOM     13  C   UNL     1      -0.118   9.835  19.792  0.00  0.00    +0.000 A 
ATOM     14  C   UNL     1       0.165  10.997  19.068  0.00  0.00    +0.000 A 
ATOM     15  C   UNL     1       0.227  12.239  19.713  0.00  0.00    +0.000 A 
ATOM     16 CL   UNL     1       0.534  13.619  18.724  0.00  0.00    +0.000 Cl
ENDBRANCH   2  10
BRANCH   7  17
ATOM     17  N   UNL     1      -5.578  13.980  22.553  0.00  0.00    +0.000 NA
ATOM     18  C   UNL     1      -6.627  14.886  23.091  0.00  0.00    +0.000 C 
ATOM     19  C   UNL     1      -7.327  14.333  24.349  0.00  0.00    +0.000 C 
ATOM     20  O   UNL     1      -7.915  13.050  24.102  0.00  0.00    +0.000 OA
ATOM     21  C   UNL     1      -6.953  12.122  23.587  0.00  0.00    +0.000 C 
ATOM     22  C   UNL     1      -6.265  12.680  22.329  0.00  0.00    +0.000 C 
ENDBRANCH   7  17
BRANCH   6  23
ATOM     23  O   UNL     1      -4.249  15.742  25.047  0.00  0.00    +0.000 OA
ATOM     24  H   UNL     1      -4.806  16.529  24.960  0.00  0.00    +0.000 HD
ENDBRANCH   6  23
TORSDOF 3
ENDMDL
MODEL 8
REMARK VINA RESULT:      -5.1      4.761      8.132
REMARK  Name = 
REMARK  3 active torsions:
REMARK  status: ('A' for Active; 'I' for Inactive)
REMARK    1  A    between atoms: C_2  and  C_3
REMARK    2  A    between atoms: C_13  and  O_14
REMARK    3  A    between atoms: C_15  and  N_16
REMARK                            x       y       z     vdW  Elec       q    Type
REMARK                         _______ _______ _______ _____ _____    ______ ____
ROOT
ATOM      1  O   UNL     1      -1.845  11.896  19.358  0.00  0.00    +0.000 OA
ATOM      2  C   UNL     1      -0.861  11.996  20.085  0.00  0.00    +0.000 C 
ATOM      3  N   UNL     1      -0.264  13.235  20.394  0.00  0.00    +0.000 N 
ATOM      4  C   UNL     1      -0.844  14.467  19.872  0.00  0.00    +0.000 C 
ATOM      5  C   UNL     1      -0.003  15.152  18.792  0.00  0.00    +0.000 C 
ATOM      6  C   UNL     1       1.271  15.877  19.285  0.00  0.00    +0.000 C 
ATOM      7  C   UNL     1       2.518  14.998  19.706  0.00  0.00    +0.000 C 
ATOM      8  C   UNL     1       2.110  13.540  19.973  0.00  0.00    +0.000 C 
ATOM      9  C   UNL     1       1.034  13.404  21.049  0.00  0.00    +0.000 C 
ENDROOT
BRANCH   2  10
ATOM     10  C   UNL     1      -0.295  10.752  20.670  0.00  0.00    +0.000 A 
ATOM     11  C   UNL     1       0.481   9.903  19.864  0.00  0.00    +0.000 A 
ATOM     12  C   UNL     1       1.220   8.863  20.427  0.00  0.00    +0.000 A 
ATOM     13  C   UNL     1       1.102   8.590  21.784  0.00  0.00    +0.000 A 
ATOM     14  C   UNL     1       0.219   9.337  22.569  0.00  0.00    +0.000 A 
ATOM     15  C   UNL     1      -0.474  10.424  22.019  0.00  0.00    +0.000 A 
ATOM     16 CL   UNL     1      -1.503  11.313  23.081  0.00  0.00    +0.000 Cl
ENDBRANCH   2  10
BRANCH   7  17
ATOM     17  N   UNL     1       3.271  15.598  20.860  0.00  0.00    +0.000 NA
ATOM     18  C   UNL     1       3.720  16.996  20.622  0.00  0.00    +0.000 C 
ATOM     19  C   UNL     1       4.877  17.104  19.608  0.00  0.00    +0.000 C 
ATOM     20  O   UNL     1       6.008  16.325  20.017  0.00  0.00    +0.000 OA
ATOM     21  C   UNL     1       5.646  14.959  20.256  0.00  0.00    +0.000 C 
ATOM     22  C   UNL     1       4.496  14.862  21.273  0.00  0.00    +0.000 C 
ENDBRANCH   7  17
BRANCH   6  23
ATOM     23  O   UNL     1       1.647  16.718  18.175  0.00  0.00    +0.000 OA
ATOM     24  H   UNL     1       2.584  16.581  17.978  0.00  0.00    +0.000 HD
ENDBRANCH   6  23
TORSDOF 3
ENDMDL
MODEL 9
REMARK VINA RESULT:      -5.1      6.569      9.786
REMARK  Name = 
REMARK  3 active torsions:
REMARK  status: ('A' for Active; 'I' for Inactive)
REMARK    1  A    between atoms: C_2  and  C_3
REMARK    2  A    between atoms: C_13  and  O_14
REMARK    3  A    between atoms: C_15  and  N_16
REMARK                            x       y       z     vdW  Elec       q    Type
REMARK                         _______ _______ _______ _____ _____    ______ ____
ROOT
ATOM      1  O   UNL     1      -1.206   9.864  19.353  0.00  0.00    +0.000 OA
ATOM      2  C   UNL     1      -1.422  10.944  18.813  0.00  0.00    +0.000 C 
ATOM      3  N   UNL     1      -0.407  11.893  18.573  0.00  0.00    +0.000 N 
ATOM      4  C   UNL     1       0.971  11.586  18.938  0.00  0.00    +0.000 C 
ATOM      5  C   UNL     1       1.502  12.389  20.128  0.00  0.00    +0.000 C 
ATOM      6  C   UNL     1       1.833  13.874  19.849  0.00  0.00    +0.000 C 
ATOM      7  C   UNL     1       0.632  14.892  19.691  0.00  0.00    +0.000 C 
ATOM      8  C   UNL     1      -0.689  14.159  19.405  0.00  0.00    +0.000 C 
ATOM      9  C   UNL     1      -0.631  13.279  18.157  0.00  0.00    +0.000 C 
ENDROOT
BRANCH   2  10
ATOM     10  C   UNL     1      -2.813  11.247  18.383  0.00  0.00    +0.000 A 
ATOM     11  C   UNL     1      -3.684  11.894  19.275  0.00  0.00    +0.000 A 
ATOM     12  C   UNL     1      -4.905  12.403  18.836  0.00  0.00    +0.000 A 
ATOM     13  C   UNL     1      -5.320  12.172  17.530  0.00  0.00    +0.000 A 
ATOM     14  C   UNL     1      -4.525  11.403  16.676  0.00  0.00    +0.000 A 
ATOM     15  C   UNL     1      -3.268  10.945  17.094  0.00  0.00    +0.000 A 
ATOM     16 CL   UNL     1      -2.343  10.046  15.949  0.00  0.00    +0.000 Cl
ENDBRANCH   2  10
BRANCH   7  17
ATOM     17  N   UNL     1       0.923  15.958  18.671  0.00  0.00    +0.000 NA
ATOM     18  C   UNL     1       2.131  16.770  18.979  0.00  0.00    +0.000 C 
ATOM     19  C   UNL     1       1.932  17.737  20.163  0.00  0.00    +0.000 C 
ATOM     20  O   UNL     1       0.831  18.626  19.937  0.00  0.00    +0.000 OA
ATOM     21  C   UNL     1      -0.372  17.905  19.642  0.00  0.00    +0.000 C 
ATOM     22  C   UNL     1      -0.166  16.948  18.456  0.00  0.00    +0.000 C 
ENDBRANCH   7  17
BRANCH   6  23
ATOM     23  O   UNL     1       2.637  14.272  20.977  0.00  0.00    +0.000 OA
ATOM     24  H   UNL     1       2.900  13.483  21.473  0.00  0.00    +0.000 HD
ENDBRANCH   6  23
TORSDOF 3
ENDMDL
