MODEL 1
REMARK VINA RESULT:      -6.3      0.000      0.000
REMARK  Name = 
REMARK  7 active torsions:
REMARK  status: ('A' for Active; 'I' for Inactive)
REMARK    1  A    between atoms: C_1  and  N_2
REMARK    2  A    between atoms: C_6  and  C_7
REMARK    3  A    between atoms: C_7  and  C_8
REMARK    4  A    between atoms: C_7  and  N_16
REMARK    5  A    between atoms: C_11  and  C_12
REMARK    6  A    between atoms: C_19  and  C_20
REMARK    7  A    between atoms: C_22  and  C_23
REMARK                            x       y       z     vdW  Elec       q    Type
REMARK                         _______ _______ _______ _____ _____    ______ ____
ROOT
ATOM      1  N   UNL     1       0.844  14.015  19.829  0.00  0.00    +0.000 NA
ATOM      2  C   UNL     1       0.021  14.237  18.643  0.00  0.00    +0.000 C 
ATOM      3  C   UNL     1      -0.815  13.065  18.083  0.00  0.00    +0.000 C 
ATOM      4  C   UNL     1      -0.632  11.742  18.763  0.00  0.00    +0.000 C 
ATOM      5  C   UNL     1       0.431  11.529  19.575  0.00  0.00    +0.000 C 
ATOM      6  C   UNL     1       1.375  12.652  19.949  0.00  0.00    +0.000 C 
ENDROOT
BRANCH   5   7
ATOM      7  C   UNL     1       0.750  10.177  20.136  0.00  0.00    +0.000 A 
ATOM      8  C   UNL     1       0.202   9.875  21.389  0.00  0.00    +0.000 A 
ATOM      9  C   UNL     1       0.379   8.622  21.970  0.00  0.00    +0.000 A 
ATOM     10  C   UNL     1       1.082   7.634  21.290  0.00  0.00    +0.000 A 
ATOM     11  C   UNL     1       1.632   7.885  20.028  0.00  0.00    +0.000 A 
ATOM     12  C   UNL     1       2.298   6.849  19.355  0.00  0.00    +0.000 A 
ATOM     13  C   UNL     1       2.865   7.056  18.102  0.00  0.00    +0.000 A 
ATOM     14  C   UNL     1       2.792   8.314  17.520  0.00  0.00    +0.000 A 
ATOM     15  C   UNL     1       2.123   9.359  18.176  0.00  0.00    +0.000 A 
ATOM     16  C   UNL     1       1.501   9.176  19.435  0.00  0.00    +0.000 A 
ENDBRANCH   5   7
BRANCH   4  17
ATOM     17  C   UNL     1      -1.504  10.571  18.341  0.00  0.00    +0.000 C 
ATOM     18  N   UNL     1      -2.229   9.601  17.991  0.00  0.00    +0.000 NA
ENDBRANCH   4  17
BRANCH   1  19
ATOM     19  C   UNL     1       0.483  14.697  21.090  0.00  0.00    +0.000 C 
BRANCH  19  25
ATOM     20  C   UNL     1       0.905  16.844  23.451  0.00  0.00    +0.000 C 
ATOM     21  N   UNL     1       0.734  17.112  22.043  0.00  0.00    +0.000 N 
ATOM     22  C   UNL     1       0.711  18.386  21.541  0.00  0.00    +0.000 A 
ATOM     23  N   UNL     1       0.545  18.394  20.244  0.00  0.00    +0.000 NA
ATOM     24  C   UNL     1       0.458  17.076  19.897  0.00  0.00    +0.000 A 
ATOM     25  C   UNL     1       0.561  16.223  20.989  0.00  0.00    +0.000 A 
ENDBRANCH  19  25
BRANCH  19  26
ATOM     26  C   UNL     1      -0.815  14.179  21.725  0.00  0.00    +0.000 A 
ATOM     27  C   UNL     1      -0.837  13.145  22.673  0.00  0.00    +0.000 A 
ATOM     28  C   UNL     1      -2.026  12.705  23.259  0.00  0.00    +0.000 A 
ATOM     29  C   UNL     1      -3.238  13.305  22.922  0.00  0.00    +0.000 A 
ATOM     30  C   UNL     1      -3.248  14.340  21.985  0.00  0.00    +0.000 A 
ATOM     31  C   UNL     1      -2.052  14.766  21.390  0.00  0.00    +0.000 A 
BRANCH  29  32
ATOM     32  C   UNL     1      -4.458  12.861  23.532  0.00  0.00    +0.000 C 
ATOM     33  N   UNL     1      -5.447  12.501  24.020  0.00  0.00    +0.000 NA
ENDBRANCH  29  32
ENDBRANCH  19  26
ENDBRANCH   1  19
TORSDOF 6
ENDMDL
MODEL 2
REMARK VINA RESULT:      -6.2      2.498      7.169
REMARK  Name = 
REMARK  7 active torsions:
REMARK  status: ('A' for Active; 'I' for Inactive)
REMARK    1  A    between atoms: C_1  and  N_2
REMARK    2  A    between atoms: C_6  and  C_7
REMARK    3  A    between atoms: C_7  and  C_8
REMARK    4  A    between atoms: C_7  and  N_16
REMARK    5  A    between atoms: C_11  and  C_12
REMARK    6  A    between atoms: C_19  and  C_20
REMARK    7  A    between atoms: C_22  and  C_23
REMARK                            x       y       z     vdW  Elec       q    Type
REMARK                         _______ _______ _______ _____ _____    ______ ____
ROOT
ATOM      1  N   UNL     1       0.401  12.148  18.775  0.00  0.00    +0.000 NA
ATOM      2  C   UNL     1       1.764  12.143  19.301  0.00  0.00    +0.000 C 
ATOM      3  C   UNL     1       2.249  13.350  20.135  0.00  0.00    +0.000 C 
ATOM      4  C   UNL     1       1.289  14.493  20.257  0.00  0.00    +0.000 C 
ATOM      5  C   UNL     1       0.228  14.592  19.421  0.00  0.00    +0.000 C 
ATOM      6  C   UNL     1      -0.115  13.484  18.448  0.00  0.00    +0.000 C 
ENDROOT
BRANCH   5   7
ATOM      7  C   UNL     1      -0.656  15.801  19.390  0.00  0.00    +0.000 A 
ATOM      8  C   UNL     1      -0.413  16.726  18.367  0.00  0.00    +0.000 A 
ATOM      9  C   UNL     1      -1.220  17.850  18.205  0.00  0.00    +0.000 A 
ATOM     10  C   UNL     1      -2.308  18.051  19.046  0.00  0.00    +0.000 A 
ATOM     11  C   UNL     1      -2.599  17.143  20.071  0.00  0.00    +0.000 A 
ATOM     12  C   UNL     1      -3.731  17.359  20.873  0.00  0.00    +0.000 A 
ATOM     13  C   UNL     1      -4.055  16.486  21.906  0.00  0.00    +0.000 A 
ATOM     14  C   UNL     1      -3.230  15.400  22.163  0.00  0.00    +0.000 A 
ATOM     15  C   UNL     1      -2.099  15.165  21.367  0.00  0.00    +0.000 A 
ATOM     16  C   UNL     1      -1.758  16.010  20.283  0.00  0.00    +0.000 A 
ENDBRANCH   5   7
BRANCH   4  17
ATOM     17  C   UNL     1       1.651  15.665  21.156  0.00  0.00    +0.000 C 
ATOM     18  N   UNL     1       1.951  16.636  21.901  0.00  0.00    +0.000 NA
ENDBRANCH   4  17
BRANCH   1  19
ATOM     19  C   UNL     1      -0.576  11.175  19.307  0.00  0.00    +0.000 C 
BRANCH  19  25
ATOM     20  C   UNL     1       0.767   8.635  20.760  0.00  0.00    +0.000 C 
ATOM     21  N   UNL     1       0.174   9.792  21.387  0.00  0.00    +0.000 N 
ATOM     22  C   UNL     1       0.098   9.924  22.749  0.00  0.00    +0.000 A 
ATOM     23  N   UNL     1      -0.475  11.046  23.097  0.00  0.00    +0.000 NA
ATOM     24  C   UNL     1      -0.781  11.660  21.916  0.00  0.00    +0.000 A 
ATOM     25  C   UNL     1      -0.405  10.913  20.807  0.00  0.00    +0.000 A 
ENDBRANCH  19  25
BRANCH  19  26
ATOM     26  C   UNL     1      -2.025  11.456  18.884  0.00  0.00    +0.000 A 
ATOM     27  C   UNL     1      -2.561  11.008  17.667  0.00  0.00    +0.000 A 
ATOM     28  C   UNL     1      -3.890  11.251  17.312  0.00  0.00    +0.000 A 
ATOM     29  C   UNL     1      -4.733  11.942  18.180  0.00  0.00    +0.000 A 
ATOM     30  C   UNL     1      -4.229  12.396  19.400  0.00  0.00    +0.000 A 
ATOM     31  C   UNL     1      -2.891  12.161  19.744  0.00  0.00    +0.000 A 
BRANCH  29  32
ATOM     32  C   UNL     1      -6.100  12.181  17.820  0.00  0.00    +0.000 C 
ATOM     33  N   UNL     1      -7.205  12.381  17.527  0.00  0.00    +0.000 NA
ENDBRANCH  29  32
ENDBRANCH  19  26
ENDBRANCH   1  19
TORSDOF 6
ENDMDL
MODEL 3
REMARK VINA RESULT:      -6.2      7.735      9.372
REMARK  Name = 
REMARK  7 active torsions:
REMARK  status: ('A' for Active; 'I' for Inactive)
REMARK    1  A    between atoms: C_1  and  N_2
REMARK    2  A    between atoms: C_6  and  C_7
REMARK    3  A    between atoms: C_7  and  C_8
REMARK    4  A    between atoms: C_7  and  N_16
REMARK    5  A    between atoms: C_11  and  C_12
REMARK    6  A    between atoms: C_19  and  C_20
REMARK    7  A    between atoms: C_22  and  C_23
REMARK                            x       y       z     vdW  Elec       q    Type
REMARK                         _______ _______ _______ _____ _____    ______ ____
ROOT
ATOM      1  N   UNL     1       8.235  14.157  24.154  0.00  0.00    +0.000 NA
ATOM      2  C   UNL     1       9.200  15.157  24.605  0.00  0.00    +0.000 C 
ATOM      3  C   UNL     1       9.968  15.985  23.550  0.00  0.00    +0.000 C 
ATOM      4  C   UNL     1       9.722  15.617  22.119  0.00  0.00    +0.000 C 
ATOM      5  C   UNL     1       9.138  14.436  21.804  0.00  0.00    +0.000 C 
ATOM      6  C   UNL     1       8.575  13.525  22.873  0.00  0.00    +0.000 C 
ENDROOT
BRANCH   5   7
ATOM      7  C   UNL     1       9.031  13.949  20.391  0.00  0.00    +0.000 A 
ATOM      8  C   UNL     1       7.939  14.417  19.650  0.00  0.00    +0.000 A 
ATOM      9  C   UNL     1       7.781  14.082  18.308  0.00  0.00    +0.000 A 
ATOM     10  C   UNL     1       8.735  13.297  17.671  0.00  0.00    +0.000 A 
ATOM     11  C   UNL     1       9.852  12.821  18.367  0.00  0.00    +0.000 A 
ATOM     12  C   UNL     1      10.815  12.067  17.679  0.00  0.00    +0.000 A 
ATOM     13  C   UNL     1      11.938  11.570  18.332  0.00  0.00    +0.000 A 
ATOM     14  C   UNL     1      12.094  11.802  19.691  0.00  0.00    +0.000 A 
ATOM     15  C   UNL     1      11.144  12.561  20.394  0.00  0.00    +0.000 A 
ATOM     16  C   UNL     1      10.009  13.116  19.755  0.00  0.00    +0.000 A 
ENDBRANCH   5   7
BRANCH   4  17
ATOM     17  C   UNL     1      10.354  16.461  21.024  0.00  0.00    +0.000 C 
ATOM     18  N   UNL     1      10.878  17.161  20.116  0.00  0.00    +0.000 NA
ENDBRANCH   4  17
BRANCH   1  19
ATOM     19  C   UNL     1       6.798  14.377  24.422  0.00  0.00    +0.000 C 
BRANCH  19  25
ATOM     20  C   UNL     1       6.586  17.374  23.266  0.00  0.00    +0.000 C 
ATOM     21  N   UNL     1       5.959  16.185  22.740  0.00  0.00    +0.000 N 
ATOM     22  C   UNL     1       5.142  16.217  21.641  0.00  0.00    +0.000 A 
ATOM     23  N   UNL     1       4.684  15.030  21.341  0.00  0.00    +0.000 NA
ATOM     24  C   UNL     1       5.226  14.202  22.282  0.00  0.00    +0.000 A 
ATOM     25  C   UNL     1       6.029  14.874  23.194  0.00  0.00    +0.000 A 
ENDBRANCH  19  25
BRANCH  19  26
ATOM     26  C   UNL     1       6.118  13.212  25.154  0.00  0.00    +0.000 A 
ATOM     27  C   UNL     1       6.156  11.891  24.681  0.00  0.00    +0.000 A 
ATOM     28  C   UNL     1       5.552  10.840  25.375  0.00  0.00    +0.000 A 
ATOM     29  C   UNL     1       4.903  11.080  26.584  0.00  0.00    +0.000 A 
ATOM     30  C   UNL     1       4.852  12.383  27.083  0.00  0.00    +0.000 A 
ATOM     31  C   UNL     1       5.447  13.435  26.374  0.00  0.00    +0.000 A 
BRANCH  29  32
ATOM     32  C   UNL     1       4.294   9.999  27.304  0.00  0.00    +0.000 C 
ATOM     33  N   UNL     1       3.806   9.121  27.883  0.00  0.00    +0.000 NA
ENDBRANCH  29  32
ENDBRANCH  19  26
ENDBRANCH   1  19
TORSDOF 6
ENDMDL
MODEL 4
REMARK VINA RESULT:      -6.1      2.138      7.889
REMARK  Name = 
REMARK  7 active torsions:
REMARK  status: ('A' for Active; 'I' for Inactive)
REMARK    1  A    between atoms: C_1  and  N_2
REMARK    2  A    between atoms: C_6  and  C_7
REMARK    3  A    between atoms: C_7  and  C_8
REMARK    4  A    between atoms: C_7  and  N_16
REMARK    5  A    between atoms: C_11  and  C_12
REMARK    6  A    between atoms: C_19  and  C_20
REMARK    7  A    between atoms: C_22  and  C_23
REMARK                            x       y       z     vdW  Elec       q    Type
REMARK                         _______ _______ _______ _____ _____    ______ ____
ROOT
ATOM      1  N   UNL     1       0.778  12.537  18.412  0.00  0.00    +0.000 NA
ATOM      2  C   UNL     1       2.198  12.639  18.740  0.00  0.00    +0.000 C 
ATOM      3  C   UNL     1       2.696  13.868  19.534  0.00  0.00    +0.000 C 
ATOM      4  C   UNL     1       1.672  14.923  19.823  0.00  0.00    +0.000 C 
ATOM      5  C   UNL     1       0.499  14.944  19.148  0.00  0.00    +0.000 C 
ATOM      6  C   UNL     1       0.113  13.828  18.200  0.00  0.00    +0.000 C 
ENDROOT
BRANCH   5   7
ATOM      7  C   UNL     1      -0.478  16.074  19.276  0.00  0.00    +0.000 A 
ATOM      8  C   UNL     1      -0.530  16.979  18.210  0.00  0.00    +0.000 A 
ATOM      9  C   UNL     1      -1.450  18.025  18.196  0.00  0.00    +0.000 A 
ATOM     10  C   UNL     1      -2.359  18.164  19.238  0.00  0.00    +0.000 A 
ATOM     11  C   UNL     1      -2.355  17.272  20.317  0.00  0.00    +0.000 A 
ATOM     12  C   UNL     1      -3.316  17.420  21.329  0.00  0.00    +0.000 A 
ATOM     13  C   UNL     1      -3.345  16.561  22.422  0.00  0.00    +0.000 A 
ATOM     14  C   UNL     1      -2.392  15.557  22.525  0.00  0.00    +0.000 A 
ATOM     15  C   UNL     1      -1.429  15.390  21.518  0.00  0.00    +0.000 A 
ATOM     16  C   UNL     1      -1.391  16.222  20.372  0.00  0.00    +0.000 A 
ENDBRANCH   5   7
BRANCH   4  17
ATOM     17  C   UNL     1       2.061  16.105  20.696  0.00  0.00    +0.000 C 
ATOM     18  N   UNL     1       2.383  17.086  21.419  0.00  0.00    +0.000 NA
ENDBRANCH   4  17
BRANCH   1  19
ATOM     19  C   UNL     1      -0.029  11.474  19.048  0.00  0.00    +0.000 C 
BRANCH  19  25
ATOM     20  C   UNL     1      -2.797  12.468  20.357  0.00  0.00    +0.000 C 
ATOM     21  N   UNL     1      -2.615  11.809  19.086  0.00  0.00    +0.000 N 
ATOM     22  C   UNL     1      -3.669  11.502  18.267  0.00  0.00    +0.000 A 
ATOM     23  N   UNL     1      -3.276  10.910  17.170  0.00  0.00    +0.000 NA
ATOM     24  C   UNL     1      -1.917  10.833  17.286  0.00  0.00    +0.000 A 
ATOM     25  C   UNL     1      -1.446  11.374  18.475  0.00  0.00    +0.000 A 
ENDBRANCH  19  25
BRANCH  19  26
ATOM     26  C   UNL     1       0.697  10.125  19.157  0.00  0.00    +0.000 A 
ATOM     27  C   UNL     1       1.325   9.510  18.063  0.00  0.00    +0.000 A 
ATOM     28  C   UNL     1       2.002   8.295  18.189  0.00  0.00    +0.000 A 
ATOM     29  C   UNL     1       2.086   7.663  19.428  0.00  0.00    +0.000 A 
ATOM     30  C   UNL     1       1.474   8.253  20.535  0.00  0.00    +0.000 A 
ATOM     31  C   UNL     1       0.784   9.465  20.399  0.00  0.00    +0.000 A 
BRANCH  29  32
ATOM     32  C   UNL     1       2.792   6.421  19.559  0.00  0.00    +0.000 C 
ATOM     33  N   UNL     1       3.359   5.415  19.660  0.00  0.00    +0.000 NA
ENDBRANCH  29  32
ENDBRANCH  19  26
ENDBRANCH   1  19
TORSDOF 6
ENDMDL
MODEL 5
REMARK VINA RESULT:      -6.0      3.826      6.605
REMARK  Name = 
REMARK  7 active torsions:
REMARK  status: ('A' for Active; 'I' for Inactive)
REMARK    1  A    between atoms: C_1  and  N_2
REMARK    2  A    between atoms: C_6  and  C_7
REMARK    3  A    between atoms: C_7  and  C_8
REMARK    4  A    between atoms: C_7  and  N_16
REMARK    5  A    between atoms: C_11  and  C_12
REMARK    6  A    between atoms: C_19  and  C_20
REMARK    7  A    between atoms: C_22  and  C_23
REMARK                            x       y       z     vdW  Elec       q    Type
REMARK                         _______ _______ _______ _____ _____    ______ ____
ROOT
ATOM      1  N   UNL     1      -5.306  15.882  22.607  0.00  0.00    +0.000 NA
ATOM      2  C   UNL     1      -6.038  15.368  23.762  0.00  0.00    +0.000 C 
ATOM      3  C   UNL     1      -6.771  14.013  23.640  0.00  0.00    +0.000 C 
ATOM      4  C   UNL     1      -6.749  13.372  22.286  0.00  0.00    +0.000 C 
ATOM      5  C   UNL     1      -6.405  14.092  21.192  0.00  0.00    +0.000 C 
ATOM      6  C   UNL     1      -5.885  15.509  21.310  0.00  0.00    +0.000 C 
ENDROOT
BRANCH   5   7
ATOM      7  C   UNL     1      -6.536  13.546  19.802  0.00  0.00    +0.000 A 
ATOM      8  C   UNL     1      -7.714  13.861  19.115  0.00  0.00    +0.000 A 
ATOM      9  C   UNL     1      -7.907  13.462  17.794  0.00  0.00    +0.000 A 
ATOM     10  C   UNL     1      -6.907  12.768  17.125  0.00  0.00    +0.000 A 
ATOM     11  C   UNL     1      -5.705  12.447  17.767  0.00  0.00    +0.000 A 
ATOM     12  C   UNL     1      -4.702  11.781  17.045  0.00  0.00    +0.000 A 
ATOM     13  C   UNL     1      -3.495  11.438  17.643  0.00  0.00    +0.000 A 
ATOM     14  C   UNL     1      -3.291  11.734  18.983  0.00  0.00    +0.000 A 
ATOM     15  C   UNL     1      -4.280  12.406  19.719  0.00  0.00    +0.000 A 
ATOM     16  C   UNL     1      -5.506  12.806  19.133  0.00  0.00    +0.000 A 
ENDBRANCH   5   7
BRANCH   4  17
ATOM     17  C   UNL     1      -7.351  11.986  22.118  0.00  0.00    +0.000 C 
ATOM     18  N   UNL     1      -7.849  10.837  21.978  0.00  0.00    +0.000 NA
ENDBRANCH   4  17
BRANCH   1  19
ATOM     19  C   UNL     1      -3.832  15.966  22.674  0.00  0.00    +0.000 C 
BRANCH  19  25
ATOM     20  C   UNL     1      -1.395  18.046  22.360  0.00  0.00    +0.000 C 
ATOM     21  N   UNL     1      -2.268  17.884  23.497  0.00  0.00    +0.000 N 
ATOM     22  C   UNL     1      -2.127  18.631  24.637  0.00  0.00    +0.000 A 
ATOM     23  N   UNL     1      -3.023  18.319  25.537  0.00  0.00    +0.000 NA
ATOM     24  C   UNL     1      -3.771  17.335  24.955  0.00  0.00    +0.000 A 
ATOM     25  C   UNL     1      -3.336  17.014  23.675  0.00  0.00    +0.000 A 
ENDBRANCH  19  25
BRANCH  19  26
ATOM     26  C   UNL     1      -3.138  14.603  22.801  0.00  0.00    +0.000 A 
ATOM     27  C   UNL     1      -3.572  13.609  23.692  0.00  0.00    +0.000 A 
ATOM     28  C   UNL     1      -2.943  12.365  23.775  0.00  0.00    +0.000 A 
ATOM     29  C   UNL     1      -1.860  12.071  22.949  0.00  0.00    +0.000 A 
ATOM     30  C   UNL     1      -1.407  13.038  22.050  0.00  0.00    +0.000 A 
ATOM     31  C   UNL     1      -2.034  14.289  21.982  0.00  0.00    +0.000 A 
BRANCH  29  32
ATOM     32  C   UNL     1      -1.221  10.789  23.026  0.00  0.00    +0.000 C 
ATOM     33  N   UNL     1      -0.703   9.753  23.082  0.00  0.00    +0.000 NA
ENDBRANCH  29  32
ENDBRANCH  19  26
ENDBRANCH   1  19
TORSDOF 6
ENDMDL
MODEL 6
REMARK VINA RESULT:      -6.0      5.124      7.498
REMARK  Name = 
REMARK  7 active torsions:
REMARK  status: ('A' for Active; 'I' for Inactive)
REMARK    1  A    between atoms: C_1  and  N_2
REMARK    2  A    between atoms: C_6  and  C_7
REMARK    3  A    between atoms: C_7  and  C_8
REMARK    4  A    between atoms: C_7  and  N_16
REMARK    5  A    between atoms: C_11  and  C_12
REMARK    6  A    between atoms: C_19  and  C_20
REMARK    7  A    between atoms: C_22  and  C_23
REMARK                            x       y       z     vdW  Elec       q    Type
REMARK                         _______ _______ _______ _____ _____    ______ ____
ROOT
ATOM      1  N   UNL     1       3.368  15.808  20.708  0.00  0.00    +0.000 NA
ATOM      2  C   UNL     1       3.649  17.192  21.083  0.00  0.00    +0.000 C 
ATOM      3  C   UNL     1       4.946  17.858  20.572  0.00  0.00    +0.000 C 
ATOM      4  C   UNL     1       5.876  16.976  19.796  0.00  0.00    +0.000 C 
ATOM      5  C   UNL     1       5.741  15.630  19.839  0.00  0.00    +0.000 C 
ATOM      6  C   UNL     1       4.566  14.976  20.535  0.00  0.00    +0.000 C 
ENDROOT
BRANCH   5   7
ATOM      7  C   UNL     1       6.748  14.705  19.225  0.00  0.00    +0.000 A 
ATOM      8  C   UNL     1       6.496  14.291  17.911  0.00  0.00    +0.000 A 
ATOM      9  C   UNL     1       7.401  13.487  17.222  0.00  0.00    +0.000 A 
ATOM     10  C   UNL     1       8.594  13.110  17.826  0.00  0.00    +0.000 A 
ATOM     11  C   UNL     1       8.897  13.515  19.132  0.00  0.00    +0.000 A 
ATOM     12  C   UNL     1      10.131  13.149  19.691  0.00  0.00    +0.000 A 
ATOM     13  C   UNL     1      10.470  13.525  20.986  0.00  0.00    +0.000 A 
ATOM     14  C   UNL     1       9.563  14.251  21.745  0.00  0.00    +0.000 A 
ATOM     15  C   UNL     1       8.327  14.632  21.198  0.00  0.00    +0.000 A 
ATOM     16  C   UNL     1       7.963  14.300  19.871  0.00  0.00    +0.000 A 
ENDBRANCH   5   7
BRANCH   4  17
ATOM     17  C   UNL     1       7.116  17.589  19.166  0.00  0.00    +0.000 C 
ATOM     18  N   UNL     1       8.144  18.099  18.643  0.00  0.00    +0.000 NA
ENDBRANCH   4  17
BRANCH   1  19
ATOM     19  C   UNL     1       2.231  15.526  19.808  0.00  0.00    +0.000 C 
BRANCH  19  25
ATOM     20  C   UNL     1      -0.087  17.646  19.102  0.00  0.00    +0.000 C 
ATOM     21  N   UNL     1       1.120  17.385  18.354  0.00  0.00    +0.000 N 
ATOM     22  C   UNL     1       1.409  18.038  17.185  0.00  0.00    +0.000 A 
ATOM     23  N   UNL     1       2.549  17.646  16.678  0.00  0.00    +0.000 NA
ATOM     24  C   UNL     1       3.013  16.707  17.554  0.00  0.00    +0.000 A 
ATOM     25  C   UNL     1       2.151  16.494  18.623  0.00  0.00    +0.000 A 
ENDBRANCH  19  25
BRANCH  19  26
ATOM     26  C   UNL     1       2.102  14.047  19.416  0.00  0.00    +0.000 A 
ATOM     27  C   UNL     1       1.320  13.135  20.141  0.00  0.00    +0.000 A 
ATOM     28  C   UNL     1       1.195  11.799  19.754  0.00  0.00    +0.000 A 
ATOM     29  C   UNL     1       1.840  11.337  18.609  0.00  0.00    +0.000 A 
ATOM     30  C   UNL     1       2.622  12.222  17.864  0.00  0.00    +0.000 A 
ATOM     31  C   UNL     1       2.755  13.558  18.267  0.00  0.00    +0.000 A 
BRANCH  29  32
ATOM     32  C   UNL     1       1.702   9.968  18.205  0.00  0.00    +0.000 C 
ATOM     33  N   UNL     1       1.591   8.859  17.884  0.00  0.00    +0.000 NA
ENDBRANCH  29  32
ENDBRANCH  19  26
ENDBRANCH   1  19
TORSDOF 6
ENDMDL
MODEL 7
REMARK VINA RESULT:      -6.0      2.001      7.771
REMARK  Name = 
REMARK  7 active torsions:
REMARK  status: ('A' for Active; 'I' for Inactive)
REMARK    1  A    between atoms: C_1  and  N_2
REMARK    2  A    between atoms: C_6  and  C_7
REMARK    3  A    between atoms: C_7  and  C_8
REMARK    4  A    between atoms: C_7  and  N_16
REMARK    5  A    between atoms: C_11  and  C_12
REMARK    6  A    between atoms: C_19  and  C_20
REMARK    7  A    between atoms: C_22  and  C_23
REMARK                            x       y       z     vdW  Elec       q    Type
REMARK                         _______ _______ _______ _____ _____    ______ ____
ROOT
ATOM      1  N   UNL     1       0.415  12.403  18.696  0.00  0.00    +0.000 NA
ATOM      2  C   UNL     1       1.868  12.425  18.850  0.00  0.00    +0.000 C 
ATOM      3  C   UNL     1       2.493  13.343  19.924  0.00  0.00    +0.000 C 
ATOM      4  C   UNL     1       1.540  14.227  20.669  0.00  0.00    +0.000 C 
ATOM      5  C   UNL     1       0.289  14.440  20.196  0.00  0.00    +0.000 C 
ATOM      6  C   UNL     1      -0.242  13.681  19.000  0.00  0.00    +0.000 C 
ENDROOT
BRANCH   5   7
ATOM      7  C   UNL     1      -0.636  15.448  20.809  0.00  0.00    +0.000 A 
ATOM      8  C   UNL     1      -0.692  16.702  20.190  0.00  0.00    +0.000 A 
ATOM      9  C   UNL     1      -1.569  17.688  20.636  0.00  0.00    +0.000 A 
ATOM     10  C   UNL     1      -2.432  17.423  21.692  0.00  0.00    +0.000 A 
ATOM     11  C   UNL     1      -2.423  16.177  22.330  0.00  0.00    +0.000 A 
ATOM     12  C   UNL     1      -3.339  15.933  23.366  0.00  0.00    +0.000 A 
ATOM     13  C   UNL     1      -3.362  14.712  24.030  0.00  0.00    +0.000 A 
ATOM     14  C   UNL     1      -2.447  13.729  23.681  0.00  0.00    +0.000 A 
ATOM     15  C   UNL     1      -1.529  13.953  22.643  0.00  0.00    +0.000 A 
ATOM     16  C   UNL     1      -1.501  15.169  21.918  0.00  0.00    +0.000 A 
ENDBRANCH   5   7
BRANCH   4  17
ATOM     17  C   UNL     1       2.067  15.073  21.817  0.00  0.00    +0.000 C 
ATOM     18  N   UNL     1       2.504  15.775  22.768  0.00  0.00    +0.000 NA
ENDBRANCH   4  17
BRANCH   1  19
ATOM     19  C   UNL     1      -0.325  11.176  19.056  0.00  0.00    +0.000 C 
BRANCH  19  25
ATOM     20  C   UNL     1      -3.266  12.288  19.749  0.00  0.00    +0.000 C 
ATOM     21  N   UNL     1      -2.875  11.495  18.608  0.00  0.00    +0.000 N 
ATOM     22  C   UNL     1      -3.774  11.093  17.656  0.00  0.00    +0.000 A 
ATOM     23  N   UNL     1      -3.204  10.387  16.715  0.00  0.00    +0.000 NA
ATOM     24  C   UNL     1      -1.887  10.333  17.073  0.00  0.00    +0.000 A 
ATOM     25  C   UNL     1      -1.623  11.004  18.260  0.00  0.00    +0.000 A 
ENDBRANCH  19  25
BRANCH  19  26
ATOM     26  C   UNL     1       0.549   9.915  19.104  0.00  0.00    +0.000 A 
ATOM     27  C   UNL     1       1.207   9.404  17.975  0.00  0.00    +0.000 A 
ATOM     28  C   UNL     1       2.019   8.270  18.045  0.00  0.00    +0.000 A 
ATOM     29  C   UNL     1       2.212   7.619  19.261  0.00  0.00    +0.000 A 
ATOM     30  C   UNL     1       1.574   8.107  20.403  0.00  0.00    +0.000 A 
ATOM     31  C   UNL     1       0.749   9.237  20.323  0.00  0.00    +0.000 A 
BRANCH  29  32
ATOM     32  C   UNL     1       3.056   6.461  19.335  0.00  0.00    +0.000 C 
ATOM     33  N   UNL     1       3.743   5.529  19.396  0.00  0.00    +0.000 NA
ENDBRANCH  29  32
ENDBRANCH  19  26
ENDBRANCH   1  19
TORSDOF 6
ENDMDL
MODEL 8
REMARK VINA RESULT:      -5.9      2.133      7.322
REMARK  Name = 
REMARK  7 active torsions:
REMARK  status: ('A' for Active; 'I' for Inactive)
REMARK    1  A    between atoms: C_1  and  N_2
REMARK    2  A    between atoms: C_6  and  C_7
REMARK    3  A    between atoms: C_7  and  C_8
REMARK    4  A    between atoms: C_7  and  N_16
REMARK    5  A    between atoms: C_11  and  C_12
REMARK    6  A    between atoms: C_19  and  C_20
REMARK    7  A    between atoms: C_22  and  C_23
REMARK                            x       y       z     vdW  Elec       q    Type
REMARK                         _______ _______ _______ _____ _____    ______ ____
ROOT
ATOM      1  N   UNL     1       1.325  12.959  19.616  0.00  0.00    +0.000 NA
ATOM      2  C   UNL     1       2.306  13.135  20.684  0.00  0.00    +0.000 C 
ATOM      3  C   UNL     1       2.433  14.517  21.363  0.00  0.00    +0.000 C 
ATOM      4  C   UNL     1       1.587  15.612  20.790  0.00  0.00    +0.000 C 
ATOM      5  C   UNL     1       1.020  15.473  19.568  0.00  0.00    +0.000 C 
ATOM      6  C   UNL     1       1.087  14.164  18.811  0.00  0.00    +0.000 C 
ENDROOT
BRANCH   5   7
ATOM      7  C   UNL     1       0.313  16.603  18.882  0.00  0.00    +0.000 A 
ATOM      8  C   UNL     1       0.992  17.211  17.819  0.00  0.00    +0.000 A 
ATOM      9  C   UNL     1       0.399  18.224  17.070  0.00  0.00    +0.000 A 
ATOM     10  C   UNL     1      -0.903  18.623  17.349  0.00  0.00    +0.000 A 
ATOM     11  C   UNL     1      -1.626  18.031  18.392  0.00  0.00    +0.000 A 
ATOM     12  C   UNL     1      -2.952  18.433  18.617  0.00  0.00    +0.000 A 
ATOM     13  C   UNL     1      -3.706  17.875  19.644  0.00  0.00    +0.000 A 
ATOM     14  C   UNL     1      -3.128  16.926  20.475  0.00  0.00    +0.000 A 
ATOM     15  C   UNL     1      -1.805  16.508  20.259  0.00  0.00    +0.000 A 
ATOM     16  C   UNL     1      -1.020  17.024  19.201  0.00  0.00    +0.000 A 
ENDBRANCH   5   7
BRANCH   4  17
ATOM     17  C   UNL     1       1.574  16.968  21.478  0.00  0.00    +0.000 C 
ATOM     18  N   UNL     1       1.562  18.092  22.048  0.00  0.00    +0.000 NA
ENDBRANCH   4  17
BRANCH   1  19
ATOM     19  C   UNL     1       0.160  12.081  19.851  0.00  0.00    +0.000 C 
BRANCH  19  25
ATOM     20  C   UNL     1       1.693   9.843  18.116  0.00  0.00    +0.000 C 
ATOM     21  N   UNL     1       1.208   9.723  19.470  0.00  0.00    +0.000 N 
ATOM     22  C   UNL     1       1.341   8.566  20.192  0.00  0.00    +0.000 A 
ATOM     23  N   UNL     1       0.833   8.680  21.391  0.00  0.00    +0.000 NA
ATOM     24  C   UNL     1       0.356   9.958  21.445  0.00  0.00    +0.000 A 
ATOM     25  C   UNL     1       0.555  10.659  20.262  0.00  0.00    +0.000 A 
ENDBRANCH  19  25
BRANCH  19  26
ATOM     26  C   UNL     1      -0.922  12.709  20.740  0.00  0.00    +0.000 A 
ATOM     27  C   UNL     1      -2.253  12.865  20.322  0.00  0.00    +0.000 A 
ATOM     28  C   UNL     1      -3.229  13.416  21.156  0.00  0.00    +0.000 A 
ATOM     29  C   UNL     1      -2.902  13.816  22.450  0.00  0.00    +0.000 A 
ATOM     30  C   UNL     1      -1.587  13.670  22.896  0.00  0.00    +0.000 A 
ATOM     31  C   UNL     1      -0.610  13.129  22.049  0.00  0.00    +0.000 A 
BRANCH  29  32
ATOM     32  C   UNL     1      -3.907  14.371  23.310  0.00  0.00    +0.000 C 
ATOM     33  N   UNL     1      -4.719  14.814  24.009  0.00  0.00    +0.000 NA
ENDBRANCH  29  32
ENDBRANCH  19  26
ENDBRANCH   1  19
TORSDOF 6
ENDMDL
MODEL 9
REMARK VINA RESULT:      -5.9      2.188      7.489
REMARK  Name = 
REMARK  7 active torsions:
REMARK  status: ('A' for Active; 'I' for Inactive)
REMARK    1  A    between atoms: C_1  and  N_2
REMARK    2  A    between atoms: C_6  and  C_7
REMARK    3  A    between atoms: C_7  and  C_8
REMARK    4  A    between atoms: C_7  and  N_16
REMARK    5  A    between atoms: C_11  and  C_12
REMARK    6  A    between atoms: C_19  and  C_20
REMARK    7  A    between atoms: C_22  and  C_23
REMARK                            x       y       z     vdW  Elec       q    Type
REMARK                         _______ _______ _______ _____ _____    ______ ____
ROOT
ATOM      1  N   UNL     1       0.491  12.017  21.452  0.00  0.00    +0.000 NA
ATOM      2  C   UNL     1       0.022  10.767  22.045  0.00  0.00    +0.000 C 
ATOM      3  C   UNL     1      -1.291  10.773  22.860  0.00  0.00    +0.000 C 
ATOM      4  C   UNL     1      -1.937  12.110  23.058  0.00  0.00    +0.000 C 
ATOM      5  C   UNL     1      -1.241  13.249  22.830  0.00  0.00    +0.000 C 
ATOM      6  C   UNL     1       0.145  13.218  22.222  0.00  0.00    +0.000 C 
ENDROOT
BRANCH   5   7
ATOM      7  C   UNL     1      -1.785  14.601  23.179  0.00  0.00    +0.000 A 
ATOM      8  C   UNL     1      -1.240  15.220  24.311  0.00  0.00    +0.000 A 
ATOM      9  C   UNL     1      -1.624  16.506  24.684  0.00  0.00    +0.000 A 
ATOM     10  C   UNL     1      -2.537  17.210  23.910  0.00  0.00    +0.000 A 
ATOM     11  C   UNL     1      -3.095  16.638  22.760  0.00  0.00    +0.000 A 
ATOM     12  C   UNL     1      -3.982  17.397  21.981  0.00  0.00    +0.000 A 
ATOM     13  C   UNL     1      -4.564  16.867  20.835  0.00  0.00    +0.000 A 
ATOM     14  C   UNL     1      -4.281  15.558  20.471  0.00  0.00    +0.000 A 
ATOM     15  C   UNL     1      -3.390  14.787  21.234  0.00  0.00    +0.000 A 
ATOM     16  C   UNL     1      -2.750  15.305  22.386  0.00  0.00    +0.000 A 
ENDBRANCH   5   7
BRANCH   4  17
ATOM     17  C   UNL     1      -3.288  12.178  23.751  0.00  0.00    +0.000 C 
ATOM     18  N   UNL     1      -4.409  12.234  24.325  0.00  0.00    +0.000 NA
ENDBRANCH   4  17
BRANCH   1  19
ATOM     19  C   UNL     1       0.495  12.155  19.980  0.00  0.00    +0.000 C 
BRANCH  19  25
ATOM     20  C   UNL     1       0.480   9.603  18.018  0.00  0.00    +0.000 C 
ATOM     21  N   UNL     1      -0.656  10.375  18.460  0.00  0.00    +0.000 N 
ATOM     22  C   UNL     1      -1.932  10.097  18.047  0.00  0.00    +0.000 A 
ATOM     23  N   UNL     1      -2.803  10.920  18.570  0.00  0.00    +0.000 NA
ATOM     24  C   UNL     1      -2.061  11.761  19.349  0.00  0.00    +0.000 A 
ATOM     25  C   UNL     1      -0.702  11.472  19.312  0.00  0.00    +0.000 A 
ENDBRANCH  19  25
BRANCH  19  26
ATOM     26  C   UNL     1       0.749  13.588  19.491  0.00  0.00    +0.000 A 
ATOM     27  C   UNL     1       2.031  14.069  19.183  0.00  0.00    +0.000 A 
ATOM     28  C   UNL     1       2.238  15.368  18.715  0.00  0.00    +0.000 A 
ATOM     29  C   UNL     1       1.157  16.227  18.524  0.00  0.00    +0.000 A 
ATOM     30  C   UNL     1      -0.131  15.774  18.818  0.00  0.00    +0.000 A 
ATOM     31  C   UNL     1      -0.330  14.474  19.301  0.00  0.00    +0.000 A 
BRANCH  29  32
ATOM     32  C   UNL     1       1.369  17.557  18.032  0.00  0.00    +0.000 C 
ATOM     33  N   UNL     1       1.540  18.631  17.628  0.00  0.00    +0.000 NA
ENDBRANCH  29  32
ENDBRANCH  19  26
ENDBRANCH   1  19
TORSDOF 6
ENDMDL
