MODEL 1
REMARK VINA RESULT:      -7.2      0.000      0.000
REMARK  Name = 
REMARK  6 active torsions:
REMARK  status: ('A' for Active; 'I' for Inactive)
REMARK    1  A    between atoms: C_1  and  C_2
REMARK    2  A    between atoms: C_4  and  C_5
REMARK    3  A    between atoms: C_5  and  O_6
REMARK    4  A    between atoms: O_6  and  C_7
REMARK    5  A    between atoms: C_7  and  C_8
REMARK    6  A    between atoms: C_15  and  C_17
REMARK                            x       y       z     vdW  Elec       q    Type
REMARK                         _______ _______ _______ _____ _____    ______ ____
ROOT
ATOM      1  C   UNL     1       1.524   8.487  19.961  0.00  0.00    +0.000 A 
ATOM      2  N   UNL     1       2.027   8.416  18.728  0.00  0.00    +0.000 NA
ATOM      3  C   UNL     1       2.514   7.160  18.694  0.00  0.00    +0.000 A 
ATOM      4  C   UNL     1       2.300   6.518  19.864  0.00  0.00    +0.000 A 
ATOM      5  O   UNL     1       1.664   7.327  20.727  0.00  0.00    +0.000 OA
ATOM      6  C   UNL     1       2.909   5.194  19.973  0.00  0.00    +0.000 C 
ATOM      7  N   UNL     1       3.662   5.200  18.672  0.00  0.00    +0.000 N 
ATOM      8  C   UNL     1       4.806   4.433  18.509  0.00  0.00    +0.000 C 
ATOM      9  O   UNL     1       5.256   3.747  19.423  0.00  0.00    +0.000 OA
ATOM     10  C   UNL     1       3.308   6.353  17.778  0.00  0.00    +0.000 C 
ENDROOT
BRANCH   8  11
ATOM     11  C   UNL     1       5.473   4.514  17.218  0.00  0.00    +0.000 A 
ATOM     12  C   UNL     1       5.160   3.948  15.991  0.00  0.00    +0.000 A 
ATOM     13  C   UNL     1       6.108   4.385  15.037  0.00  0.00    +0.000 A 
ATOM     14  C   UNL     1       7.022   5.162  15.713  0.00  0.00    +0.000 A 
ATOM     15  N   UNL     1       6.651   5.210  17.029  0.00  0.00    +0.000 N 
ATOM     16  H   UNL     1       7.137   5.712  17.761  0.00  0.00    +0.000 HD
ENDBRANCH   8  11
BRANCH   1  17
ATOM     17  C   UNL     1       0.847   9.652  20.596  0.00  0.00    +0.000 C 
BRANCH  17  18
ATOM     18  O   UNL     1      -0.467   9.739  20.050  0.00  0.00    +0.000 OA
BRANCH  18  19
ATOM     19  C   UNL     1      -0.648  10.937  19.292  0.00  0.00    +0.000 C 
BRANCH  19  23
ATOM     20  C   UNL     1      -4.968  11.843  17.026  0.00  0.00    +0.000 C 
ATOM     21  C   UNL     1      -3.637  11.226  17.275  0.00  0.00    +0.000 A 
ATOM     22  N   UNL     1      -2.852  11.518  18.291  0.00  0.00    +0.000 NA
ATOM     23  C   UNL     1      -1.686  10.762  18.227  0.00  0.00    +0.000 A 
ATOM     24  C   UNL     1      -1.622   9.903  17.144  0.00  0.00    +0.000 A 
ATOM     25  S   UNL     1      -3.032  10.040  16.189  0.00  0.00    +0.000 S 
ENDBRANCH  19  23
ENDBRANCH  18  19
ENDBRANCH  17  18
ENDBRANCH   1  17
TORSDOF 5
ENDMDL
MODEL 2
REMARK VINA RESULT:      -7.2      1.002      1.201
REMARK  Name = 
REMARK  6 active torsions:
REMARK  status: ('A' for Active; 'I' for Inactive)
REMARK    1  A    between atoms: C_1  and  C_2
REMARK    2  A    between atoms: C_4  and  C_5
REMARK    3  A    between atoms: C_5  and  O_6
REMARK    4  A    between atoms: O_6  and  C_7
REMARK    5  A    between atoms: C_7  and  C_8
REMARK    6  A    between atoms: C_15  and  C_17
REMARK                            x       y       z     vdW  Elec       q    Type
REMARK                         _______ _______ _______ _____ _____    ______ ____
ROOT
ATOM      1  C   UNL     1       1.581   8.303  19.920  0.00  0.00    +0.000 A 
ATOM      2  N   UNL     1       2.110   8.233  18.698  0.00  0.00    +0.000 NA
ATOM      3  C   UNL     1       2.601   6.979  18.675  0.00  0.00    +0.000 A 
ATOM      4  C   UNL     1       2.364   6.336  19.840  0.00  0.00    +0.000 A 
ATOM      5  O   UNL     1       1.707   7.143  20.689  0.00  0.00    +0.000 OA
ATOM      6  C   UNL     1       2.974   5.014  19.963  0.00  0.00    +0.000 C 
ATOM      7  N   UNL     1       3.756   5.021  18.679  0.00  0.00    +0.000 N 
ATOM      8  C   UNL     1       4.905   4.258  18.541  0.00  0.00    +0.000 C 
ATOM      9  O   UNL     1       5.337   3.574  19.464  0.00  0.00    +0.000 OA
ATOM     10  C   UNL     1       3.418   6.173  17.777  0.00  0.00    +0.000 C 
ENDROOT
BRANCH   8  11
ATOM     11  C   UNL     1       5.600   4.340  17.265  0.00  0.00    +0.000 A 
ATOM     12  C   UNL     1       5.303   3.792  16.026  0.00  0.00    +0.000 A 
ATOM     13  C   UNL     1       6.278   4.223  15.096  0.00  0.00    +0.000 A 
ATOM     14  C   UNL     1       7.191   4.978  15.799  0.00  0.00    +0.000 A 
ATOM     15  N   UNL     1       6.792   5.018  17.107  0.00  0.00    +0.000 N 
ATOM     16  H   UNL     1       7.272   5.505  17.854  0.00  0.00    +0.000 HD
ENDBRANCH   8  11
BRANCH   1  17
ATOM     17  C   UNL     1       0.886   9.466  20.539  0.00  0.00    +0.000 C 
BRANCH  17  18
ATOM     18  O   UNL     1       0.736  10.466  19.535  0.00  0.00    +0.000 OA
BRANCH  18  19
ATOM     19  C   UNL     1      -0.290  11.403  19.869  0.00  0.00    +0.000 C 
BRANCH  19  23
ATOM     20  C   UNL     1      -2.719   9.786  15.856  0.00  0.00    +0.000 C 
ATOM     21  C   UNL     1      -2.483  10.508  17.135  0.00  0.00    +0.000 A 
ATOM     22  N   UNL     1      -1.351  10.499  17.807  0.00  0.00    +0.000 NA
ATOM     23  C   UNL     1      -1.469  11.276  18.954  0.00  0.00    +0.000 A 
ATOM     24  C   UNL     1      -2.711  11.864  19.120  0.00  0.00    +0.000 A 
ATOM     25  S   UNL     1      -3.749  11.440  17.830  0.00  0.00    +0.000 S 
ENDBRANCH  19  23
ENDBRANCH  18  19
ENDBRANCH  17  18
ENDBRANCH   1  17
TORSDOF 5
ENDMDL
MODEL 3
REMARK VINA RESULT:      -7.2      3.089      5.144
REMARK  Name = 
REMARK  6 active torsions:
REMARK  status: ('A' for Active; 'I' for Inactive)
REMARK    1  A    between atoms: C_1  and  C_2
REMARK    2  A    between atoms: C_4  and  C_5
REMARK    3  A    between atoms: C_5  and  O_6
REMARK    4  A    between atoms: O_6  and  C_7
REMARK    5  A    between atoms: C_7  and  C_8
REMARK    6  A    between atoms: C_15  and  C_17
REMARK                            x       y       z     vdW  Elec       q    Type
REMARK                         _______ _______ _______ _____ _____    ______ ____
ROOT
ATOM      1  C   UNL     1       4.288   4.841  18.727  0.00  0.00    +0.000 A 
ATOM      2  N   UNL     1       3.848   3.987  17.802  0.00  0.00    +0.000 NA
ATOM      3  C   UNL     1       4.859   3.989  16.912  0.00  0.00    +0.000 A 
ATOM      4  C   UNL     1       5.858   4.811  17.304  0.00  0.00    +0.000 A 
ATOM      5  O   UNL     1       5.546   5.394  18.474  0.00  0.00    +0.000 OA
ATOM      6  C   UNL     1       6.943   4.984  16.341  0.00  0.00    +0.000 C 
ATOM      7  N   UNL     1       6.345   4.199  15.206  0.00  0.00    +0.000 N 
ATOM      8  C   UNL     1       6.696   4.469  13.892  0.00  0.00    +0.000 C 
ATOM      9  O   UNL     1       7.483   5.369  13.608  0.00  0.00    +0.000 OA
ATOM     10  C   UNL     1       5.112   3.434  15.589  0.00  0.00    +0.000 C 
ENDROOT
BRANCH   8  11
ATOM     11  C   UNL     1       6.056   3.665  12.862  0.00  0.00    +0.000 A 
ATOM     12  C   UNL     1       4.801   3.760  12.278  0.00  0.00    +0.000 A 
ATOM     13  C   UNL     1       4.691   2.762  11.281  0.00  0.00    +0.000 A 
ATOM     14  C   UNL     1       5.860   2.035  11.316  0.00  0.00    +0.000 A 
ATOM     15  N   UNL     1       6.663   2.566  12.289  0.00  0.00    +0.000 N 
ATOM     16  H   UNL     1       7.587   2.234  12.536  0.00  0.00    +0.000 HD
ENDBRANCH   8  11
BRANCH   1  17
ATOM     17  C   UNL     1       3.592   5.260  19.975  0.00  0.00    +0.000 C 
BRANCH  17  18
ATOM     18  O   UNL     1       2.343   5.837  19.602  0.00  0.00    +0.000 OA
BRANCH  18  19
ATOM     19  C   UNL     1       2.516   7.071  18.902  0.00  0.00    +0.000 C 
BRANCH  19  23
ATOM     20  C   UNL     1       0.235   9.345  22.677  0.00  0.00    +0.000 C 
ATOM     21  C   UNL     1       0.765   9.135  21.302  0.00  0.00    +0.000 A 
ATOM     22  N   UNL     1       1.413   8.061  20.902  0.00  0.00    +0.000 NA
ATOM     23  C   UNL     1       1.766   8.187  19.563  0.00  0.00    +0.000 A 
ATOM     24  C   UNL     1       1.367   9.374  18.976  0.00  0.00    +0.000 A 
ATOM     25  S   UNL     1       0.542  10.352  20.109  0.00  0.00    +0.000 S 
ENDBRANCH  19  23
ENDBRANCH  18  19
ENDBRANCH  17  18
ENDBRANCH   1  17
TORSDOF 5
ENDMDL
MODEL 4
REMARK VINA RESULT:      -7.1      2.032      2.776
REMARK  Name = 
REMARK  6 active torsions:
REMARK  status: ('A' for Active; 'I' for Inactive)
REMARK    1  A    between atoms: C_1  and  C_2
REMARK    2  A    between atoms: C_4  and  C_5
REMARK    3  A    between atoms: C_5  and  O_6
REMARK    4  A    between atoms: O_6  and  C_7
REMARK    5  A    between atoms: C_7  and  C_8
REMARK    6  A    between atoms: C_15  and  C_17
REMARK                            x       y       z     vdW  Elec       q    Type
REMARK                         _______ _______ _______ _____ _____    ______ ____
ROOT
ATOM      1  C   UNL     1       1.790   9.122  18.477  0.00  0.00    +0.000 A 
ATOM      2  N   UNL     1       1.748   8.065  19.289  0.00  0.00    +0.000 NA
ATOM      3  C   UNL     1       2.720   7.281  18.783  0.00  0.00    +0.000 A 
ATOM      4  C   UNL     1       3.312   7.860  17.714  0.00  0.00    +0.000 A 
ATOM      5  O   UNL     1       2.752   9.055  17.466  0.00  0.00    +0.000 OA
ATOM      6  C   UNL     1       4.290   7.031  17.014  0.00  0.00    +0.000 C 
ATOM      7  N   UNL     1       4.085   5.760  17.790  0.00  0.00    +0.000 N 
ATOM      8  C   UNL     1       4.363   4.526  17.222  0.00  0.00    +0.000 C 
ATOM      9  O   UNL     1       4.758   4.426  16.063  0.00  0.00    +0.000 OA
ATOM     10  C   UNL     1       3.222   5.932  19.006  0.00  0.00    +0.000 C 
ENDROOT
BRANCH   8  11
ATOM     11  C   UNL     1       4.122   3.352  18.047  0.00  0.00    +0.000 A 
ATOM     12  C   UNL     1       3.133   2.380  17.986  0.00  0.00    +0.000 A 
ATOM     13  C   UNL     1       3.383   1.418  18.992  0.00  0.00    +0.000 A 
ATOM     14  C   UNL     1       4.488   1.852  19.690  0.00  0.00    +0.000 A 
ATOM     15  N   UNL     1       4.908   3.031  19.135  0.00  0.00    +0.000 N 
ATOM     16  H   UNL     1       5.702   3.577  19.442  0.00  0.00    +0.000 HD
ENDBRANCH   8  11
BRANCH   1  17
ATOM     17  C   UNL     1       0.935  10.339  18.532  0.00  0.00    +0.000 C 
BRANCH  17  18
ATOM     18  O   UNL     1      -0.398   9.920  18.815  0.00  0.00    +0.000 OA
BRANCH  18  19
ATOM     19  C   UNL     1      -1.270  11.031  19.031  0.00  0.00    +0.000 C 
BRANCH  19  23
ATOM     20  C   UNL     1      -3.372  10.204  14.613  0.00  0.00    +0.000 C 
ATOM     21  C   UNL     1      -3.249  10.652  16.027  0.00  0.00    +0.000 A 
ATOM     22  N   UNL     1      -2.160  10.542  16.758  0.00  0.00    +0.000 NA
ATOM     23  C   UNL     1      -2.384  11.058  18.030  0.00  0.00    +0.000 A 
ATOM     24  C   UNL     1      -3.660  11.554  18.228  0.00  0.00    +0.000 A 
ATOM     25  S   UNL     1      -4.598  11.374  16.811  0.00  0.00    +0.000 S 
ENDBRANCH  19  23
ENDBRANCH  18  19
ENDBRANCH  17  18
ENDBRANCH   1  17
TORSDOF 5
ENDMDL
MODEL 5
REMARK VINA RESULT:      -7.1      1.250      1.400
REMARK  Name = 
REMARK  6 active torsions:
REMARK  status: ('A' for Active; 'I' for Inactive)
REMARK    1  A    between atoms: C_1  and  C_2
REMARK    2  A    between atoms: C_4  and  C_5
REMARK    3  A    between atoms: C_5  and  O_6
REMARK    4  A    between atoms: O_6  and  C_7
REMARK    5  A    between atoms: C_7  and  C_8
REMARK    6  A    between atoms: C_15  and  C_17
REMARK                            x       y       z     vdW  Elec       q    Type
REMARK                         _______ _______ _______ _____ _____    ______ ____
ROOT
ATOM      1  C   UNL     1       1.626   9.390  19.091  0.00  0.00    +0.000 A 
ATOM      2  N   UNL     1       2.205   9.083  17.930  0.00  0.00    +0.000 NA
ATOM      3  C   UNL     1       2.571   7.802  18.127  0.00  0.00    +0.000 A 
ATOM      4  C   UNL     1       2.214   7.372  19.358  0.00  0.00    +0.000 A 
ATOM      5  O   UNL     1       1.598   8.357  20.032  0.00  0.00    +0.000 OA
ATOM      6  C   UNL     1       2.683   6.036  19.716  0.00  0.00    +0.000 C 
ATOM      7  N   UNL     1       3.524   5.773  18.497  0.00  0.00    +0.000 N 
ATOM      8  C   UNL     1       4.597   4.897  18.549  0.00  0.00    +0.000 C 
ATOM      9  O   UNL     1       4.914   4.328  19.591  0.00  0.00    +0.000 OA
ATOM     10  C   UNL     1       3.346   6.796  17.414  0.00  0.00    +0.000 C 
ENDROOT
BRANCH   8  11
ATOM     11  C   UNL     1       5.359   4.716  17.322  0.00  0.00    +0.000 A 
ATOM     12  C   UNL     1       5.111   3.942  16.198  0.00  0.00    +0.000 A 
ATOM     13  C   UNL     1       6.144   4.166  15.258  0.00  0.00    +0.000 A 
ATOM     14  C   UNL     1       7.039   5.029  15.851  0.00  0.00    +0.000 A 
ATOM     15  N   UNL     1       6.576   5.331  17.103  0.00  0.00    +0.000 N 
ATOM     16  H   UNL     1       7.029   5.946  17.767  0.00  0.00    +0.000 HD
ENDBRANCH   8  11
BRANCH   1  17
ATOM     17  C   UNL     1       1.020  10.693  19.484  0.00  0.00    +0.000 C 
BRANCH  17  18
ATOM     18  O   UNL     1      -0.019  10.986  18.553  0.00  0.00    +0.000 OA
BRANCH  18  19
ATOM     19  C   UNL     1      -1.250  10.358  18.916  0.00  0.00    +0.000 C 
BRANCH  19  23
ATOM     20  C   UNL     1      -3.308  10.133  14.407  0.00  0.00    +0.000 C 
ATOM     21  C   UNL     1      -3.167  10.465  15.851  0.00  0.00    +0.000 A 
ATOM     22  N   UNL     1      -2.128  10.151  16.597  0.00  0.00    +0.000 NA
ATOM     23  C   UNL     1      -2.317  10.610  17.896  0.00  0.00    +0.000 A 
ATOM     24  C   UNL     1      -3.514  11.272  18.100  0.00  0.00    +0.000 A 
ATOM     25  S   UNL     1      -4.423  11.322  16.653  0.00  0.00    +0.000 S 
ENDBRANCH  19  23
ENDBRANCH  18  19
ENDBRANCH  17  18
ENDBRANCH   1  17
TORSDOF 5
ENDMDL
MODEL 6
REMARK VINA RESULT:      -7.0      2.707      3.250
REMARK  Name = 
REMARK  6 active torsions:
REMARK  status: ('A' for Active; 'I' for Inactive)
REMARK    1  A    between atoms: C_1  and  C_2
REMARK    2  A    between atoms: C_4  and  C_5
REMARK    3  A    between atoms: C_5  and  O_6
REMARK    4  A    between atoms: O_6  and  C_7
REMARK    5  A    between atoms: C_7  and  C_8
REMARK    6  A    between atoms: C_15  and  C_17
REMARK                            x       y       z     vdW  Elec       q    Type
REMARK                         _______ _______ _______ _____ _____    ______ ____
ROOT
ATOM      1  C   UNL     1       1.380   7.695  20.750  0.00  0.00    +0.000 A 
ATOM      2  N   UNL     1       2.116   7.843  19.648  0.00  0.00    +0.000 NA
ATOM      3  C   UNL     1       2.512   6.579  19.402  0.00  0.00    +0.000 A 
ATOM      4  C   UNL     1       2.022   5.721  20.324  0.00  0.00    +0.000 A 
ATOM      5  O   UNL     1       1.281   6.385  21.226  0.00  0.00    +0.000 OA
ATOM      6  C   UNL     1       2.503   4.346  20.219  0.00  0.00    +0.000 C 
ATOM      7  N   UNL     1       3.504   4.554  19.117  0.00  0.00    +0.000 N 
ATOM      8  C   UNL     1       4.601   3.718  18.983  0.00  0.00    +0.000 C 
ATOM      9  O   UNL     1       4.809   2.798  19.771  0.00  0.00    +0.000 OA
ATOM     10  C   UNL     1       3.419   5.910  18.478  0.00  0.00    +0.000 C 
ENDROOT
BRANCH   8  11
ATOM     11  C   UNL     1       5.521   4.007  17.894  0.00  0.00    +0.000 A 
ATOM     12  C   UNL     1       5.344   3.979  16.518  0.00  0.00    +0.000 A 
ATOM     13  C   UNL     1       6.544   4.400  15.900  0.00  0.00    +0.000 A 
ATOM     14  C   UNL     1       7.455   4.620  16.909  0.00  0.00    +0.000 A 
ATOM     15  N   UNL     1       6.841   4.352  18.103  0.00  0.00    +0.000 N 
ATOM     16  H   UNL     1       7.269   4.431  19.017  0.00  0.00    +0.000 HD
ENDBRANCH   8  11
BRANCH   1  17
ATOM     17  C   UNL     1       0.670   8.758  21.513  0.00  0.00    +0.000 C 
BRANCH  17  18
ATOM     18  O   UNL     1      -0.136   9.488  20.591  0.00  0.00    +0.000 OA
BRANCH  18  19
ATOM     19  C   UNL     1      -0.270  10.859  20.973  0.00  0.00    +0.000 C 
BRANCH  19  23
ATOM     20  C   UNL     1       3.286  14.315  20.789  0.00  0.00    +0.000 C 
ATOM     21  C   UNL     1       2.339  13.274  20.305  0.00  0.00    +0.000 A 
ATOM     22  N   UNL     1       1.493  12.614  21.068  0.00  0.00    +0.000 NA
ATOM     23  C   UNL     1       0.757  11.718  20.300  0.00  0.00    +0.000 A 
ATOM     24  C   UNL     1       1.071  11.728  18.953  0.00  0.00    +0.000 A 
ATOM     25  S   UNL     1       2.305  12.867  18.636  0.00  0.00    +0.000 S 
ENDBRANCH  19  23
ENDBRANCH  18  19
ENDBRANCH  17  18
ENDBRANCH   1  17
TORSDOF 5
ENDMDL
MODEL 7
REMARK VINA RESULT:      -7.0      6.169      8.632
REMARK  Name = 
REMARK  6 active torsions:
REMARK  status: ('A' for Active; 'I' for Inactive)
REMARK    1  A    between atoms: C_1  and  C_2
REMARK    2  A    between atoms: C_4  and  C_5
REMARK    3  A    between atoms: C_5  and  O_6
REMARK    4  A    between atoms: O_6  and  C_7
REMARK    5  A    between atoms: C_7  and  C_8
REMARK    6  A    between atoms: C_15  and  C_17
REMARK                            x       y       z     vdW  Elec       q    Type
REMARK                         _______ _______ _______ _____ _____    ______ ____
ROOT
ATOM      1  C   UNL     1       7.170   6.705  17.368  0.00  0.00    +0.000 A 
ATOM      2  N   UNL     1       6.688   6.321  18.551  0.00  0.00    +0.000 NA
ATOM      3  C   UNL     1       5.844   5.331  18.204  0.00  0.00    +0.000 A 
ATOM      4  C   UNL     1       5.835   5.139  16.866  0.00  0.00    +0.000 A 
ATOM      5  O   UNL     1       6.673   6.001  16.268  0.00  0.00    +0.000 OA
ATOM      6  C   UNL     1       4.852   4.174  16.378  0.00  0.00    +0.000 C 
ATOM      7  N   UNL     1       4.155   3.903  17.682  0.00  0.00    +0.000 N 
ATOM      8  C   UNL     1       2.836   3.479  17.710  0.00  0.00    +0.000 C 
ATOM      9  O   UNL     1       2.184   3.336  16.678  0.00  0.00    +0.000 OA
ATOM     10  C   UNL     1       4.856   4.494  18.871  0.00  0.00    +0.000 C 
ENDROOT
BRANCH   8  11
ATOM     11  C   UNL     1       2.244   3.254  19.020  0.00  0.00    +0.000 A 
ATOM     12  C   UNL     1       2.315   2.168  19.880  0.00  0.00    +0.000 A 
ATOM     13  C   UNL     1       1.599   2.478  21.060  0.00  0.00    +0.000 A 
ATOM     14  C   UNL     1       1.051   3.728  20.874  0.00  0.00    +0.000 A 
ATOM     15  N   UNL     1       1.418   4.175  19.634  0.00  0.00    +0.000 N 
ATOM     16  H   UNL     1       1.162   5.066  19.228  0.00  0.00    +0.000 HD
ENDBRANCH   8  11
BRANCH   1  17
ATOM     17  C   UNL     1       8.159   7.786  17.101  0.00  0.00    +0.000 C 
BRANCH  17  18
ATOM     18  O   UNL     1       8.331   8.523  18.309  0.00  0.00    +0.000 OA
BRANCH  18  19
ATOM     19  C   UNL     1       8.142   9.925  18.107  0.00  0.00    +0.000 C 
BRANCH  19  23
ATOM     20  C   UNL     1      12.178  12.805  17.904  0.00  0.00    +0.000 C 
ATOM     21  C   UNL     1      11.074  12.008  18.503  0.00  0.00    +0.000 A 
ATOM     22  N   UNL     1      10.153  11.364  17.816  0.00  0.00    +0.000 NA
ATOM     23  C   UNL     1       9.274  10.720  18.681  0.00  0.00    +0.000 A 
ATOM     24  C   UNL     1       9.562  10.897  20.023  0.00  0.00    +0.000 A 
ATOM     25  S   UNL     1      10.946  11.882  20.212  0.00  0.00    +0.000 S 
ENDBRANCH  19  23
ENDBRANCH  18  19
ENDBRANCH  17  18
ENDBRANCH   1  17
TORSDOF 5
ENDMDL
MODEL 8
REMARK VINA RESULT:      -6.9      2.484      3.371
REMARK  Name = 
REMARK  6 active torsions:
REMARK  status: ('A' for Active; 'I' for Inactive)
REMARK    1  A    between atoms: C_1  and  C_2
REMARK    2  A    between atoms: C_4  and  C_5
REMARK    3  A    between atoms: C_5  and  O_6
REMARK    4  A    between atoms: O_6  and  C_7
REMARK    5  A    between atoms: C_7  and  C_8
REMARK    6  A    between atoms: C_15  and  C_17
REMARK                            x       y       z     vdW  Elec       q    Type
REMARK                         _______ _______ _______ _____ _____    ______ ____
ROOT
ATOM      1  C   UNL     1       2.476   6.045  19.537  0.00  0.00    +0.000 A 
ATOM      2  N   UNL     1       2.453   5.880  18.214  0.00  0.00    +0.000 NA
ATOM      3  C   UNL     1       3.598   5.206  17.993  0.00  0.00    +0.000 A 
ATOM      4  C   UNL     1       4.266   4.980  19.146  0.00  0.00    +0.000 A 
ATOM      5  O   UNL     1       3.590   5.501  20.183  0.00  0.00    +0.000 OA
ATOM      6  C   UNL     1       5.585   4.371  18.997  0.00  0.00    +0.000 C 
ATOM      7  N   UNL     1       5.658   4.387  17.496  0.00  0.00    +0.000 N 
ATOM      8  C   UNL     1       6.881   4.416  16.843  0.00  0.00    +0.000 C 
ATOM      9  O   UNL     1       7.941   4.456  17.463  0.00  0.00    +0.000 OA
ATOM     10  C   UNL     1       4.362   4.759  16.836  0.00  0.00    +0.000 C 
ENDROOT
BRANCH   8  11
ATOM     11  C   UNL     1       6.850   4.442  15.388  0.00  0.00    +0.000 A 
ATOM     12  C   UNL     1       6.146   3.669  14.476  0.00  0.00    +0.000 A 
ATOM     13  C   UNL     1       6.430   4.139  13.172  0.00  0.00    +0.000 A 
ATOM     14  C   UNL     1       7.353   5.153  13.308  0.00  0.00    +0.000 A 
ATOM     15  N   UNL     1       7.622   5.308  14.641  0.00  0.00    +0.000 N 
ATOM     16  H   UNL     1       8.263   5.984  15.038  0.00  0.00    +0.000 HD
ENDBRANCH   8  11
BRANCH   1  17
ATOM     17  C   UNL     1       1.462   6.735  20.381  0.00  0.00    +0.000 C 
BRANCH  17  18
ATOM     18  O   UNL     1       1.859   8.098  20.507  0.00  0.00    +0.000 OA
BRANCH  18  19
ATOM     19  C   UNL     1       1.027   8.810  21.425  0.00  0.00    +0.000 C 
BRANCH  19  23
ATOM     20  C   UNL     1       0.665  13.749  21.106  0.00  0.00    +0.000 C 
ATOM     21  C   UNL     1       0.437  12.318  20.766  0.00  0.00    +0.000 A 
ATOM     22  N   UNL     1       0.961  11.299  21.414  0.00  0.00    +0.000 NA
ATOM     23  C   UNL     1       0.545  10.102  20.840  0.00  0.00    +0.000 A 
ATOM     24  C   UNL     1      -0.300  10.253  19.755  0.00  0.00    +0.000 A 
ATOM     25  S   UNL     1      -0.579  11.910  19.441  0.00  0.00    +0.000 S 
ENDBRANCH  19  23
ENDBRANCH  18  19
ENDBRANCH  17  18
ENDBRANCH   1  17
TORSDOF 5
ENDMDL
MODEL 9
REMARK VINA RESULT:      -6.9      1.962      3.044
REMARK  Name = 
REMARK  6 active torsions:
REMARK  status: ('A' for Active; 'I' for Inactive)
REMARK    1  A    between atoms: C_1  and  C_2
REMARK    2  A    between atoms: C_4  and  C_5
REMARK    3  A    between atoms: C_5  and  O_6
REMARK    4  A    between atoms: O_6  and  C_7
REMARK    5  A    between atoms: C_7  and  C_8
REMARK    6  A    between atoms: C_15  and  C_17
REMARK                            x       y       z     vdW  Elec       q    Type
REMARK                         _______ _______ _______ _____ _____    ______ ____
ROOT
ATOM      1  C   UNL     1       2.621   6.041  19.495  0.00  0.00    +0.000 A 
ATOM      2  N   UNL     1       2.592   5.936  18.166  0.00  0.00    +0.000 NA
ATOM      3  C   UNL     1       3.713   5.232  17.914  0.00  0.00    +0.000 A 
ATOM      4  C   UNL     1       4.372   4.932  19.056  0.00  0.00    +0.000 A 
ATOM      5  O   UNL     1       3.714   5.430  20.115  0.00  0.00    +0.000 OA
ATOM      6  C   UNL     1       5.669   4.283  18.879  0.00  0.00    +0.000 C 
ATOM      7  N   UNL     1       5.743   4.363  17.380  0.00  0.00    +0.000 N 
ATOM      8  C   UNL     1       6.967   4.377  16.727  0.00  0.00    +0.000 C 
ATOM      9  O   UNL     1       8.027   4.352  17.348  0.00  0.00    +0.000 OA
ATOM     10  C   UNL     1       4.462   4.810  16.738  0.00  0.00    +0.000 C 
ENDROOT
BRANCH   8  11
ATOM     11  C   UNL     1       6.938   4.469  15.276  0.00  0.00    +0.000 A 
ATOM     12  C   UNL     1       6.235   3.738  14.328  0.00  0.00    +0.000 A 
ATOM     13  C   UNL     1       6.522   4.266  13.048  0.00  0.00    +0.000 A 
ATOM     14  C   UNL     1       7.444   5.273  13.230  0.00  0.00    +0.000 A 
ATOM     15  N   UNL     1       7.711   5.368  14.569  0.00  0.00    +0.000 N 
ATOM     16  H   UNL     1       8.350   6.026  14.997  0.00  0.00    +0.000 HD
ENDBRANCH   8  11
BRANCH   1  17
ATOM     17  C   UNL     1       1.631   6.729  20.369  0.00  0.00    +0.000 C 
BRANCH  17  18
ATOM     18  O   UNL     1       1.552   8.089  19.948  0.00  0.00    +0.000 OA
BRANCH  18  19
ATOM     19  C   UNL     1       1.283   8.968  21.042  0.00  0.00    +0.000 C 
BRANCH  19  23
ATOM     20  C   UNL     1      -1.702  11.447  17.949  0.00  0.00    +0.000 C 
ATOM     21  C   UNL     1      -1.040  11.064  19.226  0.00  0.00    +0.000 A 
ATOM     22  N   UNL     1      -0.151  10.100  19.351  0.00  0.00    +0.000 NA
ATOM     23  C   UNL     1       0.268  10.006  20.674  0.00  0.00    +0.000 A 
ATOM     24  C   UNL     1      -0.326  10.919  21.527  0.00  0.00    +0.000 A 
ATOM     25  S   UNL     1      -1.425  11.909  20.671  0.00  0.00    +0.000 S 
ENDBRANCH  19  23
ENDBRANCH  18  19
ENDBRANCH  17  18
ENDBRANCH   1  17
TORSDOF 5
ENDMDL
