MODEL 1
REMARK VINA RESULT:      -8.0      0.000      0.000
REMARK  Name = 
REMARK  4 active torsions:
REMARK  status: ('A' for Active; 'I' for Inactive)
REMARK    1  A    between atoms: C_1  and  O_2
REMARK    2  A    between atoms: O_2  and  C_3
REMARK    3  A    between atoms: C_6  and  N_7
REMARK    4  A    between atoms: C_13  and  C_14
REMARK                            x       y       z     vdW  Elec       q    Type
REMARK                         _______ _______ _______ _____ _____    ______ ____
ROOT
ATOM      1  N   UNL     1       2.060   6.751  19.690  0.00  0.00    +0.000 N 
ATOM      2  C   UNL     1       1.579   6.042  20.781  0.00  0.00    +0.000 A 
ATOM      3  N   UNL     1       1.860   4.813  21.074  0.00  0.00    +0.000 NA
ATOM      4  C   UNL     1       2.759   4.236  20.239  0.00  0.00    +0.000 A 
ATOM      5  S   UNL     1       3.313   2.653  20.525  0.00  0.00    +0.000 S 
ATOM      6  C   UNL     1       4.403   2.738  19.216  0.00  0.00    +0.000 A 
ATOM      7  C   UNL     1       4.346   3.943  18.532  0.00  0.00    +0.000 A 
ATOM      8  C   UNL     1       3.334   4.796  19.117  0.00  0.00    +0.000 A 
ATOM      9  C   UNL     1       2.885   6.133  18.736  0.00  0.00    +0.000 A 
ATOM     10  O   UNL     1       3.241   6.667  17.689  0.00  0.00    +0.000 OA
ENDROOT
BRANCH   1  14
ATOM     11  C   UNL     1       1.015  10.826  19.228  0.00  0.00    +0.000 A 
ATOM     12  C   UNL     1       0.832  10.192  20.458  0.00  0.00    +0.000 A 
ATOM     13  C   UNL     1       1.188   8.852  20.626  0.00  0.00    +0.000 A 
ATOM     14  C   UNL     1       1.747   8.132  19.565  0.00  0.00    +0.000 A 
ATOM     15  C   UNL     1       1.937   8.776  18.333  0.00  0.00    +0.000 A 
ATOM     16  C   UNL     1       1.551  10.109  18.161  0.00  0.00    +0.000 A 
BRANCH  11  18
ATOM     17  C   UNL     1      -0.669  12.346  18.566  0.00  0.00    +0.000 C 
ATOM     18  O   UNL     1       0.598  12.127  19.177  0.00  0.00    +0.000 OA
ENDBRANCH  11  18
ENDBRANCH   1  14
BRANCH   7  19
ATOM     19  C   UNL     1       5.261   4.203  17.411  0.00  0.00    +0.000 A 
ATOM     20  C   UNL     1       6.575   4.644  17.641  0.00  0.00    +0.000 A 
ATOM     21  C   UNL     1       7.449   4.881  16.575  0.00  0.00    +0.000 A 
ATOM     22  C   UNL     1       7.033   4.657  15.266  0.00  0.00    +0.000 A 
ATOM     23  C   UNL     1       5.732   4.232  15.020  0.00  0.00    +0.000 A 
ATOM     24  C   UNL     1       4.849   4.031  16.082  0.00  0.00    +0.000 A 
ENDBRANCH   7  19
TORSDOF 3
ENDMDL
MODEL 2
REMARK VINA RESULT:      -7.9      0.508      1.138
REMARK  Name = 
REMARK  4 active torsions:
REMARK  status: ('A' for Active; 'I' for Inactive)
REMARK    1  A    between atoms: C_1  and  O_2
REMARK    2  A    between atoms: O_2  and  C_3
REMARK    3  A    between atoms: C_6  and  N_7
REMARK    4  A    between atoms: C_13  and  C_14
REMARK                            x       y       z     vdW  Elec       q    Type
REMARK                         _______ _______ _______ _____ _____    ______ ____
ROOT
ATOM      1  N   UNL     1       2.037   6.744  19.625  0.00  0.00    +0.000 N 
ATOM      2  C   UNL     1       1.571   6.054  20.735  0.00  0.00    +0.000 A 
ATOM      3  N   UNL     1       1.874   4.838  21.057  0.00  0.00    +0.000 NA
ATOM      4  C   UNL     1       2.782   4.257  20.235  0.00  0.00    +0.000 A 
ATOM      5  S   UNL     1       3.365   2.691  20.558  0.00  0.00    +0.000 S 
ATOM      6  C   UNL     1       4.451   2.764  19.244  0.00  0.00    +0.000 A 
ATOM      7  C   UNL     1       4.372   3.950  18.531  0.00  0.00    +0.000 A 
ATOM      8  C   UNL     1       3.345   4.799  19.097  0.00  0.00    +0.000 A 
ATOM      9  C   UNL     1       2.872   6.118  18.685  0.00  0.00    +0.000 A 
ATOM     10  O   UNL     1       3.216   6.633  17.624  0.00  0.00    +0.000 OA
ENDROOT
BRANCH   1  14
ATOM     11  C   UNL     1       1.143  10.865  19.249  0.00  0.00    +0.000 A 
ATOM     12  C   UNL     1       1.657  10.158  18.161  0.00  0.00    +0.000 A 
ATOM     13  C   UNL     1       1.941   8.795  18.269  0.00  0.00    +0.000 A 
ATOM     14  C   UNL     1       1.699   8.117  19.467  0.00  0.00    +0.000 A 
ATOM     15  C   UNL     1       1.174   8.829  20.556  0.00  0.00    +0.000 A 
ATOM     16  C   UNL     1       0.920  10.200  20.453  0.00  0.00    +0.000 A 
BRANCH  11  18
ATOM     17  C   UNL     1       2.028  12.904  18.449  0.00  0.00    +0.000 C 
ATOM     18  O   UNL     1       0.938  12.199  19.032  0.00  0.00    +0.000 OA
ENDBRANCH  11  18
ENDBRANCH   1  14
BRANCH   7  19
ATOM     19  C   UNL     1       5.280   4.199  17.402  0.00  0.00    +0.000 A 
ATOM     20  C   UNL     1       6.597   4.634  17.620  0.00  0.00    +0.000 A 
ATOM     21  C   UNL     1       7.465   4.860  16.547  0.00  0.00    +0.000 A 
ATOM     22  C   UNL     1       7.038   4.632  15.242  0.00  0.00    +0.000 A 
ATOM     23  C   UNL     1       5.733   4.212  15.008  0.00  0.00    +0.000 A 
ATOM     24  C   UNL     1       4.857   4.022  16.077  0.00  0.00    +0.000 A 
ENDBRANCH   7  19
TORSDOF 3
ENDMDL
MODEL 3
REMARK VINA RESULT:      -7.8      0.369      1.044
REMARK  Name = 
REMARK  4 active torsions:
REMARK  status: ('A' for Active; 'I' for Inactive)
REMARK    1  A    between atoms: C_1  and  O_2
REMARK    2  A    between atoms: O_2  and  C_3
REMARK    3  A    between atoms: C_6  and  N_7
REMARK    4  A    between atoms: C_13  and  C_14
REMARK                            x       y       z     vdW  Elec       q    Type
REMARK                         _______ _______ _______ _____ _____    ______ ____
ROOT
ATOM      1  N   UNL     1       2.054   6.679  19.762  0.00  0.00    +0.000 N 
ATOM      2  C   UNL     1       1.585   5.931  20.832  0.00  0.00    +0.000 A 
ATOM      3  N   UNL     1       1.880   4.697  21.086  0.00  0.00    +0.000 NA
ATOM      4  C   UNL     1       2.783   4.157  20.231  0.00  0.00    +0.000 A 
ATOM      5  S   UNL     1       3.356   2.572  20.466  0.00  0.00    +0.000 S 
ATOM      6  C   UNL     1       4.441   2.711  19.156  0.00  0.00    +0.000 A 
ATOM      7  C   UNL     1       4.368   3.935  18.510  0.00  0.00    +0.000 A 
ATOM      8  C   UNL     1       3.348   4.758  19.124  0.00  0.00    +0.000 A 
ATOM      9  C   UNL     1       2.883   6.101  18.787  0.00  0.00    +0.000 A 
ATOM     10  O   UNL     1       3.229   6.672  17.756  0.00  0.00    +0.000 OA
ENDROOT
BRANCH   1  14
ATOM     11  C   UNL     1       0.959  10.755  19.433  0.00  0.00    +0.000 A 
ATOM     12  C   UNL     1       0.807  10.086  20.648  0.00  0.00    +0.000 A 
ATOM     13  C   UNL     1       1.180   8.745  20.772  0.00  0.00    +0.000 A 
ATOM     14  C   UNL     1       1.725   8.060  19.682  0.00  0.00    +0.000 A 
ATOM     15  C   UNL     1       1.884   8.740  18.464  0.00  0.00    +0.000 A 
ATOM     16  C   UNL     1       1.482  10.073  18.336  0.00  0.00    +0.000 A 
BRANCH  11  18
ATOM     17  C   UNL     1      -0.631  12.322  20.206  0.00  0.00    +0.000 C 
ATOM     18  O   UNL     1       0.528  12.052  19.426  0.00  0.00    +0.000 OA
ENDBRANCH  11  18
ENDBRANCH   1  14
BRANCH   7  19
ATOM     19  C   UNL     1       5.276   4.241  17.395  0.00  0.00    +0.000 A 
ATOM     20  C   UNL     1       4.930   3.915  16.073  0.00  0.00    +0.000 A 
ATOM     21  C   UNL     1       5.788   4.216  15.011  0.00  0.00    +0.000 A 
ATOM     22  C   UNL     1       6.995   4.867  15.250  0.00  0.00    +0.000 A 
ATOM     23  C   UNL     1       7.358   5.186  16.554  0.00  0.00    +0.000 A 
ATOM     24  C   UNL     1       6.518   4.853  17.617  0.00  0.00    +0.000 A 
ENDBRANCH   7  19
TORSDOF 3
ENDMDL
MODEL 4
REMARK VINA RESULT:      -7.8      2.021      6.841
REMARK  Name = 
REMARK  4 active torsions:
REMARK  status: ('A' for Active; 'I' for Inactive)
REMARK    1  A    between atoms: C_1  and  O_2
REMARK    2  A    between atoms: O_2  and  C_3
REMARK    3  A    between atoms: C_6  and  N_7
REMARK    4  A    between atoms: C_13  and  C_14
REMARK                            x       y       z     vdW  Elec       q    Type
REMARK                         _______ _______ _______ _____ _____    ______ ____
ROOT
ATOM      1  N   UNL     1       4.777   4.523  17.780  0.00  0.00    +0.000 N 
ATOM      2  C   UNL     1       4.644   3.319  18.457  0.00  0.00    +0.000 A 
ATOM      3  N   UNL     1       3.917   3.114  19.509  0.00  0.00    +0.000 NA
ATOM      4  C   UNL     1       3.195   4.192  19.902  0.00  0.00    +0.000 A 
ATOM      5  S   UNL     1       2.115   4.079  21.212  0.00  0.00    +0.000 S 
ATOM      6  C   UNL     1       1.577   5.682  20.979  0.00  0.00    +0.000 A 
ATOM      7  C   UNL     1       2.218   6.330  19.934  0.00  0.00    +0.000 A 
ATOM      8  C   UNL     1       3.207   5.454  19.342  0.00  0.00    +0.000 A 
ATOM      9  C   UNL     1       4.146   5.687  18.247  0.00  0.00    +0.000 A 
ATOM     10  O   UNL     1       4.323   6.803  17.766  0.00  0.00    +0.000 OA
ENDROOT
BRANCH   1  14
ATOM     11  C   UNL     1       6.924   4.752  14.139  0.00  0.00    +0.000 A 
ATOM     12  C   UNL     1       7.547   5.090  15.341  0.00  0.00    +0.000 A 
ATOM     13  C   UNL     1       6.853   5.003  16.550  0.00  0.00    +0.000 A 
ATOM     14  C   UNL     1       5.527   4.561  16.572  0.00  0.00    +0.000 A 
ATOM     15  C   UNL     1       4.907   4.213  15.362  0.00  0.00    +0.000 A 
ATOM     16  C   UNL     1       5.596   4.331  14.151  0.00  0.00    +0.000 A 
BRANCH  11  18
ATOM     17  C   UNL     1       7.245   4.219  11.860  0.00  0.00    +0.000 C 
ATOM     18  O   UNL     1       7.694   4.910  13.021  0.00  0.00    +0.000 OA
ENDBRANCH  11  18
ENDBRANCH   1  14
BRANCH   7  19
ATOM     19  C   UNL     1       1.832   7.698  19.562  0.00  0.00    +0.000 A 
ATOM     20  C   UNL     1       1.320   8.588  20.521  0.00  0.00    +0.000 A 
ATOM     21  C   UNL     1       0.963   9.894  20.170  0.00  0.00    +0.000 A 
ATOM     22  C   UNL     1       1.135  10.338  18.862  0.00  0.00    +0.000 A 
ATOM     23  C   UNL     1       1.629   9.466  17.898  0.00  0.00    +0.000 A 
ATOM     24  C   UNL     1       1.951   8.153  18.241  0.00  0.00    +0.000 A 
ENDBRANCH   7  19
TORSDOF 3
ENDMDL
MODEL 5
REMARK VINA RESULT:      -7.7      2.765      4.618
REMARK  Name = 
REMARK  4 active torsions:
REMARK  status: ('A' for Active; 'I' for Inactive)
REMARK    1  A    between atoms: C_1  and  O_2
REMARK    2  A    between atoms: O_2  and  C_3
REMARK    3  A    between atoms: C_6  and  N_7
REMARK    4  A    between atoms: C_13  and  C_14
REMARK                            x       y       z     vdW  Elec       q    Type
REMARK                         _______ _______ _______ _____ _____    ______ ____
ROOT
ATOM      1  N   UNL     1       1.437   9.308  19.177  0.00  0.00    +0.000 N 
ATOM      2  C   UNL     1       2.153   9.810  18.100  0.00  0.00    +0.000 A 
ATOM      3  N   UNL     1       3.026   9.161  17.398  0.00  0.00    +0.000 NA
ATOM      4  C   UNL     1       3.168   7.861  17.753  0.00  0.00    +0.000 A 
ATOM      5  S   UNL     1       4.207   6.833  16.881  0.00  0.00    +0.000 S 
ATOM      6  C   UNL     1       3.742   5.481  17.813  0.00  0.00    +0.000 A 
ATOM      7  C   UNL     1       2.824   5.787  18.806  0.00  0.00    +0.000 A 
ATOM      8  C   UNL     1       2.535   7.205  18.791  0.00  0.00    +0.000 A 
ATOM      9  C   UNL     1       1.665   8.005  19.650  0.00  0.00    +0.000 A 
ATOM     10  O   UNL     1       1.156   7.547  20.670  0.00  0.00    +0.000 OA
ENDROOT
BRANCH   1  14
ATOM     11  C   UNL     1      -1.469  11.818  20.956  0.00  0.00    +0.000 A 
ATOM     12  C   UNL     1      -1.670  11.320  19.668  0.00  0.00    +0.000 A 
ATOM     13  C   UNL     1      -0.725  10.478  19.077  0.00  0.00    +0.000 A 
ATOM     14  C   UNL     1       0.430  10.112  19.777  0.00  0.00    +0.000 A 
ATOM     15  C   UNL     1       0.622  10.608  21.075  0.00  0.00    +0.000 A 
ATOM     16  C   UNL     1      -0.312  11.475  21.651  0.00  0.00    +0.000 A 
BRANCH  11  18
ATOM     17  C   UNL     1      -3.485  12.958  20.487  0.00  0.00    +0.000 C 
ATOM     18  O   UNL     1      -2.447  12.658  21.413  0.00  0.00    +0.000 OA
ENDBRANCH  11  18
ENDBRANCH   1  14
BRANCH   7  19
ATOM     19  C   UNL     1       2.276   4.726  19.662  0.00  0.00    +0.000 A 
ATOM     20  C   UNL     1       1.282   3.856  19.185  0.00  0.00    +0.000 A 
ATOM     21  C   UNL     1       0.768   2.839  19.995  0.00  0.00    +0.000 A 
ATOM     22  C   UNL     1       1.257   2.659  21.286  0.00  0.00    +0.000 A 
ATOM     23  C   UNL     1       2.234   3.518  21.778  0.00  0.00    +0.000 A 
ATOM     24  C   UNL     1       2.719   4.556  20.982  0.00  0.00    +0.000 A 
ENDBRANCH   7  19
TORSDOF 3
ENDMDL
MODEL 6
REMARK VINA RESULT:      -7.7      2.812      4.606
REMARK  Name = 
REMARK  4 active torsions:
REMARK  status: ('A' for Active; 'I' for Inactive)
REMARK    1  A    between atoms: C_1  and  O_2
REMARK    2  A    between atoms: O_2  and  C_3
REMARK    3  A    between atoms: C_6  and  N_7
REMARK    4  A    between atoms: C_13  and  C_14
REMARK                            x       y       z     vdW  Elec       q    Type
REMARK                         _______ _______ _______ _____ _____    ______ ____
ROOT
ATOM      1  N   UNL     1       1.372   9.343  19.280  0.00  0.00    +0.000 N 
ATOM      2  C   UNL     1       2.052   9.878  18.195  0.00  0.00    +0.000 A 
ATOM      3  N   UNL     1       2.910   9.255  17.453  0.00  0.00    +0.000 NA
ATOM      4  C   UNL     1       3.073   7.947  17.771  0.00  0.00    +0.000 A 
ATOM      5  S   UNL     1       4.095   6.951  16.845  0.00  0.00    +0.000 S 
ATOM      6  C   UNL     1       3.670   5.573  17.756  0.00  0.00    +0.000 A 
ATOM      7  C   UNL     1       2.778   5.846  18.782  0.00  0.00    +0.000 A 
ATOM      8  C   UNL     1       2.476   7.261  18.810  0.00  0.00    +0.000 A 
ATOM      9  C   UNL     1       1.625   8.031  19.714  0.00  0.00    +0.000 A 
ATOM     10  O   UNL     1       1.150   7.545  20.736  0.00  0.00    +0.000 OA
ENDROOT
BRANCH   1  14
ATOM     11  C   UNL     1      -1.499  11.779  21.213  0.00  0.00    +0.000 A 
ATOM     12  C   UNL     1      -1.691  11.390  19.887  0.00  0.00    +0.000 A 
ATOM     13  C   UNL     1      -0.758  10.573  19.244  0.00  0.00    +0.000 A 
ATOM     14  C   UNL     1       0.376  10.123  19.928  0.00  0.00    +0.000 A 
ATOM     15  C   UNL     1       0.560  10.509  21.264  0.00  0.00    +0.000 A 
ATOM     16  C   UNL     1      -0.361  11.351  21.895  0.00  0.00    +0.000 A 
BRANCH  11  18
ATOM     17  C   UNL     1      -2.791  12.399  23.091  0.00  0.00    +0.000 C 
ATOM     18  O   UNL     1      -2.462  12.605  21.723  0.00  0.00    +0.000 OA
ENDBRANCH  11  18
ENDBRANCH   1  14
BRANCH   7  19
ATOM     19  C   UNL     1       2.265   4.759  19.628  0.00  0.00    +0.000 A 
ATOM     20  C   UNL     1       2.743   4.576  20.936  0.00  0.00    +0.000 A 
ATOM     21  C   UNL     1       2.246   3.549  21.745  0.00  0.00    +0.000 A 
ATOM     22  C   UNL     1       1.249   2.704  21.268  0.00  0.00    +0.000 A 
ATOM     23  C   UNL     1       0.773   2.863  19.971  0.00  0.00    +0.000 A 
ATOM     24  C   UNL     1       1.294   3.866  19.152  0.00  0.00    +0.000 A 
ENDBRANCH   7  19
TORSDOF 3
ENDMDL
MODEL 7
REMARK VINA RESULT:      -7.7      2.035      6.941
REMARK  Name = 
REMARK  4 active torsions:
REMARK  status: ('A' for Active; 'I' for Inactive)
REMARK    1  A    between atoms: C_1  and  O_2
REMARK    2  A    between atoms: O_2  and  C_3
REMARK    3  A    between atoms: C_6  and  N_7
REMARK    4  A    between atoms: C_13  and  C_14
REMARK                            x       y       z     vdW  Elec       q    Type
REMARK                         _______ _______ _______ _____ _____    ______ ____
ROOT
ATOM      1  N   UNL     1       4.728   4.623  17.665  0.00  0.00    +0.000 N 
ATOM      2  C   UNL     1       4.612   3.403  18.316  0.00  0.00    +0.000 A 
ATOM      3  N   UNL     1       3.912   3.172  19.380  0.00  0.00    +0.000 NA
ATOM      4  C   UNL     1       3.199   4.239  19.817  0.00  0.00    +0.000 A 
ATOM      5  S   UNL     1       2.152   4.093  21.151  0.00  0.00    +0.000 S 
ATOM      6  C   UNL     1       1.608   5.700  20.970  0.00  0.00    +0.000 A 
ATOM      7  C   UNL     1       2.223   6.374  19.926  0.00  0.00    +0.000 A 
ATOM      8  C   UNL     1       3.196   5.514  19.288  0.00  0.00    +0.000 A 
ATOM      9  C   UNL     1       4.108   5.775  18.176  0.00  0.00    +0.000 A 
ATOM     10  O   UNL     1       4.272   6.902  17.718  0.00  0.00    +0.000 OA
ENDROOT
BRANCH   1  14
ATOM     11  C   UNL     1       6.957   4.715  14.068  0.00  0.00    +0.000 A 
ATOM     12  C   UNL     1       5.632   4.278  14.059  0.00  0.00    +0.000 A 
ATOM     13  C   UNL     1       4.882   4.258  15.237  0.00  0.00    +0.000 A 
ATOM     14  C   UNL     1       5.447   4.691  16.441  0.00  0.00    +0.000 A 
ATOM     15  C   UNL     1       6.777   5.139  16.444  0.00  0.00    +0.000 A 
ATOM     16  C   UNL     1       7.534   5.129  15.268  0.00  0.00    +0.000 A 
BRANCH  11  18
ATOM     17  C   UNL     1       6.995   3.819  11.883  0.00  0.00    +0.000 C 
ATOM     18  O   UNL     1       7.598   4.657  12.862  0.00  0.00    +0.000 OA
ENDBRANCH  11  18
ENDBRANCH   1  14
BRANCH   7  19
ATOM     19  C   UNL     1       1.827   7.751  19.597  0.00  0.00    +0.000 A 
ATOM     20  C   UNL     1       1.937   8.238  18.284  0.00  0.00    +0.000 A 
ATOM     21  C   UNL     1       1.549   9.545  17.969  0.00  0.00    +0.000 A 
ATOM     22  C   UNL     1       1.024  10.375  18.954  0.00  0.00    +0.000 A 
ATOM     23  C   UNL     1       0.919   9.912  20.261  0.00  0.00    +0.000 A 
ATOM     24  C   UNL     1       1.340   8.622  20.582  0.00  0.00    +0.000 A 
ENDBRANCH   7  19
TORSDOF 3
ENDMDL
MODEL 8
REMARK VINA RESULT:      -7.6      2.777      4.615
REMARK  Name = 
REMARK  4 active torsions:
REMARK  status: ('A' for Active; 'I' for Inactive)
REMARK    1  A    between atoms: C_1  and  O_2
REMARK    2  A    between atoms: O_2  and  C_3
REMARK    3  A    between atoms: C_6  and  N_7
REMARK    4  A    between atoms: C_13  and  C_14
REMARK                            x       y       z     vdW  Elec       q    Type
REMARK                         _______ _______ _______ _____ _____    ______ ____
ROOT
ATOM      1  N   UNL     1       1.484   9.316  19.189  0.00  0.00    +0.000 N 
ATOM      2  C   UNL     1       2.190   9.809  18.101  0.00  0.00    +0.000 A 
ATOM      3  N   UNL     1       3.040   9.148  17.383  0.00  0.00    +0.000 NA
ATOM      4  C   UNL     1       3.166   7.844  17.733  0.00  0.00    +0.000 A 
ATOM      5  S   UNL     1       4.172   6.802  16.840  0.00  0.00    +0.000 S 
ATOM      6  C   UNL     1       3.701   5.455  17.777  0.00  0.00    +0.000 A 
ATOM      7  C   UNL     1       2.806   5.774  18.786  0.00  0.00    +0.000 A 
ATOM      8  C   UNL     1       2.540   7.197  18.779  0.00  0.00    +0.000 A 
ATOM      9  C   UNL     1       1.698   8.009  19.655  0.00  0.00    +0.000 A 
ATOM     10  O   UNL     1       1.199   7.557  20.682  0.00  0.00    +0.000 OA
ENDROOT
BRANCH   1  14
ATOM     11  C   UNL     1      -1.542  11.642  21.019  0.00  0.00    +0.000 A 
ATOM     12  C   UNL     1      -0.445  11.210  21.765  0.00  0.00    +0.000 A 
ATOM     13  C   UNL     1       0.567  10.455  21.168  0.00  0.00    +0.000 A 
ATOM     14  C   UNL     1       0.501  10.136  19.808  0.00  0.00    +0.000 A 
ATOM     15  C   UNL     1      -0.600  10.581  19.059  0.00  0.00    +0.000 A 
ATOM     16  C   UNL     1      -1.626  11.310  19.668  0.00  0.00    +0.000 A 
BRANCH  11  18
ATOM     17  C   UNL     1      -2.486  12.134  23.128  0.00  0.00    +0.000 C 
ATOM     18  O   UNL     1      -2.483  12.343  21.720  0.00  0.00    +0.000 OA
ENDBRANCH  11  18
ENDBRANCH   1  14
BRANCH   7  19
ATOM     19  C   UNL     1       2.255   4.720  19.649  0.00  0.00    +0.000 A 
ATOM     20  C   UNL     1       1.249   3.858  19.182  0.00  0.00    +0.000 A 
ATOM     21  C   UNL     1       0.732   2.847  19.999  0.00  0.00    +0.000 A 
ATOM     22  C   UNL     1       1.229   2.667  21.286  0.00  0.00    +0.000 A 
ATOM     23  C   UNL     1       2.217   3.518  21.769  0.00  0.00    +0.000 A 
ATOM     24  C   UNL     1       2.706   4.549  20.966  0.00  0.00    +0.000 A 
ENDBRANCH   7  19
TORSDOF 3
ENDMDL
MODEL 9
REMARK VINA RESULT:      -7.1      0.992      1.441
REMARK  Name = 
REMARK  4 active torsions:
REMARK  status: ('A' for Active; 'I' for Inactive)
REMARK    1  A    between atoms: C_1  and  O_2
REMARK    2  A    between atoms: O_2  and  C_3
REMARK    3  A    between atoms: C_6  and  N_7
REMARK    4  A    between atoms: C_13  and  C_14
REMARK                            x       y       z     vdW  Elec       q    Type
REMARK                         _______ _______ _______ _____ _____    ______ ____
ROOT
ATOM      1  N   UNL     1       1.744   6.467  19.968  0.00  0.00    +0.000 N 
ATOM      2  C   UNL     1       1.143   5.484  20.740  0.00  0.00    +0.000 A 
ATOM      3  N   UNL     1       1.356   4.211  20.651  0.00  0.00    +0.000 NA
ATOM      4  C   UNL     1       2.308   3.870  19.748  0.00  0.00    +0.000 A 
ATOM      5  S   UNL     1       2.782   2.246  19.562  0.00  0.00    +0.000 S 
ATOM      6  C   UNL     1       3.990   2.671  18.433  0.00  0.00    +0.000 A 
ATOM      7  C   UNL     1       4.035   4.030  18.162  0.00  0.00    +0.000 A 
ATOM      8  C   UNL     1       3.002   4.716  18.907  0.00  0.00    +0.000 A 
ATOM      9  C   UNL     1       2.633   6.130  18.934  0.00  0.00    +0.000 A 
ATOM     10  O   UNL     1       3.100   6.942  18.140  0.00  0.00    +0.000 OA
ENDROOT
BRANCH   1  14
ATOM     11  C   UNL     1       1.119  10.547  20.908  0.00  0.00    +0.000 A 
ATOM     12  C   UNL     1       1.270  10.151  19.579  0.00  0.00    +0.000 A 
ATOM     13  C   UNL     1       1.461   8.805  19.256  0.00  0.00    +0.000 A 
ATOM     14  C   UNL     1       1.489   7.835  20.262  0.00  0.00    +0.000 A 
ATOM     15  C   UNL     1       1.327   8.237  21.597  0.00  0.00    +0.000 A 
ATOM     16  C   UNL     1       1.167   9.588  21.919  0.00  0.00    +0.000 A 
BRANCH  11  18
ATOM     17  C   UNL     1      -0.309  12.425  20.785  0.00  0.00    +0.000 C 
ATOM     18  O   UNL     1       0.972  11.892  21.101  0.00  0.00    +0.000 OA
ENDBRANCH  11  18
ENDBRANCH   1  14
BRANCH   7  19
ATOM     19  C   UNL     1       5.056   4.571  17.254  0.00  0.00    +0.000 A 
ATOM     20  C   UNL     1       6.136   5.321  17.749  0.00  0.00    +0.000 A 
ATOM     21  C   UNL     1       7.114   5.826  16.886  0.00  0.00    +0.000 A 
ATOM     22  C   UNL     1       7.042   5.571  15.520  0.00  0.00    +0.000 A 
ATOM     23  C   UNL     1       5.973   4.840  15.012  0.00  0.00    +0.000 A 
ATOM     24  C   UNL     1       4.978   4.367  15.869  0.00  0.00    +0.000 A 
ENDBRANCH   7  19
TORSDOF 3
ENDMDL
