MODEL 1
REMARK VINA RESULT:      -7.2      0.000      0.000
REMARK  Name = 
REMARK  18 active torsions:
REMARK  status: ('A' for Active; 'I' for Inactive)
REMARK    1  A    between atoms: C_1  and  C_2
REMARK    2  A    between atoms: C_2  and  C_3
REMARK    3  A    between atoms: C_3  and  O_4
REMARK    4  A    between atoms: C_6  and  O_7
REMARK    5  A    between atoms: O_7  and  C_8
REMARK    6  A    between atoms: C_9  and  O_10
REMARK    7  A    between atoms: C_11  and  N_12
REMARK    8  A    between atoms: C_14  and  N_15
REMARK    9  A    between atoms: C_16  and  O_17
REMARK   10  A    between atoms: O_17  and  C_18
REMARK   11  A    between atoms: C_20  and  C_21
REMARK   12  A    between atoms: C_21  and  N_22
REMARK   13  A    between atoms: C_23  and  O_24
REMARK   14  A    between atoms: C_25  and  O_26
REMARK   15  A    between atoms: C_27  and  N_28
REMARK   16  A    between atoms: C_29  and  O_30
REMARK   17  A    between atoms: C_31  and  O_32
REMARK   18  A    between atoms: C_33  and  O_34
REMARK                            x       y       z     vdW  Elec       q    Type
REMARK                         _______ _______ _______ _____ _____    ______ ____
ROOT
ATOM      1  C   UNL     1       3.751   4.446  20.214  0.00  0.00    +0.000 C 
ATOM      2  C   UNL     1       3.278   2.951  20.495  0.00  0.00    +0.000 C 
ATOM      3  C   UNL     1       1.815   2.485  20.058  0.00  0.00    +0.000 C 
ATOM      4  C   UNL     1       0.947   3.594  19.459  0.00  0.00    +0.000 C 
ATOM      5  C   UNL     1       1.851   4.528  18.695  0.00  0.00    +0.000 C 
ATOM      6  C   UNL     1       2.613   5.384  19.737  0.00  0.00    +0.000 C 
ENDROOT
BRANCH   3   7
ATOM      7  N   UNL     1       1.828   1.335  19.126  0.00  0.00    +0.000 NA
ATOM      8  H   UNL     1       2.072   1.689  18.195  0.00  0.00    +0.000 HD
ATOM      9  H   UNL     1       0.904   0.900  19.055  0.00  0.00    +0.000 HD
ENDBRANCH   3   7
BRANCH   5  10
ATOM     10  N   UNL     1       1.246   5.280  17.609  0.00  0.00    +0.000 NA
ATOM     11  H   UNL     1       1.173   6.253  17.867  0.00  0.00    +0.000 HD
ATOM     12  H   UNL     1       0.331   4.915  17.383  0.00  0.00    +0.000 HD
ENDBRANCH   5  10
BRANCH   2  13
ATOM     13  O   UNL     1       4.254   2.048  19.921  0.00  0.00    +0.000 OA
ATOM     14  H   UNL     1       4.608   1.496  20.638  0.00  0.00    +0.000 HD
ENDBRANCH   2  13
BRANCH   6  15
ATOM     15  O   UNL     1       1.858   6.037  20.804  0.00  0.00    +0.000 OA
BRANCH  15  16
ATOM     16  C   UNL     1       1.224   7.250  20.315  0.00  0.00    +0.000 C 
ATOM     17  O   UNL     1       0.743   7.926  21.474  0.00  0.00    +0.000 OA
ATOM     18  C   UNL     1      -0.140   9.029  21.238  0.00  0.00    +0.000 C 
ATOM     19  C   UNL     1       0.661  10.118  20.535  0.00  0.00    +0.000 C 
ATOM     20  C   UNL     1       1.295   9.547  19.245  0.00  0.00    +0.000 C 
ATOM     21  C   UNL     1       2.135   8.252  19.526  0.00  0.00    +0.000 C 
BRANCH  21  22
ATOM     22  N   UNL     1       2.712   7.786  18.251  0.00  0.00    +0.000 NA
ATOM     23  H   UNL     1       2.245   6.933  17.941  0.00  0.00    +0.000 HD
ATOM     24  H   UNL     1       3.710   7.620  18.325  0.00  0.00    +0.000 HD
ENDBRANCH  21  22
BRANCH  20  25
ATOM     25  O   UNL     1       0.304   9.297  18.227  0.00  0.00    +0.000 OA
ATOM     26  H   UNL     1      -0.191   8.484  18.411  0.00  0.00    +0.000 HD
ENDBRANCH  20  25
BRANCH  19  27
ATOM     27  O   UNL     1       1.711  10.576  21.397  0.00  0.00    +0.000 OA
ATOM     28  H   UNL     1       2.071   9.798  21.863  0.00  0.00    +0.000 HD
ENDBRANCH  19  27
BRANCH  18  29
ATOM     29  C   UNL     1      -0.694   9.413  22.628  0.00  0.00    +0.000 C 
BRANCH  29  30
ATOM     30  N   UNL     1       0.324   9.632  23.646  0.00  0.00    +0.000 NA
ATOM     31  H   UNL     1       1.190   9.152  23.405  0.00  0.00    +0.000 HD
ATOM     32  H   UNL     1       0.558  10.627  23.656  0.00  0.00    +0.000 HD
ENDBRANCH  29  30
ENDBRANCH  18  29
ENDBRANCH  15  16
ENDBRANCH   6  15
BRANCH   1  33
ATOM     33  O   UNL     1       4.819   4.415  19.194  0.00  0.00    +0.000 OA
BRANCH  33  37
ATOM     34  C   UNL     1       5.045   6.581  15.289  0.00  0.00    +0.000 C 
ATOM     35  C   UNL     1       5.738   5.728  16.386  0.00  0.00    +0.000 C 
ATOM     36  O   UNL     1       4.984   6.129  17.545  0.00  0.00    +0.000 OA
ATOM     37  C   UNL     1       5.344   5.705  18.853  0.00  0.00    +0.000 C 
ATOM     38  C   UNL     1       6.852   5.831  19.138  0.00  0.00    +0.000 C 
ATOM     39  C   UNL     1       7.733   5.467  17.936  0.00  0.00    +0.000 C 
ATOM     40  C   UNL     1       7.201   6.128  16.644  0.00  0.00    +0.000 C 
BRANCH  40  41
ATOM     41  O   UNL     1       7.294   7.562  16.809  0.00  0.00    +0.000 OA
ATOM     42  H   UNL     1       7.696   7.726  17.681  0.00  0.00    +0.000 HD
ENDBRANCH  40  41
BRANCH  39  43
ATOM     43  O   UNL     1       7.840   4.047  17.832  0.00  0.00    +0.000 OA
ATOM     44  H   UNL     1       8.649   3.877  17.310  0.00  0.00    +0.000 HD
ENDBRANCH  39  43
BRANCH  38  45
ATOM     45  O   UNL     1       7.232   5.068  20.295  0.00  0.00    +0.000 OA
ATOM     46  H   UNL     1       8.169   5.296  20.473  0.00  0.00    +0.000 HD
ENDBRANCH  38  45
BRANCH  35  47
ATOM     47  C   UNL     1       5.634   4.262  15.919  0.00  0.00    +0.000 C 
BRANCH  47  48
ATOM     48  O   UNL     1       6.633   3.991  14.909  0.00  0.00    +0.000 OA
ATOM     49  H   UNL     1       6.209   4.119  14.042  0.00  0.00    +0.000 HD
ENDBRANCH  47  48
ENDBRANCH  35  47
ENDBRANCH  33  37
ENDBRANCH   1  33
TORSDOF 17
ENDMDL
MODEL 2
REMARK VINA RESULT:      -6.3      6.419     12.210
REMARK  Name = 
REMARK  18 active torsions:
REMARK  status: ('A' for Active; 'I' for Inactive)
REMARK    1  A    between atoms: C_1  and  C_2
REMARK    2  A    between atoms: C_2  and  C_3
REMARK    3  A    between atoms: C_3  and  O_4
REMARK    4  A    between atoms: C_6  and  O_7
REMARK    5  A    between atoms: O_7  and  C_8
REMARK    6  A    between atoms: C_9  and  O_10
REMARK    7  A    between atoms: C_11  and  N_12
REMARK    8  A    between atoms: C_14  and  N_15
REMARK    9  A    between atoms: C_16  and  O_17
REMARK   10  A    between atoms: O_17  and  C_18
REMARK   11  A    between atoms: C_20  and  C_21
REMARK   12  A    between atoms: C_21  and  N_22
REMARK   13  A    between atoms: C_23  and  O_24
REMARK   14  A    between atoms: C_25  and  O_26
REMARK   15  A    between atoms: C_27  and  N_28
REMARK   16  A    between atoms: C_29  and  O_30
REMARK   17  A    between atoms: C_31  and  O_32
REMARK   18  A    between atoms: C_33  and  O_34
REMARK                            x       y       z     vdW  Elec       q    Type
REMARK                         _______ _______ _______ _____ _____    ______ ____
ROOT
ATOM      1  C   UNL     1      -3.303  13.507  23.950  0.00  0.00    +0.000 C 
ATOM      2  C   UNL     1      -2.988  14.674  24.986  0.00  0.00    +0.000 C 
ATOM      3  C   UNL     1      -1.726  15.625  24.753  0.00  0.00    +0.000 C 
ATOM      4  C   UNL     1      -0.864  15.252  23.545  0.00  0.00    +0.000 C 
ATOM      5  C   UNL     1      -1.775  14.700  22.478  0.00  0.00    +0.000 C 
ATOM      6  C   UNL     1      -2.176  13.269  22.912  0.00  0.00    +0.000 C 
ENDROOT
BRANCH   3   7
ATOM      7  N   UNL     1      -2.092  17.056  24.653  0.00  0.00    +0.000 NA
ATOM      8  H   UNL     1      -1.951  17.480  25.577  0.00  0.00    +0.000 HD
ATOM      9  H   UNL     1      -3.079  17.175  24.410  0.00  0.00    +0.000 HD
ENDBRANCH   3   7
BRANCH   5  10
ATOM     10  N   UNL     1      -1.319  14.818  21.103  0.00  0.00    +0.000 NA
ATOM     11  H   UNL     1      -1.660  14.038  20.562  0.00  0.00    +0.000 HD
ATOM     12  H   UNL     1      -0.309  14.850  21.060  0.00  0.00    +0.000 HD
ENDBRANCH   5  10
BRANCH   2  13
ATOM     13  O   UNL     1      -4.175  15.489  25.132  0.00  0.00    +0.000 OA
ATOM     14  H   UNL     1      -3.928  16.294  25.616  0.00  0.00    +0.000 HD
ENDBRANCH   2  13
BRANCH   6  15
ATOM     15  O   UNL     1      -1.132  12.338  23.333  0.00  0.00    +0.000 OA
BRANCH  15  16
ATOM     16  C   UNL     1      -1.054  11.209  22.421  0.00  0.00    +0.000 C 
ATOM     17  O   UNL     1      -0.982  11.774  21.115  0.00  0.00    +0.000 OA
ATOM     18  C   UNL     1      -1.148  10.859  20.024  0.00  0.00    +0.000 C 
ATOM     19  C   UNL     1       0.043   9.910  20.034  0.00  0.00    +0.000 C 
ATOM     20  C   UNL     1       0.144   9.215  21.412  0.00  0.00    +0.000 C 
ATOM     21  C   UNL     1       0.175  10.250  22.591  0.00  0.00    +0.000 C 
BRANCH  21  22
ATOM     22  N   UNL     1       0.285   9.506  23.860  0.00  0.00    +0.000 NA
ATOM     23  H   UNL     1       1.066   8.849  23.820  0.00  0.00    +0.000 HD
ATOM     24  H   UNL     1      -0.570   9.006  24.082  0.00  0.00    +0.000 HD
ENDBRANCH  21  22
BRANCH  20  25
ATOM     25  O   UNL     1      -0.916   8.256  21.606  0.00  0.00    +0.000 OA
ATOM     26  H   UNL     1      -1.763   8.698  21.773  0.00  0.00    +0.000 HD
ENDBRANCH  20  25
BRANCH  19  27
ATOM     27  O   UNL     1       1.250  10.649  19.804  0.00  0.00    +0.000 OA
ATOM     28  H   UNL     1       1.070  11.583  20.020  0.00  0.00    +0.000 HD
ENDBRANCH  19  27
BRANCH  18  29
ATOM     29  C   UNL     1      -1.273  11.746  18.765  0.00  0.00    +0.000 C 
BRANCH  29  30
ATOM     30  N   UNL     1      -2.273  12.799  18.863  0.00  0.00    +0.000 NA
ATOM     31  H   UNL     1      -2.257  13.396  18.038  0.00  0.00    +0.000 HD
ATOM     32  H   UNL     1      -3.199  12.364  18.866  0.00  0.00    +0.000 HD
ENDBRANCH  29  30
ENDBRANCH  18  29
ENDBRANCH  15  16
ENDBRANCH   6  15
BRANCH   1  33
ATOM     33  O   UNL     1      -4.557  13.836  23.242  0.00  0.00    +0.000 OA
BRANCH  33  37
ATOM     34  C   UNL     1      -5.658  11.800  19.416  0.00  0.00    +0.000 C 
ATOM     35  C   UNL     1      -6.025  12.786  20.559  0.00  0.00    +0.000 C 
ATOM     36  O   UNL     1      -5.275  12.216  21.648  0.00  0.00    +0.000 OA
ATOM     37  C   UNL     1      -5.397  12.705  22.976  0.00  0.00    +0.000 C 
ATOM     38  C   UNL     1      -6.858  12.931  23.406  0.00  0.00    +0.000 C 
ATOM     39  C   UNL     1      -7.744  13.496  22.288  0.00  0.00    +0.000 C 
ATOM     40  C   UNL     1      -7.507  12.736  20.963  0.00  0.00    +0.000 C 
BRANCH  40  41
ATOM     41  O   UNL     1      -7.914  11.362  21.162  0.00  0.00    +0.000 OA
ATOM     42  H   UNL     1      -7.433  10.821  20.510  0.00  0.00    +0.000 HD
ENDBRANCH  40  41
BRANCH  39  43
ATOM     43  O   UNL     1      -7.529  14.902  22.169  0.00  0.00    +0.000 OA
ATOM     44  H   UNL     1      -7.415  15.076  21.214  0.00  0.00    +0.000 HD
ENDBRANCH  39  43
BRANCH  38  45
ATOM     45  O   UNL     1      -6.937  13.756  24.581  0.00  0.00    +0.000 OA
ATOM     46  H   UNL     1      -7.829  13.603  24.959  0.00  0.00    +0.000 HD
ENDBRANCH  38  45
BRANCH  35  47
ATOM     47  C   UNL     1      -5.630  14.190  20.058  0.00  0.00    +0.000 C 
BRANCH  47  48
ATOM     48  O   UNL     1      -5.939  14.320  18.651  0.00  0.00    +0.000 OA
ATOM     49  H   UNL     1      -5.277  14.921  18.265  0.00  0.00    +0.000 HD
ENDBRANCH  47  48
ENDBRANCH  35  47
ENDBRANCH  33  37
ENDBRANCH   1  33
TORSDOF 17
ENDMDL
MODEL 3
REMARK VINA RESULT:      -6.3      0.787      2.269
REMARK  Name = 
REMARK  18 active torsions:
REMARK  status: ('A' for Active; 'I' for Inactive)
REMARK    1  A    between atoms: C_1  and  C_2
REMARK    2  A    between atoms: C_2  and  C_3
REMARK    3  A    between atoms: C_3  and  O_4
REMARK    4  A    between atoms: C_6  and  O_7
REMARK    5  A    between atoms: O_7  and  C_8
REMARK    6  A    between atoms: C_9  and  O_10
REMARK    7  A    between atoms: C_11  and  N_12
REMARK    8  A    between atoms: C_14  and  N_15
REMARK    9  A    between atoms: C_16  and  O_17
REMARK   10  A    between atoms: O_17  and  C_18
REMARK   11  A    between atoms: C_20  and  C_21
REMARK   12  A    between atoms: C_21  and  N_22
REMARK   13  A    between atoms: C_23  and  O_24
REMARK   14  A    between atoms: C_25  and  O_26
REMARK   15  A    between atoms: C_27  and  N_28
REMARK   16  A    between atoms: C_29  and  O_30
REMARK   17  A    between atoms: C_31  and  O_32
REMARK   18  A    between atoms: C_33  and  O_34
REMARK                            x       y       z     vdW  Elec       q    Type
REMARK                         _______ _______ _______ _____ _____    ______ ____
ROOT
ATOM      1  C   UNL     1       3.650   4.404  20.193  0.00  0.00    +0.000 C 
ATOM      2  C   UNL     1       3.171   2.899  20.399  0.00  0.00    +0.000 C 
ATOM      3  C   UNL     1       1.713   2.456  19.923  0.00  0.00    +0.000 C 
ATOM      4  C   UNL     1       0.854   3.593  19.365  0.00  0.00    +0.000 C 
ATOM      5  C   UNL     1       1.769   4.559  18.655  0.00  0.00    +0.000 C 
ATOM      6  C   UNL     1       2.519   5.365  19.744  0.00  0.00    +0.000 C 
ENDROOT
BRANCH   3   7
ATOM      7  N   UNL     1       1.736   1.349  18.941  0.00  0.00    +0.000 NA
ATOM      8  H   UNL     1       1.022   1.546  18.231  0.00  0.00    +0.000 HD
ATOM      9  H   UNL     1       1.494   0.455  19.377  0.00  0.00    +0.000 HD
ENDBRANCH   3   7
BRANCH   5  10
ATOM     10  N   UNL     1       1.179   5.361  17.597  0.00  0.00    +0.000 NA
ATOM     11  H   UNL     1       1.908   5.794  17.050  0.00  0.00    +0.000 HD
ATOM     12  H   UNL     1       0.569   6.071  17.979  0.00  0.00    +0.000 HD
ENDBRANCH   5  10
BRANCH   2  13
ATOM     13  O   UNL     1       4.153   2.021  19.797  0.00  0.00    +0.000 OA
ATOM     14  H   UNL     1       3.677   1.359  19.269  0.00  0.00    +0.000 HD
ENDBRANCH   2  13
BRANCH   6  15
ATOM     15  O   UNL     1       1.752   5.971  20.830  0.00  0.00    +0.000 OA
BRANCH  15  16
ATOM     16  C   UNL     1       1.716   7.417  20.688  0.00  0.00    +0.000 C 
ATOM     17  O   UNL     1       2.071   7.678  19.332  0.00  0.00    +0.000 OA
ATOM     18  C   UNL     1       2.348   9.046  19.007  0.00  0.00    +0.000 C 
ATOM     19  C   UNL     1       1.050   9.828  19.161  0.00  0.00    +0.000 C 
ATOM     20  C   UNL     1       0.492   9.634  20.590  0.00  0.00    +0.000 C 
ATOM     21  C   UNL     1       0.341   8.117  20.962  0.00  0.00    +0.000 C 
BRANCH  21  22
ATOM     22  N   UNL     1      -0.208   8.025  22.327  0.00  0.00    +0.000 NA
ATOM     23  H   UNL     1      -0.117   8.921  22.808  0.00  0.00    +0.000 HD
ATOM     24  H   UNL     1       0.247   7.299  22.871  0.00  0.00    +0.000 HD
ENDBRANCH  21  22
BRANCH  20  25
ATOM     25  O   UNL     1       1.291  10.321  21.575  0.00  0.00    +0.000 OA
ATOM     26  H   UNL     1       0.745  10.641  22.310  0.00  0.00    +0.000 HD
ENDBRANCH  20  25
BRANCH  19  27
ATOM     27  O   UNL     1       0.082   9.344  18.221  0.00  0.00    +0.000 OA
ATOM     28  H   UNL     1       0.537   8.718  17.625  0.00  0.00    +0.000 HD
ENDBRANCH  19  27
BRANCH  18  29
ATOM     29  C   UNL     1       2.933   9.014  17.578  0.00  0.00    +0.000 C 
BRANCH  29  30
ATOM     30  N   UNL     1       2.682   7.780  16.848  0.00  0.00    +0.000 NA
ATOM     31  H   UNL     1       2.355   7.975  15.903  0.00  0.00    +0.000 HD
ATOM     32  H   UNL     1       3.572   7.289  16.732  0.00  0.00    +0.000 HD
ENDBRANCH  29  30
ENDBRANCH  18  29
ENDBRANCH  15  16
ENDBRANCH   6  15
BRANCH   1  33
ATOM     33  O   UNL     1       4.730   4.418  19.185  0.00  0.00    +0.000 OA
BRANCH  33  37
ATOM     34  C   UNL     1       5.089   6.676  15.343  0.00  0.00    +0.000 C 
ATOM     35  C   UNL     1       5.748   5.808  16.449  0.00  0.00    +0.000 C 
ATOM     36  O   UNL     1       4.939   6.171  17.584  0.00  0.00    +0.000 OA
ATOM     37  C   UNL     1       5.249   5.722  18.896  0.00  0.00    +0.000 C 
ATOM     38  C   UNL     1       6.741   5.864  19.249  0.00  0.00    +0.000 C 
ATOM     39  C   UNL     1       7.678   5.541  18.078  0.00  0.00    +0.000 C 
ATOM     40  C   UNL     1       7.191   6.223  16.779  0.00  0.00    +0.000 C 
BRANCH  40  41
ATOM     41  O   UNL     1       7.255   7.654  16.980  0.00  0.00    +0.000 OA
ATOM     42  H   UNL     1       7.479   7.805  17.917  0.00  0.00    +0.000 HD
ENDBRANCH  40  41
BRANCH  39  43
ATOM     43  O   UNL     1       7.813   4.125  17.947  0.00  0.00    +0.000 OA
ATOM     44  H   UNL     1       7.909   3.780  18.856  0.00  0.00    +0.000 HD
ENDBRANCH  39  43
BRANCH  38  45
ATOM     45  O   UNL     1       7.083   5.081  20.404  0.00  0.00    +0.000 OA
ATOM     46  H   UNL     1       6.851   4.155  20.181  0.00  0.00    +0.000 HD
ENDBRANCH  38  45
BRANCH  35  47
ATOM     47  C   UNL     1       5.688   4.352  15.946  0.00  0.00    +0.000 C 
BRANCH  47  48
ATOM     48  O   UNL     1       6.765   4.104  15.015  0.00  0.00    +0.000 OA
ATOM     49  H   UNL     1       7.214   4.954  14.859  0.00  0.00    +0.000 HD
ENDBRANCH  47  48
ENDBRANCH  35  47
ENDBRANCH  33  37
ENDBRANCH   1  33
TORSDOF 17
ENDMDL
MODEL 4
REMARK VINA RESULT:      -6.2      6.222     12.101
REMARK  Name = 
REMARK  18 active torsions:
REMARK  status: ('A' for Active; 'I' for Inactive)
REMARK    1  A    between atoms: C_1  and  C_2
REMARK    2  A    between atoms: C_2  and  C_3
REMARK    3  A    between atoms: C_3  and  O_4
REMARK    4  A    between atoms: C_6  and  O_7
REMARK    5  A    between atoms: O_7  and  C_8
REMARK    6  A    between atoms: C_9  and  O_10
REMARK    7  A    between atoms: C_11  and  N_12
REMARK    8  A    between atoms: C_14  and  N_15
REMARK    9  A    between atoms: C_16  and  O_17
REMARK   10  A    between atoms: O_17  and  C_18
REMARK   11  A    between atoms: C_20  and  C_21
REMARK   12  A    between atoms: C_21  and  N_22
REMARK   13  A    between atoms: C_23  and  O_24
REMARK   14  A    between atoms: C_25  and  O_26
REMARK   15  A    between atoms: C_27  and  N_28
REMARK   16  A    between atoms: C_29  and  O_30
REMARK   17  A    between atoms: C_31  and  O_32
REMARK   18  A    between atoms: C_33  and  O_34
REMARK                            x       y       z     vdW  Elec       q    Type
REMARK                         _______ _______ _______ _____ _____    ______ ____
ROOT
ATOM      1  C   UNL     1      -2.619  13.951  23.014  0.00  0.00    +0.000 C 
ATOM      2  C   UNL     1      -2.145  15.245  23.812  0.00  0.00    +0.000 C 
ATOM      3  C   UNL     1      -1.015  16.189  23.195  0.00  0.00    +0.000 C 
ATOM      4  C   UNL     1      -0.418  15.689  21.878  0.00  0.00    +0.000 C 
ATOM      5  C   UNL     1      -1.510  14.986  21.111  0.00  0.00    +0.000 C 
ATOM      6  C   UNL     1      -1.734  13.611  21.787  0.00  0.00    +0.000 C 
ENDROOT
BRANCH   3   7
ATOM      7  N   UNL     1      -1.465  17.588  23.013  0.00  0.00    +0.000 NA
ATOM      8  H   UNL     1      -1.094  17.922  22.117  0.00  0.00    +0.000 HD
ATOM      9  H   UNL     1      -1.093  18.200  23.745  0.00  0.00    +0.000 HD
ENDBRANCH   3   7
BRANCH   5  10
ATOM     10  N   UNL     1      -1.370  14.942  19.665  0.00  0.00    +0.000 NA
ATOM     11  H   UNL     1      -1.535  15.860  19.279  0.00  0.00    +0.000 HD
ATOM     12  H   UNL     1      -2.015  14.277  19.261  0.00  0.00    +0.000 HD
ENDBRANCH   5  10
BRANCH   2  13
ATOM     13  O   UNL     1      -3.313  16.044  24.121  0.00  0.00    +0.000 OA
ATOM     14  H   UNL     1      -3.416  16.059  25.087  0.00  0.00    +0.000 HD
ENDBRANCH   2  13
BRANCH   6  15
ATOM     15  O   UNL     1      -0.577  12.766  22.071  0.00  0.00    +0.000 OA
BRANCH  15  16
ATOM     16  C   UNL     1      -0.643  11.532  21.305  0.00  0.00    +0.000 C 
ATOM     17  O   UNL     1      -0.973  11.925  19.975  0.00  0.00    +0.000 OA
ATOM     18  C   UNL     1      -1.340  10.867  19.080  0.00  0.00    +0.000 C 
ATOM     19  C   UNL     1      -0.108   9.995  18.868  0.00  0.00    +0.000 C 
ATOM     20  C   UNL     1       0.417   9.494  20.233  0.00  0.00    +0.000 C 
ATOM     21  C   UNL     1       0.667  10.675  21.236  0.00  0.00    +0.000 C 
BRANCH  21  22
ATOM     22  N   UNL     1       1.178  10.112  22.499  0.00  0.00    +0.000 NA
ATOM     23  H   UNL     1       1.830   9.350  22.310  0.00  0.00    +0.000 HD
ATOM     24  H   UNL     1       0.428   9.779  23.096  0.00  0.00    +0.000 HD
ENDBRANCH  21  22
BRANCH  20  25
ATOM     25  O   UNL     1      -0.462   8.511  20.817  0.00  0.00    +0.000 OA
ATOM     26  H   UNL     1      -0.321   7.636  20.423  0.00  0.00    +0.000 HD
ENDBRANCH  20  25
BRANCH  19  27
ATOM     27  O   UNL     1       0.922  10.765  18.234  0.00  0.00    +0.000 OA
ATOM     28  H   UNL     1       1.462  10.153  17.701  0.00  0.00    +0.000 HD
ENDBRANCH  19  27
BRANCH  18  29
ATOM     29  C   UNL     1      -1.875  11.571  17.814  0.00  0.00    +0.000 C 
BRANCH  29  30
ATOM     30  N   UNL     1      -1.147  12.774  17.437  0.00  0.00    +0.000 NA
ATOM     31  H   UNL     1      -0.216  12.544  17.092  0.00  0.00    +0.000 HD
ATOM     32  H   UNL     1      -1.630  13.207  16.647  0.00  0.00    +0.000 HD
ENDBRANCH  29  30
ENDBRANCH  18  29
ENDBRANCH  15  16
ENDBRANCH   6  15
BRANCH   1  33
ATOM     33  O   UNL     1      -4.012  14.159  22.569  0.00  0.00    +0.000 OA
BRANCH  33  37
ATOM     34  C   UNL     1      -6.186  11.276  19.931  0.00  0.00    +0.000 C 
ATOM     35  C   UNL     1      -6.201  12.558  20.807  0.00  0.00    +0.000 C 
ATOM     36  O   UNL     1      -5.168  12.238  21.758  0.00  0.00    +0.000 OA
ATOM     37  C   UNL     1      -4.897  13.073  22.875  0.00  0.00    +0.000 C 
ATOM     38  C   UNL     1      -6.168  13.529  23.615  0.00  0.00    +0.000 C 
ATOM     39  C   UNL     1      -7.339  13.847  22.676  0.00  0.00    +0.000 C 
ATOM     40  C   UNL     1      -7.502  12.743  21.606  0.00  0.00    +0.000 C 
BRANCH  40  41
ATOM     41  O   UNL     1      -7.837  11.512  22.287  0.00  0.00    +0.000 OA
ATOM     42  H   UNL     1      -7.068  11.265  22.832  0.00  0.00    +0.000 HD
ENDBRANCH  40  41
BRANCH  39  43
ATOM     43  O   UNL     1      -7.164  15.147  22.113  0.00  0.00    +0.000 OA
ATOM     44  H   UNL     1      -6.917  15.730  22.858  0.00  0.00    +0.000 HD
ENDBRANCH  39  43
BRANCH  38  45
ATOM     45  O   UNL     1      -5.899  14.641  24.484  0.00  0.00    +0.000 OA
ATOM     46  H   UNL     1      -5.931  15.441  23.918  0.00  0.00    +0.000 HD
ENDBRANCH  38  45
BRANCH  35  47
ATOM     47  C   UNL     1      -5.965  13.739  19.844  0.00  0.00    +0.000 C 
BRANCH  47  48
ATOM     48  O   UNL     1      -4.548  13.990  19.704  0.00  0.00    +0.000 OA
ATOM     49  H   UNL     1      -4.232  14.342  20.556  0.00  0.00    +0.000 HD
ENDBRANCH  47  48
ENDBRANCH  35  47
ENDBRANCH  33  37
ENDBRANCH   1  33
TORSDOF 17
ENDMDL
MODEL 5
REMARK VINA RESULT:      -6.1      7.259     12.535
REMARK  Name = 
REMARK  18 active torsions:
REMARK  status: ('A' for Active; 'I' for Inactive)
REMARK    1  A    between atoms: C_1  and  C_2
REMARK    2  A    between atoms: C_2  and  C_3
REMARK    3  A    between atoms: C_3  and  O_4
REMARK    4  A    between atoms: C_6  and  O_7
REMARK    5  A    between atoms: O_7  and  C_8
REMARK    6  A    between atoms: C_9  and  O_10
REMARK    7  A    between atoms: C_11  and  N_12
REMARK    8  A    between atoms: C_14  and  N_15
REMARK    9  A    between atoms: C_16  and  O_17
REMARK   10  A    between atoms: O_17  and  C_18
REMARK   11  A    between atoms: C_20  and  C_21
REMARK   12  A    between atoms: C_21  and  N_22
REMARK   13  A    between atoms: C_23  and  O_24
REMARK   14  A    between atoms: C_25  and  O_26
REMARK   15  A    between atoms: C_27  and  N_28
REMARK   16  A    between atoms: C_29  and  O_30
REMARK   17  A    between atoms: C_31  and  O_32
REMARK   18  A    between atoms: C_33  and  O_34
REMARK                            x       y       z     vdW  Elec       q    Type
REMARK                         _______ _______ _______ _____ _____    ______ ____
ROOT
ATOM      1  C   UNL     1      -2.773  14.120  23.536  0.00  0.00    +0.000 C 
ATOM      2  C   UNL     1      -2.350  15.448  24.306  0.00  0.00    +0.000 C 
ATOM      3  C   UNL     1      -1.384  16.504  23.598  0.00  0.00    +0.000 C 
ATOM      4  C   UNL     1      -0.875  16.075  22.221  0.00  0.00    +0.000 C 
ATOM      5  C   UNL     1      -1.964  15.275  21.552  0.00  0.00    +0.000 C 
ATOM      6  C   UNL     1      -1.985  13.880  22.223  0.00  0.00    +0.000 C 
ENDROOT
BRANCH   3   7
ATOM      7  N   UNL     1      -1.984  17.853  23.486  0.00  0.00    +0.000 NA
ATOM      8  H   UNL     1      -1.935  18.136  22.501  0.00  0.00    +0.000 HD
ATOM      9  H   UNL     1      -1.457  18.544  24.029  0.00  0.00    +0.000 HD
ENDBRANCH   3   7
BRANCH   5  10
ATOM     10  N   UNL     1      -1.964  15.257  20.099  0.00  0.00    +0.000 NA
ATOM     11  H   UNL     1      -1.795  16.187  19.747  0.00  0.00    +0.000 HD
ATOM     12  H   UNL     1      -2.845  14.909  19.743  0.00  0.00    +0.000 HD
ENDBRANCH   5  10
BRANCH   2  13
ATOM     13  O   UNL     1      -3.553  16.126  24.743  0.00  0.00    +0.000 OA
ATOM     14  H   UNL     1      -3.287  16.932  25.216  0.00  0.00    +0.000 HD
ENDBRANCH   2  13
BRANCH   6  15
ATOM     15  O   UNL     1      -0.730  13.150  22.377  0.00  0.00    +0.000 OA
BRANCH  15  16
ATOM     16  C   UNL     1      -0.455  12.346  21.197  0.00  0.00    +0.000 C 
ATOM     17  O   UNL     1      -1.645  12.398  20.413  0.00  0.00    +0.000 OA
ATOM     18  C   UNL     1      -1.713  11.480  19.315  0.00  0.00    +0.000 C 
ATOM     19  C   UNL     1      -0.642  11.883  18.309  0.00  0.00    +0.000 C 
ATOM     20  C   UNL     1       0.739  11.913  19.003  0.00  0.00    +0.000 C 
ATOM     21  C   UNL     1       0.733  12.814  20.288  0.00  0.00    +0.000 C 
BRANCH  21  22
ATOM     22  N   UNL     1       2.086  12.796  20.876  0.00  0.00    +0.000 NA
ATOM     23  H   UNL     1       2.402  11.835  21.011  0.00  0.00    +0.000 HD
ATOM     24  H   UNL     1       2.122  13.294  21.759  0.00  0.00    +0.000 HD
ENDBRANCH  21  22
BRANCH  20  25
ATOM     25  O   UNL     1       1.208  10.585  19.318  0.00  0.00    +0.000 OA
ATOM     26  H   UNL     1       2.178  10.543  19.307  0.00  0.00    +0.000 HD
ENDBRANCH  20  25
BRANCH  19  27
ATOM     27  O   UNL     1      -0.928  13.194  17.802  0.00  0.00    +0.000 OA
ATOM     28  H   UNL     1      -0.170  13.767  18.022  0.00  0.00    +0.000 HD
ENDBRANCH  19  27
BRANCH  18  29
ATOM     29  C   UNL     1      -3.167  11.569  18.800  0.00  0.00    +0.000 C 
BRANCH  29  30
ATOM     30  N   UNL     1      -3.870  12.786  19.178  0.00  0.00    +0.000 NA
ATOM     31  H   UNL     1      -3.319  13.335  19.837  0.00  0.00    +0.000 HD
ATOM     32  H   UNL     1      -3.964  13.373  18.346  0.00  0.00    +0.000 HD
ENDBRANCH  29  30
ENDBRANCH  18  29
ENDBRANCH  15  16
ENDBRANCH   6  15
BRANCH   1  33
ATOM     33  O   UNL     1      -4.217  14.194  23.233  0.00  0.00    +0.000 OA
BRANCH  33  37
ATOM     34  C   UNL     1      -7.291  13.096  20.178  0.00  0.00    +0.000 C 
ATOM     35  C   UNL     1      -6.928  13.411  21.654  0.00  0.00    +0.000 C 
ATOM     36  O   UNL     1      -5.557  12.972  21.687  0.00  0.00    +0.000 OA
ATOM     37  C   UNL     1      -4.813  12.935  22.896  0.00  0.00    +0.000 C 
ATOM     38  C   UNL     1      -5.592  12.309  24.068  0.00  0.00    +0.000 C 
ATOM     39  C   UNL     1      -7.078  12.688  24.084  0.00  0.00    +0.000 C 
ATOM     40  C   UNL     1      -7.696  12.553  22.673  0.00  0.00    +0.000 C 
BRANCH  40  41
ATOM     41  O   UNL     1      -7.626  11.160  22.291  0.00  0.00    +0.000 OA
ATOM     42  H   UNL     1      -8.145  11.058  21.473  0.00  0.00    +0.000 HD
ENDBRANCH  40  41
BRANCH  39  43
ATOM     43  O   UNL     1      -7.235  13.995  24.638  0.00  0.00    +0.000 OA
ATOM     44  H   UNL     1      -6.342  14.394  24.640  0.00  0.00    +0.000 HD
ENDBRANCH  39  43
BRANCH  38  45
ATOM     45  O   UNL     1      -4.976  12.616  25.330  0.00  0.00    +0.000 OA
ATOM     46  H   UNL     1      -4.958  11.775  25.834  0.00  0.00    +0.000 HD
ENDBRANCH  38  45
BRANCH  35  47
ATOM     47  C   UNL     1      -7.218  14.912  21.857  0.00  0.00    +0.000 C 
BRANCH  47  48
ATOM     48  O   UNL     1      -6.089  15.700  21.417  0.00  0.00    +0.000 OA
ATOM     49  H   UNL     1      -6.187  16.587  21.807  0.00  0.00    +0.000 HD
ENDBRANCH  47  48
ENDBRANCH  35  47
ENDBRANCH  33  37
ENDBRANCH   1  33
TORSDOF 17
ENDMDL
MODEL 6
REMARK VINA RESULT:      -6.0      6.706     12.227
REMARK  Name = 
REMARK  18 active torsions:
REMARK  status: ('A' for Active; 'I' for Inactive)
REMARK    1  A    between atoms: C_1  and  C_2
REMARK    2  A    between atoms: C_2  and  C_3
REMARK    3  A    between atoms: C_3  and  O_4
REMARK    4  A    between atoms: C_6  and  O_7
REMARK    5  A    between atoms: O_7  and  C_8
REMARK    6  A    between atoms: C_9  and  O_10
REMARK    7  A    between atoms: C_11  and  N_12
REMARK    8  A    between atoms: C_14  and  N_15
REMARK    9  A    between atoms: C_16  and  O_17
REMARK   10  A    between atoms: O_17  and  C_18
REMARK   11  A    between atoms: C_20  and  C_21
REMARK   12  A    between atoms: C_21  and  N_22
REMARK   13  A    between atoms: C_23  and  O_24
REMARK   14  A    between atoms: C_25  and  O_26
REMARK   15  A    between atoms: C_27  and  N_28
REMARK   16  A    between atoms: C_29  and  O_30
REMARK   17  A    between atoms: C_31  and  O_32
REMARK   18  A    between atoms: C_33  and  O_34
REMARK                            x       y       z     vdW  Elec       q    Type
REMARK                         _______ _______ _______ _____ _____    ______ ____
ROOT
ATOM      1  C   UNL     1      -2.008  13.980  22.013  0.00  0.00    +0.000 C 
ATOM      2  C   UNL     1      -0.964  14.570  23.061  0.00  0.00    +0.000 C 
ATOM      3  C   UNL     1      -0.144  15.894  22.707  0.00  0.00    +0.000 C 
ATOM      4  C   UNL     1      -0.398  16.441  21.300  0.00  0.00    +0.000 C 
ATOM      5  C   UNL     1      -1.837  16.162  20.947  0.00  0.00    +0.000 C 
ATOM      6  C   UNL     1      -1.943  14.652  20.618  0.00  0.00    +0.000 C 
ENDROOT
BRANCH   3   7
ATOM      7  N   UNL     1      -0.353  16.983  23.687  0.00  0.00    +0.000 NA
ATOM      8  H   UNL     1      -0.556  16.552  24.595  0.00  0.00    +0.000 HD
ATOM      9  H   UNL     1      -1.159  17.563  23.437  0.00  0.00    +0.000 HD
ENDBRANCH   3   7
BRANCH   5  10
ATOM     10  N   UNL     1      -2.455  17.046  19.974  0.00  0.00    +0.000 NA
ATOM     11  H   UNL     1      -2.612  16.547  19.111  0.00  0.00    +0.000 HD
ATOM     12  H   UNL     1      -1.873  17.855  19.801  0.00  0.00    +0.000 HD
ENDBRANCH   5  10
BRANCH   2  13
ATOM     13  O   UNL     1      -1.642  14.757  24.326  0.00  0.00    +0.000 OA
ATOM     14  H   UNL     1      -0.978  15.014  24.986  0.00  0.00    +0.000 HD
ENDBRANCH   2  13
BRANCH   6  15
ATOM     15  O   UNL     1      -0.984  14.061  19.688  0.00  0.00    +0.000 OA
BRANCH  15  16
ATOM     16  C   UNL     1      -0.942  12.616  19.844  0.00  0.00    +0.000 C 
ATOM     17  O   UNL     1      -1.435  12.084  18.617  0.00  0.00    +0.000 OA
ATOM     18  C   UNL     1      -1.725  10.680  18.614  0.00  0.00    +0.000 C 
ATOM     19  C   UNL     1      -0.407   9.937  18.786  0.00  0.00    +0.000 C 
ATOM     20  C   UNL     1       0.297  10.417  20.076  0.00  0.00    +0.000 C 
ATOM     21  C   UNL     1       0.465  11.977  20.108  0.00  0.00    +0.000 C 
BRANCH  21  22
ATOM     22  N   UNL     1       1.154  12.345  21.359  0.00  0.00    +0.000 NA
ATOM     23  H   UNL     1       1.772  11.590  21.660  0.00  0.00    +0.000 HD
ATOM     24  H   UNL     1       0.499  12.566  22.102  0.00  0.00    +0.000 HD
ENDBRANCH  21  22
BRANCH  20  25
ATOM     25  O   UNL     1      -0.384   9.956  21.261  0.00  0.00    +0.000 OA
ATOM     26  H   UNL     1      -1.218   9.514  21.038  0.00  0.00    +0.000 HD
ENDBRANCH  20  25
BRANCH  19  27
ATOM     27  O   UNL     1       0.449  10.208  17.668  0.00  0.00    +0.000 OA
ATOM     28  H   UNL     1       0.357   9.468  17.039  0.00  0.00    +0.000 HD
ENDBRANCH  19  27
BRANCH  18  29
ATOM     29  C   UNL     1      -2.459  10.420  17.279  0.00  0.00    +0.000 C 
BRANCH  29  30
ATOM     30  N   UNL     1      -2.251  11.444  16.265  0.00  0.00    +0.000 NA
ATOM     31  H   UNL     1      -2.589  12.349  16.586  0.00  0.00    +0.000 HD
ATOM     32  H   UNL     1      -1.245  11.561  16.129  0.00  0.00    +0.000 HD
ENDBRANCH  29  30
ENDBRANCH  18  29
ENDBRANCH  15  16
ENDBRANCH   6  15
BRANCH   1  33
ATOM     33  O   UNL     1      -3.368  14.138  22.568  0.00  0.00    +0.000 OA
BRANCH  33  37
ATOM     34  C   UNL     1      -6.846  12.754  20.122  0.00  0.00    +0.000 C 
ATOM     35  C   UNL     1      -6.299  13.366  21.440  0.00  0.00    +0.000 C 
ATOM     36  O   UNL     1      -4.989  12.769  21.483  0.00  0.00    +0.000 OA
ATOM     37  C   UNL     1      -4.133  12.926  22.606  0.00  0.00    +0.000 C 
ATOM     38  C   UNL     1      -4.851  12.714  23.951  0.00  0.00    +0.000 C 
ATOM     39  C   UNL     1      -6.276  13.281  23.979  0.00  0.00    +0.000 C 
ATOM     40  C   UNL     1      -7.048  12.892  22.697  0.00  0.00    +0.000 C 
BRANCH  40  41
ATOM     41  O   UNL     1      -7.174  11.451  22.676  0.00  0.00    +0.000 OA
ATOM     42  H   UNL     1      -7.129  11.170  21.744  0.00  0.00    +0.000 HD
ENDBRANCH  40  41
BRANCH  39  43
ATOM     43  O   UNL     1      -6.227  14.692  24.193  0.00  0.00    +0.000 OA
ATOM     44  H   UNL     1      -6.467  15.101  23.338  0.00  0.00    +0.000 HD
ENDBRANCH  39  43
BRANCH  38  45
ATOM     45  O   UNL     1      -4.078  13.232  25.046  0.00  0.00    +0.000 OA
ATOM     46  H   UNL     1      -3.173  13.372  24.695  0.00  0.00    +0.000 HD
ENDBRANCH  38  45
BRANCH  35  47
ATOM     47  C   UNL     1      -6.397  14.896  21.277  0.00  0.00    +0.000 C 
BRANCH  47  48
ATOM     48  O   UNL     1      -7.728  15.347  21.614  0.00  0.00    +0.000 OA
ATOM     49  H   UNL     1      -8.231  15.411  20.782  0.00  0.00    +0.000 HD
ENDBRANCH  47  48
ENDBRANCH  35  47
ENDBRANCH  33  37
ENDBRANCH   1  33
TORSDOF 17
ENDMDL
MODEL 7
REMARK VINA RESULT:      -5.9      6.063     12.104
REMARK  Name = 
REMARK  18 active torsions:
REMARK  status: ('A' for Active; 'I' for Inactive)
REMARK    1  A    between atoms: C_1  and  C_2
REMARK    2  A    between atoms: C_2  and  C_3
REMARK    3  A    between atoms: C_3  and  O_4
REMARK    4  A    between atoms: C_6  and  O_7
REMARK    5  A    between atoms: O_7  and  C_8
REMARK    6  A    between atoms: C_9  and  O_10
REMARK    7  A    between atoms: C_11  and  N_12
REMARK    8  A    between atoms: C_14  and  N_15
REMARK    9  A    between atoms: C_16  and  O_17
REMARK   10  A    between atoms: O_17  and  C_18
REMARK   11  A    between atoms: C_20  and  C_21
REMARK   12  A    between atoms: C_21  and  N_22
REMARK   13  A    between atoms: C_23  and  O_24
REMARK   14  A    between atoms: C_25  and  O_26
REMARK   15  A    between atoms: C_27  and  N_28
REMARK   16  A    between atoms: C_29  and  O_30
REMARK   17  A    between atoms: C_31  and  O_32
REMARK   18  A    between atoms: C_33  and  O_34
REMARK                            x       y       z     vdW  Elec       q    Type
REMARK                         _______ _______ _______ _____ _____    ______ ____
ROOT
ATOM      1  C   UNL     1      -2.029  13.817  23.755  0.00  0.00    +0.000 C 
ATOM      2  C   UNL     1      -1.426  15.168  24.342  0.00  0.00    +0.000 C 
ATOM      3  C   UNL     1      -0.511  16.097  23.420  0.00  0.00    +0.000 C 
ATOM      4  C   UNL     1      -0.229  15.529  22.027  0.00  0.00    +0.000 C 
ATOM      5  C   UNL     1      -1.447  14.756  21.586  0.00  0.00    +0.000 C 
ATOM      6  C   UNL     1      -1.452  13.421  22.372  0.00  0.00    +0.000 C 
ENDROOT
BRANCH   3   7
ATOM      7  N   UNL     1      -1.043  17.471  23.275  0.00  0.00    +0.000 NA
ATOM      8  H   UNL     1      -2.033  17.398  23.018  0.00  0.00    +0.000 HD
ATOM      9  H   UNL     1      -0.569  17.979  22.523  0.00  0.00    +0.000 HD
ENDBRANCH   3   7
BRANCH   5  10
ATOM     10  N   UNL     1      -1.656  14.626  20.154  0.00  0.00    +0.000 NA
ATOM     11  H   UNL     1      -2.562  14.995  19.907  0.00  0.00    +0.000 HD
ATOM     12  H   UNL     1      -1.588  13.659  19.867  0.00  0.00    +0.000 HD
ENDBRANCH   5  10
BRANCH   2  13
ATOM     13  O   UNL     1      -2.513  15.959  24.880  0.00  0.00    +0.000 OA
ATOM     14  H   UNL     1      -2.857  16.519  24.165  0.00  0.00    +0.000 HD
ENDBRANCH   2  13
BRANCH   6  15
ATOM     15  O   UNL     1      -0.232  12.621  22.414  0.00  0.00    +0.000 OA
BRANCH  15  16
ATOM     16  C   UNL     1      -0.419  11.362  21.712  0.00  0.00    +0.000 C 
ATOM     17  O   UNL     1      -0.517  11.704  20.331  0.00  0.00    +0.000 OA
ATOM     18  C   UNL     1      -0.953  10.658  19.454  0.00  0.00    +0.000 C 
ATOM     19  C   UNL     1       0.125   9.582  19.448  0.00  0.00    +0.000 C 
ATOM     20  C   UNL     1       0.392   9.103  20.894  0.00  0.00    +0.000 C 
ATOM     21  C   UNL     1       0.722  10.297  21.857  0.00  0.00    +0.000 C 
BRANCH  21  22
ATOM     22  N   UNL     1       0.975   9.753  23.204  0.00  0.00    +0.000 NA
ATOM     23  H   UNL     1       0.301  10.129  23.872  0.00  0.00    +0.000 HD
ATOM     24  H   UNL     1       1.918   9.952  23.523  0.00  0.00    +0.000 HD
ENDBRANCH  21  22
BRANCH  20  25
ATOM     25  O   UNL     1      -0.707   8.325  21.411  0.00  0.00    +0.000 OA
ATOM     26  H   UNL     1      -0.396   7.647  22.032  0.00  0.00    +0.000 HD
ENDBRANCH  20  25
BRANCH  19  27
ATOM     27  O   UNL     1       1.341  10.122  18.912  0.00  0.00    +0.000 OA
ATOM     28  H   UNL     1       2.041   9.454  19.036  0.00  0.00    +0.000 HD
ENDBRANCH  19  27
BRANCH  18  29
ATOM     29  C   UNL     1      -1.205  11.346  18.094  0.00  0.00    +0.000 C 
BRANCH  29  30
ATOM     30  N   UNL     1      -2.107  12.487  18.151  0.00  0.00    +0.000 NA
ATOM     31  H   UNL     1      -2.527  12.574  19.075  0.00  0.00    +0.000 HD
ATOM     32  H   UNL     1      -1.555  13.339  18.022  0.00  0.00    +0.000 HD
ENDBRANCH  29  30
ENDBRANCH  18  29
ENDBRANCH  15  16
ENDBRANCH   6  15
BRANCH   1  33
ATOM     33  O   UNL     1      -3.495  13.966  23.648  0.00  0.00    +0.000 OA
BRANCH  33  37
ATOM     34  C   UNL     1      -6.183  13.229  20.152  0.00  0.00    +0.000 C 
ATOM     35  C   UNL     1      -6.011  13.503  21.671  0.00  0.00    +0.000 C 
ATOM     36  O   UNL     1      -4.721  12.906  21.901  0.00  0.00    +0.000 OA
ATOM     37  C   UNL     1      -4.177  12.785  23.208  0.00  0.00    +0.000 C 
ATOM     38  C   UNL     1      -5.191  12.259  24.241  0.00  0.00    +0.000 C 
ATOM     39  C   UNL     1      -6.608  12.810  24.041  0.00  0.00    +0.000 C 
ATOM     40  C   UNL     1      -7.018  12.744  22.552  0.00  0.00    +0.000 C 
BRANCH  40  41
ATOM     41  O   UNL     1      -7.055  11.351  22.164  0.00  0.00    +0.000 OA
ATOM     42  H   UNL     1      -7.943  11.175  21.803  0.00  0.00    +0.000 HD
ENDBRANCH  40  41
BRANCH  39  43
ATOM     43  O   UNL     1      -6.692  14.128  24.584  0.00  0.00    +0.000 OA
ATOM     44  H   UNL     1      -5.915  14.227  25.169  0.00  0.00    +0.000 HD
ENDBRANCH  39  43
BRANCH  38  45
ATOM     45  O   UNL     1      -4.740  12.495  25.585  0.00  0.00    +0.000 OA
ATOM     46  H   UNL     1      -3.788  12.723  25.515  0.00  0.00    +0.000 HD
ENDBRANCH  38  45
BRANCH  35  47
ATOM     47  C   UNL     1      -6.151  15.028  21.851  0.00  0.00    +0.000 C 
BRANCH  47  48
ATOM     48  O   UNL     1      -7.548  15.392  21.930  0.00  0.00    +0.000 OA
ATOM     49  H   UNL     1      -8.029  14.619  22.278  0.00  0.00    +0.000 HD
ENDBRANCH  47  48
ENDBRANCH  35  47
ENDBRANCH  33  37
ENDBRANCH   1  33
TORSDOF 17
ENDMDL
MODEL 8
REMARK VINA RESULT:      -5.9      6.493     11.111
REMARK  Name = 
REMARK  18 active torsions:
REMARK  status: ('A' for Active; 'I' for Inactive)
REMARK    1  A    between atoms: C_1  and  C_2
REMARK    2  A    between atoms: C_2  and  C_3
REMARK    3  A    between atoms: C_3  and  O_4
REMARK    4  A    between atoms: C_6  and  O_7
REMARK    5  A    between atoms: O_7  and  C_8
REMARK    6  A    between atoms: C_9  and  O_10
REMARK    7  A    between atoms: C_11  and  N_12
REMARK    8  A    between atoms: C_14  and  N_15
REMARK    9  A    between atoms: C_16  and  O_17
REMARK   10  A    between atoms: O_17  and  C_18
REMARK   11  A    between atoms: C_20  and  C_21
REMARK   12  A    between atoms: C_21  and  N_22
REMARK   13  A    between atoms: C_23  and  O_24
REMARK   14  A    between atoms: C_25  and  O_26
REMARK   15  A    between atoms: C_27  and  N_28
REMARK   16  A    between atoms: C_29  and  O_30
REMARK   17  A    between atoms: C_31  and  O_32
REMARK   18  A    between atoms: C_33  and  O_34
REMARK                            x       y       z     vdW  Elec       q    Type
REMARK                         _______ _______ _______ _____ _____    ______ ____
ROOT
ATOM      1  C   UNL     1       1.104  14.565  21.718  0.00  0.00    +0.000 C 
ATOM      2  C   UNL     1       2.230  15.582  22.201  0.00  0.00    +0.000 C 
ATOM      3  C   UNL     1       2.955  16.529  21.139  0.00  0.00    +0.000 C 
ATOM      4  C   UNL     1       2.532  16.296  19.687  0.00  0.00    +0.000 C 
ATOM      5  C   UNL     1       1.075  15.905  19.685  0.00  0.00    +0.000 C 
ATOM      6  C   UNL     1       0.994  14.438  20.177  0.00  0.00    +0.000 C 
ENDROOT
BRANCH   3   7
ATOM      7  N   UNL     1       2.809  17.969  21.452  0.00  0.00    +0.000 NA
ATOM      8  H   UNL     1       2.635  18.464  20.571  0.00  0.00    +0.000 HD
ATOM      9  H   UNL     1       3.668  18.353  21.855  0.00  0.00    +0.000 HD
ENDBRANCH   3   7
BRANCH   5  10
ATOM     10  N   UNL     1       0.323  16.188  18.475  0.00  0.00    +0.000 NA
ATOM     11  H   UNL     1       0.959  16.369  17.713  0.00  0.00    +0.000 HD
ATOM     12  H   UNL     1      -0.289  16.982  18.609  0.00  0.00    +0.000 HD
ENDBRANCH   5  10
BRANCH   2  13
ATOM     13  O   UNL     1       1.683  16.397  23.266  0.00  0.00    +0.000 OA
ATOM     14  H   UNL     1       2.233  16.266  24.055  0.00  0.00    +0.000 HD
ENDBRANCH   2  13
BRANCH   6  15
ATOM     15  O   UNL     1       1.871  13.439  19.572  0.00  0.00    +0.000 OA
BRANCH  15  16
ATOM     16  C   UNL     1       1.135  12.222  19.276  0.00  0.00    +0.000 C 
ATOM     17  O   UNL     1       1.232  11.419  20.450  0.00  0.00    +0.000 OA
ATOM     18  C   UNL     1       0.795  10.061  20.320  0.00  0.00    +0.000 C 
ATOM     19  C   UNL     1      -0.706  10.082  20.063  0.00  0.00    +0.000 C 
ATOM     20  C   UNL     1      -1.010  10.948  18.819  0.00  0.00    +0.000 C 
ATOM     21  C   UNL     1      -0.387  12.384  18.937  0.00  0.00    +0.000 C 
BRANCH  21  22
ATOM     22  N   UNL     1      -0.735  13.143  17.721  0.00  0.00    +0.000 NA
ATOM     23  H   UNL     1      -0.760  14.144  17.922  0.00  0.00    +0.000 HD
ATOM     24  H   UNL     1      -1.627  12.851  17.334  0.00  0.00    +0.000 HD
ENDBRANCH  21  22
BRANCH  20  25
ATOM     25  O   UNL     1      -0.577  10.307  17.602  0.00  0.00    +0.000 OA
ATOM     26  H   UNL     1       0.364  10.077  17.641  0.00  0.00    +0.000 HD
ENDBRANCH  20  25
BRANCH  19  27
ATOM     27  O   UNL     1      -1.380  10.651  21.194  0.00  0.00    +0.000 OA
ATOM     28  H   UNL     1      -0.878  11.441  21.470  0.00  0.00    +0.000 HD
ENDBRANCH  19  27
BRANCH  18  29
ATOM     29  C   UNL     1       1.230   9.367  21.630  0.00  0.00    +0.000 C 
BRANCH  29  30
ATOM     30  N   UNL     1       0.796  10.041  22.845  0.00  0.00    +0.000 NA
ATOM     31  H   UNL     1       0.103  10.758  22.637  0.00  0.00    +0.000 HD
ATOM     32  H   UNL     1       0.314   9.360  23.436  0.00  0.00    +0.000 HD
ENDBRANCH  29  30
ENDBRANCH  18  29
ENDBRANCH  15  16
ENDBRANCH   6  15
BRANCH   1  33
ATOM     33  O   UNL     1      -0.194  15.009  22.266  0.00  0.00    +0.000 OA
BRANCH  33  37
ATOM     34  C   UNL     1      -3.940  12.955  20.944  0.00  0.00    +0.000 C 
ATOM     35  C   UNL     1      -3.242  14.017  21.838  0.00  0.00    +0.000 C 
ATOM     36  O   UNL     1      -1.944  13.413  21.997  0.00  0.00    +0.000 OA
ATOM     37  C   UNL     1      -0.967  13.963  22.869  0.00  0.00    +0.000 C 
ATOM     38  C   UNL     1      -1.535  14.357  24.245  0.00  0.00    +0.000 C 
ATOM     39  C   UNL     1      -2.940  14.968  24.173  0.00  0.00    +0.000 C 
ATOM     40  C   UNL     1      -3.854  14.138  23.243  0.00  0.00    +0.000 C 
BRANCH  40  41
ATOM     41  O   UNL     1      -4.002  12.823  23.827  0.00  0.00    +0.000 OA
ATOM     42  H   UNL     1      -4.411  12.251  23.152  0.00  0.00    +0.000 HD
ENDBRANCH  40  41
BRANCH  39  43
ATOM     43  O   UNL     1      -2.848  16.339  23.784  0.00  0.00    +0.000 OA
ATOM     44  H   UNL     1      -2.539  16.822  24.575  0.00  0.00    +0.000 HD
ENDBRANCH  39  43
BRANCH  38  45
ATOM     45  O   UNL     1      -0.638  15.230  24.952  0.00  0.00    +0.000 OA
ATOM     46  H   UNL     1      -0.602  14.893  25.872  0.00  0.00    +0.000 HD
ENDBRANCH  38  45
BRANCH  35  47
ATOM     47  C   UNL     1      -3.336  15.351  21.071  0.00  0.00    +0.000 C 
BRANCH  47  48
ATOM     48  O   UNL     1      -2.323  15.405  20.041  0.00  0.00    +0.000 OA
ATOM     49  H   UNL     1      -1.560  14.890  20.360  0.00  0.00    +0.000 HD
ENDBRANCH  47  48
ENDBRANCH  35  47
ENDBRANCH  33  37
ENDBRANCH   1  33
TORSDOF 17
ENDMDL
MODEL 9
REMARK VINA RESULT:      -5.9      7.136     10.840
REMARK  Name = 
REMARK  18 active torsions:
REMARK  status: ('A' for Active; 'I' for Inactive)
REMARK    1  A    between atoms: C_1  and  C_2
REMARK    2  A    between atoms: C_2  and  C_3
REMARK    3  A    between atoms: C_3  and  O_4
REMARK    4  A    between atoms: C_6  and  O_7
REMARK    5  A    between atoms: O_7  and  C_8
REMARK    6  A    between atoms: C_9  and  O_10
REMARK    7  A    between atoms: C_11  and  N_12
REMARK    8  A    between atoms: C_14  and  N_15
REMARK    9  A    between atoms: C_16  and  O_17
REMARK   10  A    between atoms: O_17  and  C_18
REMARK   11  A    between atoms: C_20  and  C_21
REMARK   12  A    between atoms: C_21  and  N_22
REMARK   13  A    between atoms: C_23  and  O_24
REMARK   14  A    between atoms: C_25  and  O_26
REMARK   15  A    between atoms: C_27  and  N_28
REMARK   16  A    between atoms: C_29  and  O_30
REMARK   17  A    between atoms: C_31  and  O_32
REMARK   18  A    between atoms: C_33  and  O_34
REMARK                            x       y       z     vdW  Elec       q    Type
REMARK                         _______ _______ _______ _____ _____    ______ ____
ROOT
ATOM      1  C   UNL     1      -3.319  14.214  21.451  0.00  0.00    +0.000 C 
ATOM      2  C   UNL     1      -3.427  15.562  22.293  0.00  0.00    +0.000 C 
ATOM      3  C   UNL     1      -4.147  15.553  23.719  0.00  0.00    +0.000 C 
ATOM      4  C   UNL     1      -4.758  14.207  24.114  0.00  0.00    +0.000 C 
ATOM      5  C   UNL     1      -3.882  13.117  23.550  0.00  0.00    +0.000 C 
ATOM      6  C   UNL     1      -4.159  13.046  22.028  0.00  0.00    +0.000 C 
ENDROOT
BRANCH   3   7
ATOM      7  N   UNL     1      -3.266  16.017  24.814  0.00  0.00    +0.000 NA
ATOM      8  H   UNL     1      -2.615  16.705  24.422  0.00  0.00    +0.000 HD
ATOM      9  H   UNL     1      -2.706  15.249  25.195  0.00  0.00    +0.000 HD
ENDBRANCH   3   7
BRANCH   5  10
ATOM     10  N   UNL     1      -3.906  11.837  24.238  0.00  0.00    +0.000 NA
ATOM     11  H   UNL     1      -3.645  11.964  25.204  0.00  0.00    +0.000 HD
ATOM     12  H   UNL     1      -3.279  11.178  23.796  0.00  0.00    +0.000 HD
ENDBRANCH   5  10
BRANCH   2  13
ATOM     13  O   UNL     1      -2.098  16.119  22.437  0.00  0.00    +0.000 OA
ATOM     14  H   UNL     1      -1.536  15.732  21.746  0.00  0.00    +0.000 HD
ENDBRANCH   2  13
BRANCH   6  15
ATOM     15  O   UNL     1      -5.543  12.988  21.564  0.00  0.00    +0.000 OA
BRANCH  15  16
ATOM     16  C   UNL     1      -5.617  13.269  20.139  0.00  0.00    +0.000 C 
ATOM     17  O   UNL     1      -4.952  12.183  19.499  0.00  0.00    +0.000 OA
ATOM     18  C   UNL     1      -4.675  12.351  18.103  0.00  0.00    +0.000 C 
ATOM     19  C   UNL     1      -6.009  12.394  17.370  0.00  0.00    +0.000 C 
ATOM     20  C   UNL     1      -6.893  13.516  17.962  0.00  0.00    +0.000 C 
ATOM     21  C   UNL     1      -7.052  13.380  19.517  0.00  0.00    +0.000 C 
BRANCH  21  22
ATOM     22  N   UNL     1      -7.916  14.475  19.995  0.00  0.00    +0.000 NA
ATOM     23  H   UNL     1      -8.377  14.933  19.207  0.00  0.00    +0.000 HD
ATOM     24  H   UNL     1      -7.396  15.162  20.532  0.00  0.00    +0.000 HD
ENDBRANCH  21  22
BRANCH  20  25
ATOM     25  O   UNL     1      -6.398  14.826  17.617  0.00  0.00    +0.000 OA
ATOM     26  H   UNL     1      -5.454  14.911  17.822  0.00  0.00    +0.000 HD
ENDBRANCH  20  25
BRANCH  19  27
ATOM     27  O   UNL     1      -6.688  11.142  17.531  0.00  0.00    +0.000 OA
ATOM     28  H   UNL     1      -6.695  10.696  16.664  0.00  0.00    +0.000 HD
ENDBRANCH  19  27
BRANCH  18  29
ATOM     29  C   UNL     1      -3.753  11.170  17.726  0.00  0.00    +0.000 C 
BRANCH  29  30
ATOM     30  N   UNL     1      -2.466  11.559  17.169  0.00  0.00    +0.000 NA
ATOM     31  H   UNL     1      -2.439  11.395  16.164  0.00  0.00    +0.000 HD
ATOM     32  H   UNL     1      -2.360  12.570  17.282  0.00  0.00    +0.000 HD
ENDBRANCH  29  30
ENDBRANCH  18  29
ENDBRANCH  15  16
ENDBRANCH   6  15
BRANCH   1  33
ATOM     33  O   UNL     1      -1.899  13.812  21.392  0.00  0.00    +0.000 OA
BRANCH  33  37
ATOM     34  C   UNL     1      -0.628   9.823  19.823  0.00  0.00    +0.000 C 
ATOM     35  C   UNL     1      -0.249  11.230  20.360  0.00  0.00    +0.000 C 
ATOM     36  O   UNL     1      -1.399  11.989  19.941  0.00  0.00    +0.000 OA
ATOM     37  C   UNL     1      -1.458  13.400  20.092  0.00  0.00    +0.000 C 
ATOM     38  C   UNL     1      -0.168  14.112  19.645  0.00  0.00    +0.000 C 
ATOM     39  C   UNL     1       1.110  13.346  20.011  0.00  0.00    +0.000 C 
ATOM     40  C   UNL     1       0.973  11.847  19.660  0.00  0.00    +0.000 C 
BRANCH  40  41
ATOM     41  O   UNL     1       0.821  11.741  18.226  0.00  0.00    +0.000 OA
ATOM     42  H   UNL     1       0.836  12.646  17.866  0.00  0.00    +0.000 HD
ENDBRANCH  40  41
BRANCH  39  43
ATOM     43  O   UNL     1       1.427  13.570  21.386  0.00  0.00    +0.000 OA
ATOM     44  H   UNL     1       2.190  14.181  21.390  0.00  0.00    +0.000 HD
ENDBRANCH  39  43
BRANCH  38  45
ATOM     45  O   UNL     1      -0.113  15.459  20.144  0.00  0.00    +0.000 OA
ATOM     46  H   UNL     1      -0.599  15.452  20.996  0.00  0.00    +0.000 HD
ENDBRANCH  38  45
BRANCH  35  47
ATOM     47  C   UNL     1       0.001  11.059  21.872  0.00  0.00    +0.000 C 
BRANCH  47  48
ATOM     48  O   UNL     1      -1.255  11.092  22.589  0.00  0.00    +0.000 OA
ATOM     49  H   UNL     1      -1.959  10.893  21.946  0.00  0.00    +0.000 HD
ENDBRANCH  47  48
ENDBRANCH  35  47
ENDBRANCH  33  37
ENDBRANCH   1  33
TORSDOF 17
ENDMDL
