MODEL 1
REMARK VINA RESULT:      -6.9      0.000      0.000
REMARK  Name = 
REMARK  5 active torsions:
REMARK  status: ('A' for Active; 'I' for Inactive)
REMARK    1  A    between atoms: C_1  and  C_2
REMARK    2  A    between atoms: C_2  and  N_3
REMARK    3  A    between atoms: C_8  and  N_9
REMARK    4  A    between atoms: C_10  and  C_12
REMARK    5  A    between atoms: C_15  and  C_16
REMARK                            x       y       z     vdW  Elec       q    Type
REMARK                         _______ _______ _______ _____ _____    ______ ____
ROOT
ATOM      1  N   UNL     1       6.158   4.399  15.254  0.00  0.00    +0.000 N 
ATOM      2  C   UNL     1       7.205   5.278  15.277  0.00  0.00    +0.000 A 
ATOM      3  N   UNL     1       6.995   6.261  16.120  0.00  0.00    +0.000 NA
ATOM      4  C   UNL     1       5.759   6.008  16.661  0.00  0.00    +0.000 A 
ATOM      5  C   UNL     1       5.033   6.760  17.595  0.00  0.00    +0.000 A 
ATOM      6  C   UNL     1       3.769   6.320  18.009  0.00  0.00    +0.000 A 
ATOM      7  C   UNL     1       3.270   5.103  17.521  0.00  0.00    +0.000 A 
ATOM      8  C   UNL     1       3.976   4.336  16.578  0.00  0.00    +0.000 A 
ATOM      9  C   UNL     1       5.217   4.828  16.157  0.00  0.00    +0.000 A 
ENDROOT
BRANCH   6  10
ATOM     10  N   UNL     1       2.962   7.062  18.909  0.00  0.00    +0.000 N 
ATOM     11  C   UNL     1       2.205   8.173  18.565  0.00  0.00    +0.000 C 
ATOM     12  O   UNL     1       2.078   8.639  17.438  0.00  0.00    +0.000 OA
ATOM     13  H   UNL     1       2.811   6.656  19.822  0.00  0.00    +0.000 HD
BRANCH  11  14
ATOM     14  C   UNL     1       1.414   8.810  19.655  0.00  0.00    +0.000 A 
ATOM     15  C   UNL     1       0.614   9.939  19.459  0.00  0.00    +0.000 A 
ATOM     16  C   UNL     1      -0.124  10.461  20.530  0.00  0.00    +0.000 A 
ATOM     17  C   UNL     1      -0.071   9.862  21.796  0.00  0.00    +0.000 A 
ATOM     18  C   UNL     1      -0.847  10.412  22.956  0.00  0.00    +0.000 C 
ATOM     19  C   UNL     1       0.713   8.718  21.978  0.00  0.00    +0.000 A 
ATOM     20  C   UNL     1       1.448   8.196  20.914  0.00  0.00    +0.000 A 
ENDBRANCH  11  14
ENDBRANCH   6  10
BRANCH   1  22
ATOM     21  C   UNL     1       6.179   3.637  12.912  0.00  0.00    +0.000 C 
ATOM     22  C   UNL     1       6.071   3.253  14.376  0.00  0.00    +0.000 C 
ENDBRANCH   1  22
TORSDOF 3
ENDMDL
MODEL 2
REMARK VINA RESULT:      -6.8      1.711      2.652
REMARK  Name = 
REMARK  5 active torsions:
REMARK  status: ('A' for Active; 'I' for Inactive)
REMARK    1  A    between atoms: C_1  and  C_2
REMARK    2  A    between atoms: C_2  and  N_3
REMARK    3  A    between atoms: C_8  and  N_9
REMARK    4  A    between atoms: C_10  and  C_12
REMARK    5  A    between atoms: C_15  and  C_16
REMARK                            x       y       z     vdW  Elec       q    Type
REMARK                         _______ _______ _______ _____ _____    ______ ____
ROOT
ATOM      1  N   UNL     1       4.671   4.141  16.857  0.00  0.00    +0.000 N 
ATOM      2  C   UNL     1       3.933   3.102  17.351  0.00  0.00    +0.000 A 
ATOM      3  N   UNL     1       2.941   3.523  18.099  0.00  0.00    +0.000 NA
ATOM      4  C   UNL     1       3.046   4.892  18.091  0.00  0.00    +0.000 A 
ATOM      5  C   UNL     1       2.258   5.842  18.755  0.00  0.00    +0.000 A 
ATOM      6  C   UNL     1       2.549   7.206  18.617  0.00  0.00    +0.000 A 
ATOM      7  C   UNL     1       3.595   7.603  17.771  0.00  0.00    +0.000 A 
ATOM      8  C   UNL     1       4.404   6.669  17.102  0.00  0.00    +0.000 A 
ATOM      9  C   UNL     1       4.109   5.314  17.296  0.00  0.00    +0.000 A 
ENDROOT
BRANCH   6  10
ATOM     10  N   UNL     1       1.825   8.212  19.305  0.00  0.00    +0.000 N 
ATOM     11  C   UNL     1       1.464   8.156  20.644  0.00  0.00    +0.000 C 
ATOM     12  O   UNL     1       1.763   7.267  21.435  0.00  0.00    +0.000 OA
ATOM     13  H   UNL     1       1.703   9.092  18.823  0.00  0.00    +0.000 HD
BRANCH  11  14
ATOM     14  C   UNL     1       0.712   9.321  21.186  0.00  0.00    +0.000 A 
ATOM     15  C   UNL     1       0.558  10.523  20.488  0.00  0.00    +0.000 A 
ATOM     16  C   UNL     1      -0.191  11.564  21.054  0.00  0.00    +0.000 A 
ATOM     17  C   UNL     1      -0.789  11.413  22.313  0.00  0.00    +0.000 A 
ATOM     18  C   UNL     1      -1.586  12.519  22.939  0.00  0.00    +0.000 C 
ATOM     19  C   UNL     1      -0.649  10.200  22.995  0.00  0.00    +0.000 A 
ATOM     20  C   UNL     1       0.094   9.162  22.433  0.00  0.00    +0.000 A 
ENDBRANCH  11  14
ENDBRANCH   6  10
BRANCH   1  22
ATOM     21  C   UNL     1       5.629   4.332  14.596  0.00  0.00    +0.000 C 
ATOM     22  C   UNL     1       5.866   3.989  16.056  0.00  0.00    +0.000 C 
ENDBRANCH   1  22
TORSDOF 3
ENDMDL
MODEL 3
REMARK VINA RESULT:      -6.8      2.155      8.644
REMARK  Name = 
REMARK  5 active torsions:
REMARK  status: ('A' for Active; 'I' for Inactive)
REMARK    1  A    between atoms: C_1  and  C_2
REMARK    2  A    between atoms: C_2  and  N_3
REMARK    3  A    between atoms: C_8  and  N_9
REMARK    4  A    between atoms: C_10  and  C_12
REMARK    5  A    between atoms: C_15  and  C_16
REMARK                            x       y       z     vdW  Elec       q    Type
REMARK                         _______ _______ _______ _____ _____    ______ ____
ROOT
ATOM      1  N   UNL     1      -0.731  10.879  21.821  0.00  0.00    +0.000 N 
ATOM      2  C   UNL     1      -0.555  10.135  22.955  0.00  0.00    +0.000 A 
ATOM      3  N   UNL     1       0.265   9.131  22.754  0.00  0.00    +0.000 NA
ATOM      4  C   UNL     1       0.631   9.228  21.435  0.00  0.00    +0.000 A 
ATOM      5  C   UNL     1       1.468   8.390  20.686  0.00  0.00    +0.000 A 
ATOM      6  C   UNL     1       1.702   8.670  19.332  0.00  0.00    +0.000 A 
ATOM      7  C   UNL     1       1.134   9.817  18.760  0.00  0.00    +0.000 A 
ATOM      8  C   UNL     1       0.284  10.668  19.488  0.00  0.00    +0.000 A 
ATOM      9  C   UNL     1       0.042  10.334  20.826  0.00  0.00    +0.000 A 
ENDROOT
BRANCH   6  10
ATOM     10  N   UNL     1       2.494   7.831  18.508  0.00  0.00    +0.000 N 
ATOM     11  C   UNL     1       2.827   6.516  18.800  0.00  0.00    +0.000 C 
ATOM     12  O   UNL     1       2.444   5.874  19.773  0.00  0.00    +0.000 OA
ATOM     13  H   UNL     1       2.694   8.170  17.577  0.00  0.00    +0.000 HD
BRANCH  11  14
ATOM     14  C   UNL     1       3.662   5.797  17.799  0.00  0.00    +0.000 A 
ATOM     15  C   UNL     1       3.670   4.405  17.668  0.00  0.00    +0.000 A 
ATOM     16  C   UNL     1       4.462   3.805  16.680  0.00  0.00    +0.000 A 
ATOM     17  C   UNL     1       5.245   4.585  15.818  0.00  0.00    +0.000 A 
ATOM     18  C   UNL     1       6.107   3.960  14.760  0.00  0.00    +0.000 C 
ATOM     19  C   UNL     1       5.214   5.978  15.940  0.00  0.00    +0.000 A 
ATOM     20  C   UNL     1       4.427   6.578  16.922  0.00  0.00    +0.000 A 
ENDBRANCH  11  14
ENDBRANCH   6  10
BRANCH   1  22
ATOM     21  C   UNL     1      -1.322  13.088  22.736  0.00  0.00    +0.000 C 
ATOM     22  C   UNL     1      -1.628  12.008  21.714  0.00  0.00    +0.000 C 
ENDBRANCH   1  22
TORSDOF 3
ENDMDL
MODEL 4
REMARK VINA RESULT:      -6.8      1.388      2.167
REMARK  Name = 
REMARK  5 active torsions:
REMARK  status: ('A' for Active; 'I' for Inactive)
REMARK    1  A    between atoms: C_1  and  C_2
REMARK    2  A    between atoms: C_2  and  N_3
REMARK    3  A    between atoms: C_8  and  N_9
REMARK    4  A    between atoms: C_10  and  C_12
REMARK    5  A    between atoms: C_15  and  C_16
REMARK                            x       y       z     vdW  Elec       q    Type
REMARK                         _______ _______ _______ _____ _____    ______ ____
ROOT
ATOM      1  N   UNL     1       4.981   4.210  16.464  0.00  0.00    +0.000 N 
ATOM      2  C   UNL     1       4.287   3.091  16.831  0.00  0.00    +0.000 A 
ATOM      3  N   UNL     1       3.293   3.378  17.638  0.00  0.00    +0.000 NA
ATOM      4  C   UNL     1       3.351   4.739  17.802  0.00  0.00    +0.000 A 
ATOM      5  C   UNL     1       2.541   5.570  18.590  0.00  0.00    +0.000 A 
ATOM      6  C   UNL     1       2.783   6.949  18.622  0.00  0.00    +0.000 A 
ATOM      7  C   UNL     1       3.801   7.488  17.822  0.00  0.00    +0.000 A 
ATOM      8  C   UNL     1       4.632   6.675  17.030  0.00  0.00    +0.000 A 
ATOM      9  C   UNL     1       4.386   5.297  17.055  0.00  0.00    +0.000 A 
ENDROOT
BRANCH   6  10
ATOM     10  N   UNL     1       2.036   7.834  19.440  0.00  0.00    +0.000 N 
ATOM     11  C   UNL     1       1.318   8.928  18.977  0.00  0.00    +0.000 C 
ATOM     12  O   UNL     1       1.178   9.255  17.803  0.00  0.00    +0.000 OA
ATOM     13  H   UNL     1       1.894   7.552  20.400  0.00  0.00    +0.000 HD
BRANCH  11  14
ATOM     14  C   UNL     1       0.587   9.731  19.996  0.00  0.00    +0.000 A 
ATOM     15  C   UNL     1      -0.164  10.866  19.680  0.00  0.00    +0.000 A 
ATOM     16  C   UNL     1      -0.848  11.551  20.693  0.00  0.00    +0.000 A 
ATOM     17  C   UNL     1      -0.789  11.109  22.022  0.00  0.00    +0.000 A 
ATOM     18  C   UNL     1      -1.506  11.835  23.122  0.00  0.00    +0.000 C 
ATOM     19  C   UNL     1      -0.054   9.959  22.327  0.00  0.00    +0.000 A 
ATOM     20  C   UNL     1       0.627   9.276  21.321  0.00  0.00    +0.000 A 
ENDBRANCH  11  14
ENDBRANCH   6  10
BRANCH   1  22
ATOM     21  C   UNL     1       5.837   4.151  14.155  0.00  0.00    +0.000 C 
ATOM     22  C   UNL     1       6.167   4.203  15.636  0.00  0.00    +0.000 C 
ENDBRANCH   1  22
TORSDOF 3
ENDMDL
MODEL 5
REMARK VINA RESULT:      -6.7      0.320      1.081
REMARK  Name = 
REMARK  5 active torsions:
REMARK  status: ('A' for Active; 'I' for Inactive)
REMARK    1  A    between atoms: C_1  and  C_2
REMARK    2  A    between atoms: C_2  and  N_3
REMARK    3  A    between atoms: C_8  and  N_9
REMARK    4  A    between atoms: C_10  and  C_12
REMARK    5  A    between atoms: C_15  and  C_16
REMARK                            x       y       z     vdW  Elec       q    Type
REMARK                         _______ _______ _______ _____ _____    ______ ____
ROOT
ATOM      1  N   UNL     1       6.036   4.515  15.437  0.00  0.00    +0.000 N 
ATOM      2  C   UNL     1       7.063   5.417  15.457  0.00  0.00    +0.000 A 
ATOM      3  N   UNL     1       6.837   6.389  16.308  0.00  0.00    +0.000 NA
ATOM      4  C   UNL     1       5.612   6.105  16.857  0.00  0.00    +0.000 A 
ATOM      5  C   UNL     1       4.877   6.833  17.803  0.00  0.00    +0.000 A 
ATOM      6  C   UNL     1       3.626   6.362  18.224  0.00  0.00    +0.000 A 
ATOM      7  C   UNL     1       3.151   5.138  17.731  0.00  0.00    +0.000 A 
ATOM      8  C   UNL     1       3.866   4.394  16.777  0.00  0.00    +0.000 A 
ATOM      9  C   UNL     1       5.093   4.916  16.350  0.00  0.00    +0.000 A 
ENDROOT
BRANCH   6  10
ATOM     10  N   UNL     1       2.810   7.079  19.135  0.00  0.00    +0.000 N 
ATOM     11  C   UNL     1       2.057   8.200  18.814  0.00  0.00    +0.000 C 
ATOM     12  O   UNL     1       1.943   8.697  17.698  0.00  0.00    +0.000 OA
ATOM     13  H   UNL     1       2.649   6.648  20.035  0.00  0.00    +0.000 HD
BRANCH  11  14
ATOM     14  C   UNL     1       1.255   8.807  19.912  0.00  0.00    +0.000 A 
ATOM     15  C   UNL     1       0.981   8.147  21.114  0.00  0.00    +0.000 A 
ATOM     16  C   UNL     1       0.243   8.797  22.111  0.00  0.00    +0.000 A 
ATOM     17  C   UNL     1      -0.222  10.106  21.919  0.00  0.00    +0.000 A 
ATOM     18  C   UNL     1      -1.022  10.815  22.972  0.00  0.00    +0.000 C 
ATOM     19  C   UNL     1       0.075  10.768  20.724  0.00  0.00    +0.000 A 
ATOM     20  C   UNL     1       0.810  10.123  19.730  0.00  0.00    +0.000 A 
ENDBRANCH  11  14
ENDBRANCH   6  10
BRANCH   1  22
ATOM     21  C   UNL     1       6.226   3.748  13.104  0.00  0.00    +0.000 C 
ATOM     22  C   UNL     1       5.967   3.372  14.551  0.00  0.00    +0.000 C 
ENDBRANCH   1  22
TORSDOF 3
ENDMDL
MODEL 6
REMARK VINA RESULT:      -6.7      2.094      8.584
REMARK  Name = 
REMARK  5 active torsions:
REMARK  status: ('A' for Active; 'I' for Inactive)
REMARK    1  A    between atoms: C_1  and  C_2
REMARK    2  A    between atoms: C_2  and  N_3
REMARK    3  A    between atoms: C_8  and  N_9
REMARK    4  A    between atoms: C_10  and  C_12
REMARK    5  A    between atoms: C_15  and  C_16
REMARK                            x       y       z     vdW  Elec       q    Type
REMARK                         _______ _______ _______ _____ _____    ______ ____
ROOT
ATOM      1  N   UNL     1      -0.655  10.765  21.789  0.00  0.00    +0.000 N 
ATOM      2  C   UNL     1      -0.427   9.980  22.885  0.00  0.00    +0.000 A 
ATOM      3  N   UNL     1       0.408   9.005  22.617  0.00  0.00    +0.000 NA
ATOM      4  C   UNL     1       0.730   9.164  21.293  0.00  0.00    +0.000 A 
ATOM      5  C   UNL     1       1.561   8.378  20.484  0.00  0.00    +0.000 A 
ATOM      6  C   UNL     1       1.745   8.718  19.137  0.00  0.00    +0.000 A 
ATOM      7  C   UNL     1       1.135   9.874  18.630  0.00  0.00    +0.000 A 
ATOM      8  C   UNL     1       0.290  10.674  19.419  0.00  0.00    +0.000 A 
ATOM      9  C   UNL     1       0.098  10.280  20.749  0.00  0.00    +0.000 A 
ENDROOT
BRANCH   6  10
ATOM     10  N   UNL     1       2.529   7.932  18.254  0.00  0.00    +0.000 N 
ATOM     11  C   UNL     1       3.124   6.722  18.583  0.00  0.00    +0.000 C 
ATOM     12  O   UNL     1       3.015   6.132  19.653  0.00  0.00    +0.000 OA
ATOM     13  H   UNL     1       2.519   8.200  17.279  0.00  0.00    +0.000 HD
BRANCH  11  14
ATOM     14  C   UNL     1       3.901   6.043  17.510  0.00  0.00    +0.000 A 
ATOM     15  C   UNL     1       4.674   6.733  16.572  0.00  0.00    +0.000 A 
ATOM     16  C   UNL     1       5.401   6.019  15.610  0.00  0.00    +0.000 A 
ATOM     17  C   UNL     1       5.365   4.618  15.580  0.00  0.00    +0.000 A 
ATOM     18  C   UNL     1       6.129   3.836  14.552  0.00  0.00    +0.000 C 
ATOM     19  C   UNL     1       4.609   3.933  16.537  0.00  0.00    +0.000 A 
ATOM     20  C   UNL     1       3.884   4.642  17.495  0.00  0.00    +0.000 A 
ENDBRANCH  11  14
ENDBRANCH   6  10
BRANCH   1  22
ATOM     21  C   UNL     1      -1.303  12.891  22.852  0.00  0.00    +0.000 C 
ATOM     22  C   UNL     1      -1.580  11.877  21.757  0.00  0.00    +0.000 C 
ENDBRANCH   1  22
TORSDOF 3
ENDMDL
MODEL 7
REMARK VINA RESULT:      -6.7      1.279      1.698
REMARK  Name = 
REMARK  5 active torsions:
REMARK  status: ('A' for Active; 'I' for Inactive)
REMARK    1  A    between atoms: C_1  and  C_2
REMARK    2  A    between atoms: C_2  and  N_3
REMARK    3  A    between atoms: C_8  and  N_9
REMARK    4  A    between atoms: C_10  and  C_12
REMARK    5  A    between atoms: C_15  and  C_16
REMARK                            x       y       z     vdW  Elec       q    Type
REMARK                         _______ _______ _______ _____ _____    ______ ____
ROOT
ATOM      1  N   UNL     1       6.137   4.170  16.710  0.00  0.00    +0.000 N 
ATOM      2  C   UNL     1       7.242   4.361  17.492  0.00  0.00    +0.000 A 
ATOM      3  N   UNL     1       6.960   5.057  18.568  0.00  0.00    +0.000 NA
ATOM      4  C   UNL     1       5.618   5.330  18.474  0.00  0.00    +0.000 A 
ATOM      5  C   UNL     1       4.804   6.071  19.342  0.00  0.00    +0.000 A 
ATOM      6  C   UNL     1       3.444   6.237  19.047  0.00  0.00    +0.000 A 
ATOM      7  C   UNL     1       2.905   5.614  17.913  0.00  0.00    +0.000 A 
ATOM      8  C   UNL     1       3.703   4.873  17.023  0.00  0.00    +0.000 A 
ATOM      9  C   UNL     1       5.064   4.762  17.329  0.00  0.00    +0.000 A 
ENDROOT
BRANCH   6  10
ATOM     10  N   UNL     1       2.581   7.020  19.856  0.00  0.00    +0.000 N 
ATOM     11  C   UNL     1       1.975   8.203  19.455  0.00  0.00    +0.000 C 
ATOM     12  O   UNL     1       2.050   8.711  18.341  0.00  0.00    +0.000 OA
ATOM     13  H   UNL     1       2.268   6.602  20.721  0.00  0.00    +0.000 HD
BRANCH  11  14
ATOM     14  C   UNL     1       1.092   8.873  20.449  0.00  0.00    +0.000 A 
ATOM     15  C   UNL     1       0.841   8.354  21.722  0.00  0.00    +0.000 A 
ATOM     16  C   UNL     1       0.020   9.061  22.612  0.00  0.00    +0.000 A 
ATOM     17  C   UNL     1      -0.550  10.286  22.239  0.00  0.00    +0.000 A 
ATOM     18  C   UNL     1      -1.439  11.052  23.174  0.00  0.00    +0.000 C 
ATOM     19  C   UNL     1      -0.276  10.811  20.973  0.00  0.00    +0.000 A 
ATOM     20  C   UNL     1       0.540  10.110  20.086  0.00  0.00    +0.000 A 
ENDBRANCH  11  14
ENDBRANCH   6  10
BRANCH   1  22
ATOM     21  C   UNL     1       6.280   4.470  14.269  0.00  0.00    +0.000 C 
ATOM     22  C   UNL     1       6.148   3.499  15.428  0.00  0.00    +0.000 C 
ENDBRANCH   1  22
TORSDOF 3
ENDMDL
MODEL 8
REMARK VINA RESULT:      -6.7      2.201      8.764
REMARK  Name = 
REMARK  5 active torsions:
REMARK  status: ('A' for Active; 'I' for Inactive)
REMARK    1  A    between atoms: C_1  and  C_2
REMARK    2  A    between atoms: C_2  and  N_3
REMARK    3  A    between atoms: C_8  and  N_9
REMARK    4  A    between atoms: C_10  and  C_12
REMARK    5  A    between atoms: C_15  and  C_16
REMARK                            x       y       z     vdW  Elec       q    Type
REMARK                         _______ _______ _______ _____ _____    ______ ____
ROOT
ATOM      1  N   UNL     1      -1.067  11.148  22.125  0.00  0.00    +0.000 N 
ATOM      2  C   UNL     1      -0.799  10.657  23.373  0.00  0.00    +0.000 A 
ATOM      3  N   UNL     1       0.070   9.675  23.332  0.00  0.00    +0.000 NA
ATOM      4  C   UNL     1       0.373   9.524  22.002  0.00  0.00    +0.000 A 
ATOM      5  C   UNL     1       1.227   8.595  21.390  0.00  0.00    +0.000 A 
ATOM      6  C   UNL     1       1.386   8.608  19.998  0.00  0.00    +0.000 A 
ATOM      7  C   UNL     1       0.727   9.587  19.240  0.00  0.00    +0.000 A 
ATOM      8  C   UNL     1      -0.141  10.523  19.829  0.00  0.00    +0.000 A 
ATOM      9  C   UNL     1      -0.306  10.453  21.218  0.00  0.00    +0.000 A 
ENDROOT
BRANCH   6  10
ATOM     10  N   UNL     1       2.191   7.662  19.315  0.00  0.00    +0.000 N 
ATOM     11  C   UNL     1       2.684   7.822  18.027  0.00  0.00    +0.000 C 
ATOM     12  O   UNL     1       2.545   8.814  17.319  0.00  0.00    +0.000 OA
ATOM     13  H   UNL     1       2.555   6.896  19.865  0.00  0.00    +0.000 HD
BRANCH  11  14
ATOM     14  C   UNL     1       3.523   6.716  17.489  0.00  0.00    +0.000 A 
ATOM     15  C   UNL     1       3.283   5.367  17.770  0.00  0.00    +0.000 A 
ATOM     16  C   UNL     1       4.101   4.383  17.200  0.00  0.00    +0.000 A 
ATOM     17  C   UNL     1       5.157   4.734  16.347  0.00  0.00    +0.000 A 
ATOM     18  C   UNL     1       6.049   3.695  15.735  0.00  0.00    +0.000 C 
ATOM     19  C   UNL     1       5.376   6.084  16.052  0.00  0.00    +0.000 A 
ATOM     20  C   UNL     1       4.564   7.066  16.617  0.00  0.00    +0.000 A 
ENDBRANCH  11  14
ENDBRANCH   6  10
BRANCH   1  22
ATOM     21  C   UNL     1      -2.997  12.406  22.996  0.00  0.00    +0.000 C 
ATOM     22  C   UNL     1      -2.034  12.186  21.844  0.00  0.00    +0.000 C 
ENDBRANCH   1  22
TORSDOF 3
ENDMDL
MODEL 9
REMARK VINA RESULT:      -6.7      1.328      2.282
REMARK  Name = 
REMARK  5 active torsions:
REMARK  status: ('A' for Active; 'I' for Inactive)
REMARK    1  A    between atoms: C_1  and  C_2
REMARK    2  A    between atoms: C_2  and  N_3
REMARK    3  A    between atoms: C_8  and  N_9
REMARK    4  A    between atoms: C_10  and  C_12
REMARK    5  A    between atoms: C_15  and  C_16
REMARK                            x       y       z     vdW  Elec       q    Type
REMARK                         _______ _______ _______ _____ _____    ______ ____
ROOT
ATOM      1  N   UNL     1       5.187   4.219  16.326  0.00  0.00    +0.000 N 
ATOM      2  C   UNL     1       4.572   3.066  16.730  0.00  0.00    +0.000 A 
ATOM      3  N   UNL     1       3.608   3.305  17.587  0.00  0.00    +0.000 NA
ATOM      4  C   UNL     1       3.602   4.668  17.745  0.00  0.00    +0.000 A 
ATOM      5  C   UNL     1       2.791   5.458  18.572  0.00  0.00    +0.000 A 
ATOM      6  C   UNL     1       2.961   6.849  18.589  0.00  0.00    +0.000 A 
ATOM      7  C   UNL     1       3.907   7.436  17.736  0.00  0.00    +0.000 A 
ATOM      8  C   UNL     1       4.737   6.665  16.904  0.00  0.00    +0.000 A 
ATOM      9  C   UNL     1       4.566   5.276  16.944  0.00  0.00    +0.000 A 
ENDROOT
BRANCH   6  10
ATOM     10  N   UNL     1       2.211   7.697  19.442  0.00  0.00    +0.000 N 
ATOM     11  C   UNL     1       1.411   8.748  19.014  0.00  0.00    +0.000 C 
ATOM     12  O   UNL     1       1.192   9.059  17.848  0.00  0.00    +0.000 OA
ATOM     13  H   UNL     1       2.136   7.414  20.410  0.00  0.00    +0.000 HD
BRANCH  11  14
ATOM     14  C   UNL     1       0.693   9.516  20.068  0.00  0.00    +0.000 A 
ATOM     15  C   UNL     1       0.306   8.960  21.291  0.00  0.00    +0.000 A 
ATOM     16  C   UNL     1      -0.341   9.758  22.244  0.00  0.00    +0.000 A 
ATOM     17  C   UNL     1      -0.602  11.111  21.986  0.00  0.00    +0.000 A 
ATOM     18  C   UNL     1      -1.302  11.979  22.990  0.00  0.00    +0.000 C 
ATOM     19  C   UNL     1      -0.191  11.667  20.770  0.00  0.00    +0.000 A 
ATOM     20  C   UNL     1       0.453  10.875  19.820  0.00  0.00    +0.000 A 
ENDBRANCH  11  14
ENDBRANCH   6  10
BRANCH   1  22
ATOM     21  C   UNL     1       5.947   4.000  13.994  0.00  0.00    +0.000 C 
ATOM     22  C   UNL     1       6.327   4.271  15.438  0.00  0.00    +0.000 C 
ENDBRANCH   1  22
TORSDOF 3
ENDMDL
