MODEL 1
REMARK VINA RESULT:      -9.2      0.000      0.000
REMARK  Name = 
REMARK  9 active torsions:
REMARK  status: ('A' for Active; 'I' for Inactive)
REMARK    1  A    between atoms: C_1  and  N_2
REMARK    2  A    between atoms: C_3  and  C_5
REMARK    3  A    between atoms: C_10  and  N_11
REMARK    4  A    between atoms: N_11  and  C_12
REMARK    5  A    between atoms: C_14  and  N_15
REMARK    6  A    between atoms: N_15  and  C_16
REMARK    7  A    between atoms: C_19  and  N_20
REMARK    8  A    between atoms: C_26  and  C_27
REMARK    9  A    between atoms: C_31  and  C_32
REMARK                            x       y       z     vdW  Elec       q    Type
REMARK                         _______ _______ _______ _____ _____    ______ ____
ROOT
ATOM      1  C   UNL     1       3.748   4.607  18.922  0.00  0.00    +0.000 A 
ATOM      2  C   UNL     1       3.534   5.902  19.427  0.00  0.00    +0.000 A 
ATOM      3  C   UNL     1       2.345   6.239  20.070  0.00  0.00    +0.000 A 
ATOM      4  N   UNL     1       1.331   5.359  20.135  0.00  0.00    +0.000 NA
ATOM      5  C   UNL     1       1.523   4.126  19.612  0.00  0.00    +0.000 A 
ATOM      6  C   UNL     1       2.703   3.689  19.020  0.00  0.00    +0.000 A 
ENDROOT
BRANCH   6   7
ATOM      7  C   UNL     1       2.760   2.266  18.565  0.00  0.00    +0.000 C 
ATOM      8  F   UNL     1       1.883   1.446  19.210  0.00  0.00    +0.000 F 
ATOM      9  F   UNL     1       2.483   2.132  17.238  0.00  0.00    +0.000 F 
ATOM     10  F   UNL     1       3.989   1.710  18.749  0.00  0.00    +0.000 F 
ENDBRANCH   6   7
BRANCH   1  11
ATOM     11  N   UNL     1       5.037   4.270  18.425  0.00  0.00    +0.000 N 
ATOM     12  H   UNL     1       5.808   4.422  19.083  0.00  0.00    +0.000 HD
BRANCH  11  18
ATOM     13  C   UNL     1       6.486   5.397  16.741  0.00  0.00    +0.000 A 
ATOM     14  C   UNL     1       6.906   5.503  15.398  0.00  0.00    +0.000 A 
ATOM     15  C   UNL     1       6.367   4.693  14.400  0.00  0.00    +0.000 A 
ATOM     16  C   UNL     1       5.377   3.772  14.724  0.00  0.00    +0.000 A 
ATOM     17  C   UNL     1       4.946   3.667  16.046  0.00  0.00    +0.000 A 
ATOM     18  C   UNL     1       5.496   4.451  17.085  0.00  0.00    +0.000 A 
BRANCH  13  21
ATOM     19  C   UNL     1       8.105   8.555  18.084  0.00  0.00    +0.000 C 
ATOM     20  N   UNL     1       7.655   7.519  17.184  0.00  0.00    +0.000 N 
ATOM     21  C   UNL     1       7.164   6.336  17.688  0.00  0.00    +0.000 C 
ATOM     22  O   UNL     1       7.226   6.052  18.882  0.00  0.00    +0.000 OA
ATOM     23  H   UNL     1       7.416   7.766  16.230  0.00  0.00    +0.000 HD
ENDBRANCH  13  21
ENDBRANCH  11  18
ENDBRANCH   1  11
BRANCH   3  24
ATOM     24  N   UNL     1       2.278   7.513  20.678  0.00  0.00    +0.000 N 
ATOM     25  H   UNL     1       2.472   7.417  21.669  0.00  0.00    +0.000 HD
BRANCH  24  26
ATOM     26  C   UNL     1       1.378   8.569  20.434  0.00  0.00    +0.000 A 
ATOM     27  C   UNL     1       1.196   9.140  19.185  0.00  0.00    +0.000 A 
ATOM     28  C   UNL     1       0.374  10.265  19.023  0.00  0.00    +0.000 A 
ATOM     29  C   UNL     1      -0.311  10.883  20.090  0.00  0.00    +0.000 A 
ATOM     30  C   UNL     1      -0.139  10.289  21.360  0.00  0.00    +0.000 A 
ATOM     31  C   UNL     1      -0.867  10.688  22.620  0.00  0.00    +0.000 C 
ATOM     32  C   UNL     1       0.721   9.171  21.512  0.00  0.00    +0.000 A 
BRANCH  29  33
ATOM     33  N   UNL     1      -1.087  12.002  19.844  0.00  0.00    +0.000 N 
ATOM     34  C   UNL     1      -0.606  13.374  20.096  0.00  0.00    +0.000 C 
ATOM     35  C   UNL     1      -1.557  14.119  21.047  0.00  0.00    +0.000 C 
ATOM     36  O   UNL     1      -2.908  14.108  20.554  0.00  0.00    +0.000 OA
ATOM     37  C   UNL     1      -3.372  12.754  20.441  0.00  0.00    +0.000 C 
ATOM     38  C   UNL     1      -2.510  11.927  19.477  0.00  0.00    +0.000 C 
ENDBRANCH  29  33
ENDBRANCH  24  26
ENDBRANCH   3  24
TORSDOF 7
ENDMDL
MODEL 2
REMARK VINA RESULT:      -8.9      1.280      2.223
REMARK  Name = 
REMARK  9 active torsions:
REMARK  status: ('A' for Active; 'I' for Inactive)
REMARK    1  A    between atoms: C_1  and  N_2
REMARK    2  A    between atoms: C_3  and  C_5
REMARK    3  A    between atoms: C_10  and  N_11
REMARK    4  A    between atoms: N_11  and  C_12
REMARK    5  A    between atoms: C_14  and  N_15
REMARK    6  A    between atoms: N_15  and  C_16
REMARK    7  A    between atoms: C_19  and  N_20
REMARK    8  A    between atoms: C_26  and  C_27
REMARK    9  A    between atoms: C_31  and  C_32
REMARK                            x       y       z     vdW  Elec       q    Type
REMARK                         _______ _______ _______ _____ _____    ______ ____
ROOT
ATOM      1  C   UNL     1       3.516   4.221  19.126  0.00  0.00    +0.000 A 
ATOM      2  C   UNL     1       3.319   5.481  19.718  0.00  0.00    +0.000 A 
ATOM      3  C   UNL     1       2.128   5.796  20.367  0.00  0.00    +0.000 A 
ATOM      4  N   UNL     1       1.096   4.934  20.357  0.00  0.00    +0.000 NA
ATOM      5  C   UNL     1       1.272   3.737  19.752  0.00  0.00    +0.000 A 
ATOM      6  C   UNL     1       2.453   3.319  19.146  0.00  0.00    +0.000 A 
ENDROOT
BRANCH   6   7
ATOM      7  C   UNL     1       2.490   1.929  18.595  0.00  0.00    +0.000 C 
ATOM      8  F   UNL     1       1.462   1.141  19.018  0.00  0.00    +0.000 F 
ATOM      9  F   UNL     1       2.436   1.908  17.234  0.00  0.00    +0.000 F 
ATOM     10  F   UNL     1       3.629   1.266  18.934  0.00  0.00    +0.000 F 
ENDBRANCH   6   7
BRANCH   1  11
ATOM     11  N   UNL     1       4.805   3.894  18.625  0.00  0.00    +0.000 N 
ATOM     12  H   UNL     1       5.202   3.021  18.988  0.00  0.00    +0.000 HD
BRANCH  11  18
ATOM     13  C   UNL     1       6.216   5.154  17.004  0.00  0.00    +0.000 A 
ATOM     14  C   UNL     1       7.247   6.094  16.788  0.00  0.00    +0.000 A 
ATOM     15  C   UNL     1       7.915   6.701  17.850  0.00  0.00    +0.000 A 
ATOM     16  C   UNL     1       7.578   6.362  19.155  0.00  0.00    +0.000 A 
ATOM     17  C   UNL     1       6.569   5.426  19.381  0.00  0.00    +0.000 A 
ATOM     18  C   UNL     1       5.852   4.818  18.326  0.00  0.00    +0.000 A 
BRANCH  13  21
ATOM     19  C   UNL     1       5.914   3.806  13.470  0.00  0.00    +0.000 C 
ATOM     20  N   UNL     1       6.377   4.541  14.624  0.00  0.00    +0.000 N 
ATOM     21  C   UNL     1       5.600   4.598  15.760  0.00  0.00    +0.000 C 
ATOM     22  O   UNL     1       4.449   4.171  15.793  0.00  0.00    +0.000 OA
ATOM     23  H   UNL     1       7.366   4.746  14.713  0.00  0.00    +0.000 HD
ENDBRANCH  13  21
ENDBRANCH  11  18
ENDBRANCH   1  11
BRANCH   3  24
ATOM     24  N   UNL     1       2.075   7.027  21.061  0.00  0.00    +0.000 N 
ATOM     25  H   UNL     1       2.088   6.844  22.059  0.00  0.00    +0.000 HD
BRANCH  24  26
ATOM     26  C   UNL     1       1.331   8.185  20.763  0.00  0.00    +0.000 A 
ATOM     27  C   UNL     1       1.313   8.777  19.511  0.00  0.00    +0.000 A 
ATOM     28  C   UNL     1       0.648   9.994  19.302  0.00  0.00    +0.000 A 
ATOM     29  C   UNL     1      -0.034  10.688  20.322  0.00  0.00    +0.000 A 
ATOM     30  C   UNL     1      -0.030  10.076  21.595  0.00  0.00    +0.000 A 
ATOM     31  C   UNL     1      -0.795  10.558  22.802  0.00  0.00    +0.000 C 
ATOM     32  C   UNL     1       0.674   8.861  21.796  0.00  0.00    +0.000 A 
BRANCH  29  33
ATOM     33  N   UNL     1      -0.648  11.895  20.033  0.00  0.00    +0.000 N 
ATOM     34  C   UNL     1      -0.009  13.197  20.306  0.00  0.00    +0.000 C 
ATOM     35  C   UNL     1      -0.907  14.065  21.204  0.00  0.00    +0.000 C 
ATOM     36  O   UNL     1      -2.220  14.221  20.640  0.00  0.00    +0.000 OA
ATOM     37  C   UNL     1      -2.846  12.936  20.507  0.00  0.00    +0.000 C 
ATOM     38  C   UNL     1      -2.047  11.997  19.591  0.00  0.00    +0.000 C 
ENDBRANCH  29  33
ENDBRANCH  24  26
ENDBRANCH   3  24
TORSDOF 7
ENDMDL
MODEL 3
REMARK VINA RESULT:      -8.9      1.583      2.630
REMARK  Name = 
REMARK  9 active torsions:
REMARK  status: ('A' for Active; 'I' for Inactive)
REMARK    1  A    between atoms: C_1  and  N_2
REMARK    2  A    between atoms: C_3  and  C_5
REMARK    3  A    between atoms: C_10  and  N_11
REMARK    4  A    between atoms: N_11  and  C_12
REMARK    5  A    between atoms: C_14  and  N_15
REMARK    6  A    between atoms: N_15  and  C_16
REMARK    7  A    between atoms: C_19  and  N_20
REMARK    8  A    between atoms: C_26  and  C_27
REMARK    9  A    between atoms: C_31  and  C_32
REMARK                            x       y       z     vdW  Elec       q    Type
REMARK                         _______ _______ _______ _____ _____    ______ ____
ROOT
ATOM      1  C   UNL     1       3.133   4.425  18.748  0.00  0.00    +0.000 A 
ATOM      2  C   UNL     1       2.930   5.619  19.463  0.00  0.00    +0.000 A 
ATOM      3  C   UNL     1       1.927   5.725  20.422  0.00  0.00    +0.000 A 
ATOM      4  N   UNL     1       1.061   4.716  20.619  0.00  0.00    +0.000 NA
ATOM      5  C   UNL     1       1.231   3.582  19.902  0.00  0.00    +0.000 A 
ATOM      6  C   UNL     1       2.250   3.371  18.978  0.00  0.00    +0.000 A 
ENDROOT
BRANCH   6   7
ATOM      7  C   UNL     1       2.329   2.024  18.335  0.00  0.00    +0.000 C 
ATOM      8  F   UNL     1       3.414   1.294  18.717  0.00  0.00    +0.000 F 
ATOM      9  F   UNL     1       1.244   1.248  18.617  0.00  0.00    +0.000 F 
ATOM     10  F   UNL     1       2.392   2.098  16.978  0.00  0.00    +0.000 F 
ENDBRANCH   6   7
BRANCH   1  11
ATOM     11  N   UNL     1       4.271   4.317  17.903  0.00  0.00    +0.000 N 
ATOM     12  H   UNL     1       4.432   3.383  17.512  0.00  0.00    +0.000 HD
BRANCH  11  18
ATOM     13  C   UNL     1       6.249   5.532  16.997  0.00  0.00    +0.000 A 
ATOM     14  C   UNL     1       7.462   6.206  17.251  0.00  0.00    +0.000 A 
ATOM     15  C   UNL     1       7.956   6.358  18.546  0.00  0.00    +0.000 A 
ATOM     16  C   UNL     1       7.253   5.815  19.614  0.00  0.00    +0.000 A 
ATOM     17  C   UNL     1       6.059   5.135  19.375  0.00  0.00    +0.000 A 
ATOM     18  C   UNL     1       5.517   4.993  18.078  0.00  0.00    +0.000 A 
BRANCH  13  21
ATOM     19  C   UNL     1       5.607   4.091  13.546  0.00  0.00    +0.000 C 
ATOM     20  N   UNL     1       6.162   4.307  14.862  0.00  0.00    +0.000 N 
ATOM     21  C   UNL     1       5.859   5.458  15.555  0.00  0.00    +0.000 C 
ATOM     22  O   UNL     1       5.249   6.393  15.044  0.00  0.00    +0.000 OA
ATOM     23  H   UNL     1       6.507   3.511  15.387  0.00  0.00    +0.000 HD
ENDBRANCH  13  21
ENDBRANCH  11  18
ENDBRANCH   1  11
BRANCH   3  24
ATOM     24  N   UNL     1       1.895   6.908  21.195  0.00  0.00    +0.000 N 
ATOM     25  H   UNL     1       1.748   6.663  22.169  0.00  0.00    +0.000 HD
BRANCH  24  26
ATOM     26  C   UNL     1       1.314   8.155  20.890  0.00  0.00    +0.000 A 
ATOM     27  C   UNL     1       1.495   8.802  19.679  0.00  0.00    +0.000 A 
ATOM     28  C   UNL     1       0.990  10.095  19.474  0.00  0.00    +0.000 A 
ATOM     29  C   UNL     1       0.278  10.813  20.457  0.00  0.00    +0.000 A 
ATOM     30  C   UNL     1       0.079  10.145  21.686  0.00  0.00    +0.000 A 
ATOM     31  C   UNL     1      -0.757  10.653  22.834  0.00  0.00    +0.000 C 
ATOM     32  C   UNL     1       0.625   8.851  21.888  0.00  0.00    +0.000 A 
BRANCH  29  33
ATOM     33  N   UNL     1      -0.169  12.092  20.176  0.00  0.00    +0.000 N 
ATOM     34  C   UNL     1      -1.176  12.373  19.134  0.00  0.00    +0.000 C 
ATOM     35  C   UNL     1      -0.632  13.384  18.111  0.00  0.00    +0.000 C 
ATOM     36  O   UNL     1      -0.177  14.588  18.753  0.00  0.00    +0.000 OA
ATOM     37  C   UNL     1       0.884  14.278  19.669  0.00  0.00    +0.000 C 
ATOM     38  C   UNL     1       0.435  13.298  20.764  0.00  0.00    +0.000 C 
ENDBRANCH  29  33
ENDBRANCH  24  26
ENDBRANCH   3  24
TORSDOF 7
ENDMDL
MODEL 4
REMARK VINA RESULT:      -8.9      1.324      1.526
REMARK  Name = 
REMARK  9 active torsions:
REMARK  status: ('A' for Active; 'I' for Inactive)
REMARK    1  A    between atoms: C_1  and  N_2
REMARK    2  A    between atoms: C_3  and  C_5
REMARK    3  A    between atoms: C_10  and  N_11
REMARK    4  A    between atoms: N_11  and  C_12
REMARK    5  A    between atoms: C_14  and  N_15
REMARK    6  A    between atoms: N_15  and  C_16
REMARK    7  A    between atoms: C_19  and  N_20
REMARK    8  A    between atoms: C_26  and  C_27
REMARK    9  A    between atoms: C_31  and  C_32
REMARK                            x       y       z     vdW  Elec       q    Type
REMARK                         _______ _______ _______ _____ _____    ______ ____
ROOT
ATOM      1  C   UNL     1       3.833   4.645  19.188  0.00  0.00    +0.000 A 
ATOM      2  C   UNL     1       3.357   5.874  19.680  0.00  0.00    +0.000 A 
ATOM      3  C   UNL     1       2.129   5.966  20.329  0.00  0.00    +0.000 A 
ATOM      4  N   UNL     1       1.320   4.896  20.414  0.00  0.00    +0.000 NA
ATOM      5  C   UNL     1       1.760   3.722  19.905  0.00  0.00    +0.000 A 
ATOM      6  C   UNL     1       3.001   3.531  19.307  0.00  0.00    +0.000 A 
ENDROOT
BRANCH   6   7
ATOM      7  C   UNL     1       3.350   2.145  18.870  0.00  0.00    +0.000 C 
ATOM      8  F   UNL     1       2.397   1.217  19.170  0.00  0.00    +0.000 F 
ATOM      9  F   UNL     1       3.540   2.056  17.524  0.00  0.00    +0.000 F 
ATOM     10  F   UNL     1       4.499   1.693  19.441  0.00  0.00    +0.000 F 
ENDBRANCH   6   7
BRANCH   1  11
ATOM     11  N   UNL     1       5.160   4.575  18.684  0.00  0.00    +0.000 N 
ATOM     12  H   UNL     1       5.878   4.968  19.301  0.00  0.00    +0.000 HD
BRANCH  11  18
ATOM     13  C   UNL     1       6.565   5.625  16.915  0.00  0.00    +0.000 A 
ATOM     14  C   UNL     1       6.912   5.707  15.549  0.00  0.00    +0.000 A 
ATOM     15  C   UNL     1       6.279   4.921  14.588  0.00  0.00    +0.000 A 
ATOM     16  C   UNL     1       5.266   4.051  14.973  0.00  0.00    +0.000 A 
ATOM     17  C   UNL     1       4.906   3.970  16.318  0.00  0.00    +0.000 A 
ATOM     18  C   UNL     1       5.551   4.730  17.320  0.00  0.00    +0.000 A 
BRANCH  13  21
ATOM     19  C   UNL     1       8.245   8.765  18.225  0.00  0.00    +0.000 C 
ATOM     20  N   UNL     1       7.706   7.768  17.330  0.00  0.00    +0.000 N 
ATOM     21  C   UNL     1       7.339   6.533  17.817  0.00  0.00    +0.000 C 
ATOM     22  O   UNL     1       7.586   6.178  18.966  0.00  0.00    +0.000 OA
ATOM     23  H   UNL     1       7.320   8.063  16.440  0.00  0.00    +0.000 HD
ENDBRANCH  13  21
ENDBRANCH  11  18
ENDBRANCH   1  11
BRANCH   3  24
ATOM     24  N   UNL     1       1.803   7.207  20.922  0.00  0.00    +0.000 N 
ATOM     25  H   UNL     1       1.216   7.042  21.733  0.00  0.00    +0.000 HD
BRANCH  24  26
ATOM     26  C   UNL     1       1.486   8.432  20.303  0.00  0.00    +0.000 A 
ATOM     27  C   UNL     1       1.740   8.698  18.968  0.00  0.00    +0.000 A 
ATOM     28  C   UNL     1       1.511   9.976  18.434  0.00  0.00    +0.000 A 
ATOM     29  C   UNL     1       1.019  11.055  19.195  0.00  0.00    +0.000 A 
ATOM     30  C   UNL     1       0.744  10.779  20.553  0.00  0.00    +0.000 A 
ATOM     31  C   UNL     1       0.093  11.730  21.527  0.00  0.00    +0.000 C 
ATOM     32  C   UNL     1       1.011   9.491  21.085  0.00  0.00    +0.000 A 
BRANCH  29  33
ATOM     33  N   UNL     1       0.840  12.289  18.593  0.00  0.00    +0.000 N 
ATOM     34  C   UNL     1       1.965  13.195  18.289  0.00  0.00    +0.000 C 
ATOM     35  C   UNL     1       1.748  14.569  18.945  0.00  0.00    +0.000 C 
ATOM     36  O   UNL     1       0.484  15.139  18.565  0.00  0.00    +0.000 OA
ATOM     37  C   UNL     1      -0.583  14.278  18.990  0.00  0.00    +0.000 C 
ATOM     38  C   UNL     1      -0.485  12.882  18.358  0.00  0.00    +0.000 C 
ENDBRANCH  29  33
ENDBRANCH  24  26
ENDBRANCH   3  24
TORSDOF 7
ENDMDL
MODEL 5
REMARK VINA RESULT:      -8.9      1.266      1.802
REMARK  Name = 
REMARK  9 active torsions:
REMARK  status: ('A' for Active; 'I' for Inactive)
REMARK    1  A    between atoms: C_1  and  N_2
REMARK    2  A    between atoms: C_3  and  C_5
REMARK    3  A    between atoms: C_10  and  N_11
REMARK    4  A    between atoms: N_11  and  C_12
REMARK    5  A    between atoms: C_14  and  N_15
REMARK    6  A    between atoms: N_15  and  C_16
REMARK    7  A    between atoms: C_19  and  N_20
REMARK    8  A    between atoms: C_26  and  C_27
REMARK    9  A    between atoms: C_31  and  C_32
REMARK                            x       y       z     vdW  Elec       q    Type
REMARK                         _______ _______ _______ _____ _____    ______ ____
ROOT
ATOM      1  C   UNL     1       4.071   4.220  17.577  0.00  0.00    +0.000 A 
ATOM      2  C   UNL     1       3.867   5.597  17.382  0.00  0.00    +0.000 A 
ATOM      3  C   UNL     1       2.877   6.287  18.076  0.00  0.00    +0.000 A 
ATOM      4  N   UNL     1       2.023   5.630  18.880  0.00  0.00    +0.000 NA
ATOM      5  C   UNL     1       2.193   4.297  19.037  0.00  0.00    +0.000 A 
ATOM      6  C   UNL     1       3.201   3.549  18.436  0.00  0.00    +0.000 A 
ENDROOT
BRANCH   6   7
ATOM      7  C   UNL     1       3.283   2.098  18.785  0.00  0.00    +0.000 C 
ATOM      8  F   UNL     1       3.405   1.277  17.704  0.00  0.00    +0.000 F 
ATOM      9  F   UNL     1       4.349   1.815  19.585  0.00  0.00    +0.000 F 
ATOM     10  F   UNL     1       2.184   1.661  19.459  0.00  0.00    +0.000 F 
ENDBRANCH   6   7
BRANCH   1  11
ATOM     11  N   UNL     1       5.197   3.601  16.970  0.00  0.00    +0.000 N 
ATOM     12  H   UNL     1       5.920   3.282  17.624  0.00  0.00    +0.000 HD
BRANCH  11  18
ATOM     13  C   UNL     1       6.841   4.912  15.635  0.00  0.00    +0.000 A 
ATOM     14  C   UNL     1       7.395   5.211  14.372  0.00  0.00    +0.000 A 
ATOM     15  C   UNL     1       6.934   4.596  13.209  0.00  0.00    +0.000 A 
ATOM     16  C   UNL     1       5.889   3.682  13.286  0.00  0.00    +0.000 A 
ATOM     17  C   UNL     1       5.326   3.388  14.527  0.00  0.00    +0.000 A 
ATOM     18  C   UNL     1       5.793   3.971  15.727  0.00  0.00    +0.000 A 
BRANCH  13  21
ATOM     19  C   UNL     1       7.874   7.807  17.861  0.00  0.00    +0.000 C 
ATOM     20  N   UNL     1       7.515   7.030  16.697  0.00  0.00    +0.000 N 
ATOM     21  C   UNL     1       7.449   5.657  16.781  0.00  0.00    +0.000 C 
ATOM     22  O   UNL     1       7.829   5.038  17.772  0.00  0.00    +0.000 OA
ATOM     23  H   UNL     1       7.026   7.485  15.934  0.00  0.00    +0.000 HD
ENDBRANCH  13  21
ENDBRANCH  11  18
ENDBRANCH   1  11
BRANCH   3  24
ATOM     24  N   UNL     1       2.845   7.693  17.930  0.00  0.00    +0.000 N 
ATOM     25  H   UNL     1       3.795   8.039  17.847  0.00  0.00    +0.000 HD
BRANCH  24  26
ATOM     26  C   UNL     1       2.013   8.634  18.568  0.00  0.00    +0.000 A 
ATOM     27  C   UNL     1       1.569   9.795  17.955  0.00  0.00    +0.000 A 
ATOM     28  C   UNL     1       0.840  10.753  18.676  0.00  0.00    +0.000 A 
ATOM     29  C   UNL     1       0.513  10.611  20.040  0.00  0.00    +0.000 A 
ATOM     30  C   UNL     1       0.951   9.420  20.659  0.00  0.00    +0.000 A 
ATOM     31  C   UNL     1       0.613   8.986  22.064  0.00  0.00    +0.000 C 
ATOM     32  C   UNL     1       1.715   8.476  19.925  0.00  0.00    +0.000 A 
BRANCH  29  33
ATOM     33  N   UNL     1      -0.193  11.615  20.680  0.00  0.00    +0.000 N 
ATOM     34  C   UNL     1      -1.668  11.655  20.709  0.00  0.00    +0.000 C 
ATOM     35  C   UNL     1      -2.188  12.985  20.139  0.00  0.00    +0.000 C 
ATOM     36  O   UNL     1      -1.608  14.111  20.822  0.00  0.00    +0.000 OA
ATOM     37  C   UNL     1      -0.182  14.093  20.661  0.00  0.00    +0.000 C 
ATOM     38  C   UNL     1       0.448  12.816  21.237  0.00  0.00    +0.000 C 
ENDBRANCH  29  33
ENDBRANCH  24  26
ENDBRANCH   3  24
TORSDOF 7
ENDMDL
MODEL 6
REMARK VINA RESULT:      -8.8      1.663      2.692
REMARK  Name = 
REMARK  9 active torsions:
REMARK  status: ('A' for Active; 'I' for Inactive)
REMARK    1  A    between atoms: C_1  and  N_2
REMARK    2  A    between atoms: C_3  and  C_5
REMARK    3  A    between atoms: C_10  and  N_11
REMARK    4  A    between atoms: N_11  and  C_12
REMARK    5  A    between atoms: C_14  and  N_15
REMARK    6  A    between atoms: N_15  and  C_16
REMARK    7  A    between atoms: C_19  and  N_20
REMARK    8  A    between atoms: C_26  and  C_27
REMARK    9  A    between atoms: C_31  and  C_32
REMARK                            x       y       z     vdW  Elec       q    Type
REMARK                         _______ _______ _______ _____ _____    ______ ____
ROOT
ATOM      1  C   UNL     1       4.092   4.090  19.218  0.00  0.00    +0.000 A 
ATOM      2  C   UNL     1       3.645   5.318  19.737  0.00  0.00    +0.000 A 
ATOM      3  C   UNL     1       2.361   5.459  20.257  0.00  0.00    +0.000 A 
ATOM      4  N   UNL     1       1.481   4.446  20.184  0.00  0.00    +0.000 NA
ATOM      5  C   UNL     1       1.897   3.276  19.648  0.00  0.00    +0.000 A 
ATOM      6  C   UNL     1       3.183   3.033  19.173  0.00  0.00    +0.000 A 
ENDROOT
BRANCH   6   7
ATOM      7  C   UNL     1       3.487   1.654  18.684  0.00  0.00    +0.000 C 
ATOM      8  F   UNL     1       3.904   1.609  17.387  0.00  0.00    +0.000 F 
ATOM      9  F   UNL     1       4.471   1.051  19.409  0.00  0.00    +0.000 F 
ATOM     10  F   UNL     1       2.410   0.826  18.756  0.00  0.00    +0.000 F 
ENDBRANCH   6   7
BRANCH   1  11
ATOM     11  N   UNL     1       5.459   3.956  18.854  0.00  0.00    +0.000 N 
ATOM     12  H   UNL     1       5.984   3.258  19.392  0.00  0.00    +0.000 HD
BRANCH  11  18
ATOM     13  C   UNL     1       6.437   5.436  17.105  0.00  0.00    +0.000 A 
ATOM     14  C   UNL     1       7.304   6.503  16.783  0.00  0.00    +0.000 A 
ATOM     15  C   UNL     1       8.056   7.152  17.760  0.00  0.00    +0.000 A 
ATOM     16  C   UNL     1       7.973   6.730  19.082  0.00  0.00    +0.000 A 
ATOM     17  C   UNL     1       7.129   5.669  19.410  0.00  0.00    +0.000 A 
ATOM     18  C   UNL     1       6.330   5.013  18.448  0.00  0.00    +0.000 A 
BRANCH  13  21
ATOM     19  C   UNL     1       5.809   3.829  13.726  0.00  0.00    +0.000 C 
ATOM     20  N   UNL     1       6.409   4.603  14.788  0.00  0.00    +0.000 N 
ATOM     21  C   UNL     1       5.701   4.850  15.943  0.00  0.00    +0.000 C 
ATOM     22  O   UNL     1       4.511   4.567  16.059  0.00  0.00    +0.000 OA
ATOM     23  H   UNL     1       7.418   4.695  14.819  0.00  0.00    +0.000 HD
ENDBRANCH  13  21
ENDBRANCH  11  18
ENDBRANCH   1  11
BRANCH   3  24
ATOM     24  N   UNL     1       2.052   6.683  20.893  0.00  0.00    +0.000 N 
ATOM     25  H   UNL     1       1.550   6.491  21.754  0.00  0.00    +0.000 HD
BRANCH  24  26
ATOM     26  C   UNL     1       1.638   7.902  20.323  0.00  0.00    +0.000 A 
ATOM     27  C   UNL     1       1.844   8.228  18.992  0.00  0.00    +0.000 A 
ATOM     28  C   UNL     1       1.516   9.503  18.506  0.00  0.00    +0.000 A 
ATOM     29  C   UNL     1       0.966  10.520  19.313  0.00  0.00    +0.000 A 
ATOM     30  C   UNL     1       0.740  10.181  20.665  0.00  0.00    +0.000 A 
ATOM     31  C   UNL     1       0.045  11.052  21.683  0.00  0.00    +0.000 C 
ATOM     32  C   UNL     1       1.107   8.899  21.148  0.00  0.00    +0.000 A 
BRANCH  29  33
ATOM     33  N   UNL     1       0.690  11.757  18.756  0.00  0.00    +0.000 N 
ATOM     34  C   UNL     1       1.730  12.782  18.540  0.00  0.00    +0.000 C 
ATOM     35  C   UNL     1       1.353  14.096  19.243  0.00  0.00    +0.000 C 
ATOM     36  O   UNL     1       0.054  14.557  18.834  0.00  0.00    +0.000 OA
ATOM     37  C   UNL     1      -0.938  13.578  19.175  0.00  0.00    +0.000 C 
ATOM     38  C   UNL     1      -0.678  12.228  18.490  0.00  0.00    +0.000 C 
ENDBRANCH  29  33
ENDBRANCH  24  26
ENDBRANCH   3  24
TORSDOF 7
ENDMDL
MODEL 7
REMARK VINA RESULT:      -8.7      1.658      2.241
REMARK  Name = 
REMARK  9 active torsions:
REMARK  status: ('A' for Active; 'I' for Inactive)
REMARK    1  A    between atoms: C_1  and  N_2
REMARK    2  A    between atoms: C_3  and  C_5
REMARK    3  A    between atoms: C_10  and  N_11
REMARK    4  A    between atoms: N_11  and  C_12
REMARK    5  A    between atoms: C_14  and  N_15
REMARK    6  A    between atoms: N_15  and  C_16
REMARK    7  A    between atoms: C_19  and  N_20
REMARK    8  A    between atoms: C_26  and  C_27
REMARK    9  A    between atoms: C_31  and  C_32
REMARK                            x       y       z     vdW  Elec       q    Type
REMARK                         _______ _______ _______ _____ _____    ______ ____
ROOT
ATOM      1  C   UNL     1       2.382   4.570  18.250  0.00  0.00    +0.000 A 
ATOM      2  C   UNL     1       2.473   5.883  18.743  0.00  0.00    +0.000 A 
ATOM      3  C   UNL     1       1.926   6.233  19.975  0.00  0.00    +0.000 A 
ATOM      4  N   UNL     1       1.209   5.341  20.681  0.00  0.00    +0.000 NA
ATOM      5  C   UNL     1       1.088   4.087  20.187  0.00  0.00    +0.000 A 
ATOM      6  C   UNL     1       1.663   3.641  19.002  0.00  0.00    +0.000 A 
ENDROOT
BRANCH   6   7
ATOM      7  C   UNL     1       1.487   2.198  18.651  0.00  0.00    +0.000 C 
ATOM      8  F   UNL     1       0.207   1.864  18.324  0.00  0.00    +0.000 F 
ATOM      9  F   UNL     1       2.250   1.826  17.586  0.00  0.00    +0.000 F 
ATOM     10  F   UNL     1       1.837   1.368  19.670  0.00  0.00    +0.000 F 
ENDBRANCH   6   7
BRANCH   1  11
ATOM     11  N   UNL     1       3.098   4.229  17.071  0.00  0.00    +0.000 N 
ATOM     12  H   UNL     1       2.817   3.345  16.633  0.00  0.00    +0.000 HD
BRANCH  11  18
ATOM     13  C   UNL     1       5.482   4.235  17.795  0.00  0.00    +0.000 A 
ATOM     14  C   UNL     1       6.834   4.481  17.473  0.00  0.00    +0.000 A 
ATOM     15  C   UNL     1       7.209   4.954  16.217  0.00  0.00    +0.000 A 
ATOM     16  C   UNL     1       6.233   5.212  15.262  0.00  0.00    +0.000 A 
ATOM     17  C   UNL     1       4.892   4.984  15.573  0.00  0.00    +0.000 A 
ATOM     18  C   UNL     1       4.484   4.474  16.826  0.00  0.00    +0.000 A 
BRANCH  13  21
ATOM     19  C   UNL     1       4.949   1.808  20.663  0.00  0.00    +0.000 C 
ATOM     20  N   UNL     1       4.953   2.393  19.342  0.00  0.00    +0.000 N 
ATOM     21  C   UNL     1       5.248   3.728  19.183  0.00  0.00    +0.000 C 
ATOM     22  O   UNL     1       5.365   4.495  20.136  0.00  0.00    +0.000 OA
ATOM     23  H   UNL     1       5.045   1.785  18.536  0.00  0.00    +0.000 HD
ENDBRANCH  13  21
ENDBRANCH  11  18
ENDBRANCH   1  11
BRANCH   3  24
ATOM     24  N   UNL     1       2.196   7.534  20.457  0.00  0.00    +0.000 N 
ATOM     25  H   UNL     1       2.768   7.465  21.293  0.00  0.00    +0.000 HD
BRANCH  24  26
ATOM     26  C   UNL     1       1.348   8.656  20.511  0.00  0.00    +0.000 A 
ATOM     27  C   UNL     1       1.198   9.548  19.461  0.00  0.00    +0.000 A 
ATOM     28  C   UNL     1       0.430  10.712  19.613  0.00  0.00    +0.000 A 
ATOM     29  C   UNL     1      -0.231  11.053  20.811  0.00  0.00    +0.000 A 
ATOM     30  C   UNL     1      -0.091  10.135  21.875  0.00  0.00    +0.000 A 
ATOM     31  C   UNL     1      -0.805  10.216  23.202  0.00  0.00    +0.000 C 
ATOM     32  C   UNL     1       0.715   8.979  21.716  0.00  0.00    +0.000 A 
BRANCH  29  33
ATOM     33  N   UNL     1      -0.952  12.232  20.880  0.00  0.00    +0.000 N 
ATOM     34  C   UNL     1      -0.425  13.452  21.523  0.00  0.00    +0.000 C 
ATOM     35  C   UNL     1      -1.378  13.939  22.627  0.00  0.00    +0.000 C 
ATOM     36  O   UNL     1      -2.710  14.134  22.123  0.00  0.00    +0.000 OA
ATOM     37  C   UNL     1      -3.224  12.892  21.619  0.00  0.00    +0.000 C 
ATOM     38  C   UNL     1      -2.363  12.333  20.476  0.00  0.00    +0.000 C 
ENDBRANCH  29  33
ENDBRANCH  24  26
ENDBRANCH   3  24
TORSDOF 7
ENDMDL
MODEL 8
REMARK VINA RESULT:      -8.7      1.233      1.754
REMARK  Name = 
REMARK  9 active torsions:
REMARK  status: ('A' for Active; 'I' for Inactive)
REMARK    1  A    between atoms: C_1  and  N_2
REMARK    2  A    between atoms: C_3  and  C_5
REMARK    3  A    between atoms: C_10  and  N_11
REMARK    4  A    between atoms: N_11  and  C_12
REMARK    5  A    between atoms: C_14  and  N_15
REMARK    6  A    between atoms: N_15  and  C_16
REMARK    7  A    between atoms: C_19  and  N_20
REMARK    8  A    between atoms: C_26  and  C_27
REMARK    9  A    between atoms: C_31  and  C_32
REMARK                            x       y       z     vdW  Elec       q    Type
REMARK                         _______ _______ _______ _____ _____    ______ ____
ROOT
ATOM      1  C   UNL     1       3.960   4.951  19.089  0.00  0.00    +0.000 A 
ATOM      2  C   UNL     1       3.530   6.252  18.776  0.00  0.00    +0.000 A 
ATOM      3  C   UNL     1       2.386   6.794  19.355  0.00  0.00    +0.000 A 
ATOM      4  N   UNL     1       1.607   6.046  20.156  0.00  0.00    +0.000 NA
ATOM      5  C   UNL     1       1.999   4.780  20.425  0.00  0.00    +0.000 A 
ATOM      6  C   UNL     1       3.164   4.190  19.945  0.00  0.00    +0.000 A 
ENDROOT
BRANCH   6   7
ATOM      7  C   UNL     1       3.476   2.804  20.409  0.00  0.00    +0.000 C 
ATOM      8  F   UNL     1       4.799   2.592  20.658  0.00  0.00    +0.000 F 
ATOM      9  F   UNL     1       2.828   2.484  21.564  0.00  0.00    +0.000 F 
ATOM     10  F   UNL     1       3.114   1.857  19.502  0.00  0.00    +0.000 F 
ENDBRANCH   6   7
BRANCH   1  11
ATOM     11  N   UNL     1       5.220   4.509  18.600  0.00  0.00    +0.000 N 
ATOM     12  H   UNL     1       6.003   4.632  19.249  0.00  0.00    +0.000 HD
BRANCH  11  18
ATOM     13  C   UNL     1       6.685   5.521  16.858  0.00  0.00    +0.000 A 
ATOM     14  C   UNL     1       7.105   5.548  15.511  0.00  0.00    +0.000 A 
ATOM     15  C   UNL     1       6.556   4.691  14.558  0.00  0.00    +0.000 A 
ATOM     16  C   UNL     1       5.554   3.804  14.932  0.00  0.00    +0.000 A 
ATOM     17  C   UNL     1       5.121   3.777  16.258  0.00  0.00    +0.000 A 
ATOM     18  C   UNL     1       5.682   4.609  17.252  0.00  0.00    +0.000 A 
BRANCH  13  21
ATOM     19  C   UNL     1       8.172   8.785  18.096  0.00  0.00    +0.000 C 
ATOM     20  N   UNL     1       7.720   7.726  17.224  0.00  0.00    +0.000 N 
ATOM     21  C   UNL     1       7.375   6.502  17.752  0.00  0.00    +0.000 C 
ATOM     22  O   UNL     1       7.574   6.212  18.929  0.00  0.00    +0.000 OA
ATOM     23  H   UNL     1       7.371   7.963  16.302  0.00  0.00    +0.000 HD
ENDBRANCH  13  21
ENDBRANCH  11  18
ENDBRANCH   1  11
BRANCH   3  24
ATOM     24  N   UNL     1       2.115   8.158  19.100  0.00  0.00    +0.000 N 
ATOM     25  H   UNL     1       2.959   8.604  18.756  0.00  0.00    +0.000 HD
BRANCH  24  26
ATOM     26  C   UNL     1       1.326   9.061  19.837  0.00  0.00    +0.000 A 
ATOM     27  C   UNL     1       0.791  10.220  19.298  0.00  0.00    +0.000 A 
ATOM     28  C   UNL     1       0.111  11.142  20.109  0.00  0.00    +0.000 A 
ATOM     29  C   UNL     1      -0.075  10.963  21.495  0.00  0.00    +0.000 A 
ATOM     30  C   UNL     1       0.455   9.773  22.041  0.00  0.00    +0.000 A 
ATOM     31  C   UNL     1       0.270   9.302  23.462  0.00  0.00    +0.000 C 
ATOM     32  C   UNL     1       1.168   8.867  21.213  0.00  0.00    +0.000 A 
BRANCH  29  33
ATOM     33  N   UNL     1      -0.742  11.933  22.223  0.00  0.00    +0.000 N 
ATOM     34  C   UNL     1      -1.994  11.657  22.956  0.00  0.00    +0.000 C 
ATOM     35  C   UNL     1      -3.111  12.610  22.501  0.00  0.00    +0.000 C 
ATOM     36  O   UNL     1      -2.711  13.986  22.624  0.00  0.00    +0.000 OA
ATOM     37  C   UNL     1      -1.563  14.232  21.800  0.00  0.00    +0.000 C 
ATOM     38  C   UNL     1      -0.366  13.354  22.197  0.00  0.00    +0.000 C 
ENDBRANCH  29  33
ENDBRANCH  24  26
ENDBRANCH   3  24
TORSDOF 7
ENDMDL
MODEL 9
REMARK VINA RESULT:      -8.6      4.805     10.326
REMARK  Name = 
REMARK  9 active torsions:
REMARK  status: ('A' for Active; 'I' for Inactive)
REMARK    1  A    between atoms: C_1  and  N_2
REMARK    2  A    between atoms: C_3  and  C_5
REMARK    3  A    between atoms: C_10  and  N_11
REMARK    4  A    between atoms: N_11  and  C_12
REMARK    5  A    between atoms: C_14  and  N_15
REMARK    6  A    between atoms: N_15  and  C_16
REMARK    7  A    between atoms: C_19  and  N_20
REMARK    8  A    between atoms: C_26  and  C_27
REMARK    9  A    between atoms: C_31  and  C_32
REMARK                            x       y       z     vdW  Elec       q    Type
REMARK                         _______ _______ _______ _____ _____    ______ ____
ROOT
ATOM      1  C   UNL     1      -0.663  12.032  19.234  0.00  0.00    +0.000 A 
ATOM      2  C   UNL     1      -0.330  10.721  19.618  0.00  0.00    +0.000 A 
ATOM      3  C   UNL     1       0.583  10.478  20.641  0.00  0.00    +0.000 A 
ATOM      4  N   UNL     1       1.245  11.494  21.221  0.00  0.00    +0.000 NA
ATOM      5  C   UNL     1       0.954  12.754  20.823  0.00  0.00    +0.000 A 
ATOM      6  C   UNL     1       0.004  13.084  19.861  0.00  0.00    +0.000 A 
ENDROOT
BRANCH   6   7
ATOM      7  C   UNL     1      -0.240  14.536  19.604  0.00  0.00    +0.000 C 
ATOM      8  F   UNL     1      -1.461  14.972  20.024  0.00  0.00    +0.000 F 
ATOM      9  F   UNL     1       0.671  15.335  20.226  0.00  0.00    +0.000 F 
ATOM     10  F   UNL     1      -0.170  14.849  18.281  0.00  0.00    +0.000 F 
ENDBRANCH   6   7
BRANCH   1  11
ATOM     11  N   UNL     1      -1.720  12.226  18.303  0.00  0.00    +0.000 N 
ATOM     12  H   UNL     1      -1.615  13.044  17.694  0.00  0.00    +0.000 HD
BRANCH  11  18
ATOM     13  C   UNL     1      -3.866  11.109  17.708  0.00  0.00    +0.000 A 
ATOM     14  C   UNL     1      -5.225  10.881  18.012  0.00  0.00    +0.000 A 
ATOM     15  C   UNL     1      -5.835  11.478  19.115  0.00  0.00    +0.000 A 
ATOM     16  C   UNL     1      -5.100  12.336  19.923  0.00  0.00    +0.000 A 
ATOM     17  C   UNL     1      -3.759  12.579  19.625  0.00  0.00    +0.000 A 
ATOM     18  C   UNL     1      -3.104  11.964  18.534  0.00  0.00    +0.000 A 
BRANCH  13  21
ATOM     19  C   UNL     1      -3.530  10.039  14.083  0.00  0.00    +0.000 C 
ATOM     20  N   UNL     1      -4.088  10.512  15.329  0.00  0.00    +0.000 N 
ATOM     21  C   UNL     1      -3.364  10.393  16.494  0.00  0.00    +0.000 C 
ATOM     22  O   UNL     1      -2.312   9.762  16.555  0.00  0.00    +0.000 OA
ATOM     23  H   UNL     1      -4.844  11.186  15.304  0.00  0.00    +0.000 HD
ENDBRANCH  13  21
ENDBRANCH  11  18
ENDBRANCH   1  11
BRANCH   3  24
ATOM     24  N   UNL     1       0.742   9.137  21.060  0.00  0.00    +0.000 N 
ATOM     25  H   UNL     1       0.892   9.120  22.063  0.00  0.00    +0.000 HD
BRANCH  24  26
ATOM     26  C   UNL     1       1.424   8.081  20.424  0.00  0.00    +0.000 A 
ATOM     27  C   UNL     1       2.057   8.213  19.199  0.00  0.00    +0.000 A 
ATOM     28  C   UNL     1       2.619   7.099  18.558  0.00  0.00    +0.000 A 
ATOM     29  C   UNL     1       2.583   5.796  19.098  0.00  0.00    +0.000 A 
ATOM     30  C   UNL     1       1.953   5.666  20.355  0.00  0.00    +0.000 A 
ATOM     31  C   UNL     1       1.906   4.407  21.186  0.00  0.00    +0.000 C 
ATOM     32  C   UNL     1       1.361   6.797  20.974  0.00  0.00    +0.000 A 
BRANCH  29  33
ATOM     33  N   UNL     1       3.146   4.749  18.388  0.00  0.00    +0.000 N 
ATOM     34  C   UNL     1       2.396   3.980  17.376  0.00  0.00    +0.000 C 
ATOM     35  C   UNL     1       2.408   2.480  17.714  0.00  0.00    +0.000 C 
ATOM     36  O   UNL     1       3.750   1.988  17.873  0.00  0.00    +0.000 OA
ATOM     37  C   UNL     1       4.397   2.685  18.949  0.00  0.00    +0.000 C 
ATOM     38  C   UNL     1       4.475   4.197  18.694  0.00  0.00    +0.000 C 
ENDBRANCH  29  33
ENDBRANCH  24  26
ENDBRANCH   3  24
TORSDOF 7
ENDMDL
