MODEL 1
REMARK VINA RESULT:      -5.2      0.000      0.000
REMARK  Name = 
REMARK  21 active torsions:
REMARK  status: ('A' for Active; 'I' for Inactive)
REMARK    1  A    between atoms: C_1  and  C_2
REMARK    2  A    between atoms: N_4  and  C_5
REMARK    3  A    between atoms: N_4  and  C_6
REMARK    4  A    between atoms: C_6  and  C_7
REMARK    5  A    between atoms: C_6  and  C_8
REMARK    6  A    between atoms: N_10  and  C_11
REMARK    7  A    between atoms: N_10  and  C_12
REMARK    8  A    between atoms: C_12  and  C_13
REMARK    9  A    between atoms: C_12  and  C_14
REMARK   10  A    between atoms: N_16  and  C_17
REMARK   11  A    between atoms: N_16  and  C_18
REMARK   12  A    between atoms: C_18  and  C_19
REMARK   13  A    between atoms: C_18  and  C_20
REMARK   14  A    between atoms: N_22  and  C_23
REMARK   15  A    between atoms: N_22  and  C_24
REMARK   16  A    between atoms: C_24  and  C_25
REMARK   17  A    between atoms: C_24  and  C_26
REMARK   18  A    between atoms: N_28  and  C_29
REMARK   19  A    between atoms: N_28  and  C_30
REMARK   20  A    between atoms: C_30  and  C_31
REMARK   21  A    between atoms: C_30  and  C_32
REMARK                            x       y       z     vdW  Elec       q    Type
REMARK                         _______ _______ _______ _____ _____    ______ ____
ROOT
ATOM      1  C   UNL     1       2.196  13.127  19.516  0.00  0.00    +0.000 C 
ATOM      2  C   UNL     1       2.016  12.158  18.342  0.00  0.00    +0.000 C 
ENDROOT
BRANCH   1   5
ATOM      3  C   UNL     1       0.256  12.844  21.050  0.00  0.00    +0.000 C 
ATOM      4  O   UNL     1       0.777  11.796  21.449  0.00  0.00    +0.000 OA
ATOM      5  N   UNL     1       0.876  13.604  20.044  0.00  0.00    +0.000 N 
ATOM      6  C   UNL     1       0.332  14.850  19.497  0.00  0.00    +0.000 C 
BRANCH   3   7
ATOM      7  C   UNL     1      -1.048  13.376  21.731  0.00  0.00    +0.000 C 
ATOM      8  C   UNL     1      -1.167  12.767  23.133  0.00  0.00    +0.000 C 
BRANCH   7  11
ATOM      9  C   UNL     1      -3.432  13.975  21.272  0.00  0.00    +0.000 C 
ATOM     10  O   UNL     1      -3.394  14.774  22.217  0.00  0.00    +0.000 OA
ATOM     11  N   UNL     1      -2.303  13.196  20.933  0.00  0.00    +0.000 N 
ATOM     12  C   UNL     1      -2.294  12.197  19.863  0.00  0.00    +0.000 C 
BRANCH   9  13
ATOM     13  C   UNL     1      -4.710  13.921  20.361  0.00  0.00    +0.000 C 
ATOM     14  C   UNL     1      -5.326  15.322  20.320  0.00  0.00    +0.000 C 
BRANCH  13  18
ATOM     15  C   UNL     1      -7.013  10.824  20.188  0.00  0.00    +0.000 C 
ATOM     16  C   UNL     1      -6.037  11.905  19.794  0.00  0.00    +0.000 C 
ATOM     17  O   UNL     1      -5.559  11.916  18.659  0.00  0.00    +0.000 OA
ATOM     18  N   UNL     1      -5.703  12.868  20.747  0.00  0.00    +0.000 N 
ATOM     19  C   UNL     1      -6.194  12.835  22.121  0.00  0.00    +0.000 C 
ENDBRANCH  13  18
ENDBRANCH   9  13
ENDBRANCH   7  11
ENDBRANCH   3   7
ENDBRANCH   1   5
BRANCH   1  20
ATOM     20  C   UNL     1       3.217  14.245  19.120  0.00  0.00    +0.000 C 
ATOM     21  O   UNL     1       3.277  14.646  17.952  0.00  0.00    +0.000 OA
ATOM     22  N   UNL     1       4.142  14.714  20.069  0.00  0.00    +0.000 N 
ATOM     23  C   UNL     1       4.101  14.406  21.497  0.00  0.00    +0.000 C 
BRANCH  22  24
ATOM     24  C   UNL     1       5.151  15.716  19.612  0.00  0.00    +0.000 C 
ATOM     25  C   UNL     1       4.902  17.083  20.258  0.00  0.00    +0.000 C 
BRANCH  24  26
ATOM     26  C   UNL     1       6.669  15.361  19.812  0.00  0.00    +0.000 C 
ATOM     27  O   UNL     1       7.264  15.760  20.820  0.00  0.00    +0.000 OA
ATOM     28  N   UNL     1       7.355  14.631  18.833  0.00  0.00    +0.000 N 
ATOM     29  C   UNL     1       6.733  14.144  17.601  0.00  0.00    +0.000 C 
BRANCH  28  30
ATOM     30  C   UNL     1       8.824  14.374  19.019  0.00  0.00    +0.000 C 
ATOM     31  C   UNL     1       9.147  12.890  19.250  0.00  0.00    +0.000 C 
BRANCH  30  32
ATOM     32  C   UNL     1       9.803  14.893  17.921  0.00  0.00    +0.000 C 
ATOM     33  N   UNL     1       9.489  16.061  17.275  0.00  0.00    +0.000 N 
ATOM     34  O   UNL     1      10.908  14.396  17.710  0.00  0.00    +0.000 OA
ATOM     35  H   UNL     1       8.823  16.697  17.683  0.00  0.00    +0.000 HD
ATOM     36  H   UNL     1      10.257  16.457  16.750  0.00  0.00    +0.000 HD
ENDBRANCH  30  32
ENDBRANCH  28  30
ENDBRANCH  24  26
ENDBRANCH  22  24
ENDBRANCH   1  20
TORSDOF 10
ENDMDL
MODEL 2
REMARK VINA RESULT:      -5.1      5.590      7.834
REMARK  Name = 
REMARK  21 active torsions:
REMARK  status: ('A' for Active; 'I' for Inactive)
REMARK    1  A    between atoms: C_1  and  C_2
REMARK    2  A    between atoms: N_4  and  C_5
REMARK    3  A    between atoms: N_4  and  C_6
REMARK    4  A    between atoms: C_6  and  C_7
REMARK    5  A    between atoms: C_6  and  C_8
REMARK    6  A    between atoms: N_10  and  C_11
REMARK    7  A    between atoms: N_10  and  C_12
REMARK    8  A    between atoms: C_12  and  C_13
REMARK    9  A    between atoms: C_12  and  C_14
REMARK   10  A    between atoms: N_16  and  C_17
REMARK   11  A    between atoms: N_16  and  C_18
REMARK   12  A    between atoms: C_18  and  C_19
REMARK   13  A    between atoms: C_18  and  C_20
REMARK   14  A    between atoms: N_22  and  C_23
REMARK   15  A    between atoms: N_22  and  C_24
REMARK   16  A    between atoms: C_24  and  C_25
REMARK   17  A    between atoms: C_24  and  C_26
REMARK   18  A    between atoms: N_28  and  C_29
REMARK   19  A    between atoms: N_28  and  C_30
REMARK   20  A    between atoms: C_30  and  C_31
REMARK   21  A    between atoms: C_30  and  C_32
REMARK                            x       y       z     vdW  Elec       q    Type
REMARK                         _______ _______ _______ _____ _____    ______ ____
ROOT
ATOM      1  C   UNL     1       1.344   9.404  20.906  0.00  0.00    +0.000 C 
ATOM      2  C   UNL     1       0.993   9.136  22.373  0.00  0.00    +0.000 C 
ENDROOT
BRANCH   1   5
ATOM      3  C   UNL     1       0.543  11.705  20.400  0.00  0.00    +0.000 C 
ATOM      4  O   UNL     1       1.486  12.138  21.072  0.00  0.00    +0.000 OA
ATOM      5  N   UNL     1       0.350  10.321  20.258  0.00  0.00    +0.000 N 
ATOM      6  C   UNL     1      -0.743   9.712  19.496  0.00  0.00    +0.000 C 
BRANCH   3   7
ATOM      7  C   UNL     1      -0.385  12.700  19.626  0.00  0.00    +0.000 C 
ATOM      8  C   UNL     1       0.428  13.395  18.529  0.00  0.00    +0.000 C 
BRANCH   7  11
ATOM      9  C   UNL     1      -2.223  13.217  21.242  0.00  0.00    +0.000 C 
ATOM     10  O   UNL     1      -2.580  12.033  21.185  0.00  0.00    +0.000 OA
ATOM     11  N   UNL     1      -1.124  13.681  20.484  0.00  0.00    +0.000 N 
ATOM     12  C   UNL     1      -0.679  15.075  20.463  0.00  0.00    +0.000 C 
BRANCH   9  13
ATOM     13  C   UNL     1      -2.920  14.183  22.263  0.00  0.00    +0.000 C 
ATOM     14  C   UNL     1      -2.867  13.532  23.649  0.00  0.00    +0.000 C 
BRANCH  13  18
ATOM     15  C   UNL     1      -6.760  14.176  21.848  0.00  0.00    +0.000 C 
ATOM     16  C   UNL     1      -5.359  13.746  22.206  0.00  0.00    +0.000 C 
ATOM     17  O   UNL     1      -5.174  12.668  22.774  0.00  0.00    +0.000 OA
ATOM     18  N   UNL     1      -4.306  14.600  21.878  0.00  0.00    +0.000 N 
ATOM     19  C   UNL     1      -4.503  15.914  21.275  0.00  0.00    +0.000 C 
ENDBRANCH  13  18
ENDBRANCH   9  13
ENDBRANCH   7  11
ENDBRANCH   3   7
ENDBRANCH   1   5
BRANCH   1  20
ATOM     20  C   UNL     1       1.598   8.045  20.172  0.00  0.00    +0.000 C 
ATOM     21  O   UNL     1       1.287   6.978  20.715  0.00  0.00    +0.000 OA
ATOM     22  N   UNL     1       2.280   8.031  18.943  0.00  0.00    +0.000 N 
ATOM     23  C   UNL     1       2.596   9.218  18.150  0.00  0.00    +0.000 C 
BRANCH  22  24
ATOM     24  C   UNL     1       2.573   6.700  18.331  0.00  0.00    +0.000 C 
ATOM     25  C   UNL     1       3.531   6.839  17.143  0.00  0.00    +0.000 C 
BRANCH  24  26
ATOM     26  C   UNL     1       3.138   5.576  19.273  0.00  0.00    +0.000 C 
ATOM     27  O   UNL     1       4.212   5.752  19.862  0.00  0.00    +0.000 OA
ATOM     28  N   UNL     1       2.449   4.365  19.414  0.00  0.00    +0.000 N 
ATOM     29  C   UNL     1       1.188   4.067  18.734  0.00  0.00    +0.000 C 
BRANCH  28  30
ATOM     30  C   UNL     1       3.054   3.282  20.262  0.00  0.00    +0.000 C 
ATOM     31  C   UNL     1       2.025   2.575  21.155  0.00  0.00    +0.000 C 
BRANCH  30  32
ATOM     32  C   UNL     1       3.887   2.172  19.549  0.00  0.00    +0.000 C 
ATOM     33  N   UNL     1       5.159   1.929  20.000  0.00  0.00    +0.000 N 
ATOM     34  O   UNL     1       3.416   1.406  18.710  0.00  0.00    +0.000 OA
ATOM     35  H   UNL     1       5.434   2.240  20.917  0.00  0.00    +0.000 HD
ATOM     36  H   UNL     1       5.555   1.064  19.658  0.00  0.00    +0.000 HD
ENDBRANCH  30  32
ENDBRANCH  28  30
ENDBRANCH  24  26
ENDBRANCH  22  24
ENDBRANCH   1  20
TORSDOF 10
ENDMDL
MODEL 3
REMARK VINA RESULT:      -5.1      5.386      7.698
REMARK  Name = 
REMARK  21 active torsions:
REMARK  status: ('A' for Active; 'I' for Inactive)
REMARK    1  A    between atoms: C_1  and  C_2
REMARK    2  A    between atoms: N_4  and  C_5
REMARK    3  A    between atoms: N_4  and  C_6
REMARK    4  A    between atoms: C_6  and  C_7
REMARK    5  A    between atoms: C_6  and  C_8
REMARK    6  A    between atoms: N_10  and  C_11
REMARK    7  A    between atoms: N_10  and  C_12
REMARK    8  A    between atoms: C_12  and  C_13
REMARK    9  A    between atoms: C_12  and  C_14
REMARK   10  A    between atoms: N_16  and  C_17
REMARK   11  A    between atoms: N_16  and  C_18
REMARK   12  A    between atoms: C_18  and  C_19
REMARK   13  A    between atoms: C_18  and  C_20
REMARK   14  A    between atoms: N_22  and  C_23
REMARK   15  A    between atoms: N_22  and  C_24
REMARK   16  A    between atoms: C_24  and  C_25
REMARK   17  A    between atoms: C_24  and  C_26
REMARK   18  A    between atoms: N_28  and  C_29
REMARK   19  A    between atoms: N_28  and  C_30
REMARK   20  A    between atoms: C_30  and  C_31
REMARK   21  A    between atoms: C_30  and  C_32
REMARK                            x       y       z     vdW  Elec       q    Type
REMARK                         _______ _______ _______ _____ _____    ______ ____
ROOT
ATOM      1  C   UNL     1       1.074   9.598  20.957  0.00  0.00    +0.000 C 
ATOM      2  C   UNL     1       0.595   9.238  22.368  0.00  0.00    +0.000 C 
ENDROOT
BRANCH   1   5
ATOM      3  C   UNL     1       0.428  11.948  20.452  0.00  0.00    +0.000 C 
ATOM      4  O   UNL     1       1.380  12.316  21.149  0.00  0.00    +0.000 OA
ATOM      5  N   UNL     1       0.153  10.579  20.295  0.00  0.00    +0.000 N 
ATOM      6  C   UNL     1      -0.958  10.045  19.503  0.00  0.00    +0.000 C 
BRANCH   3   7
ATOM      7  C   UNL     1      -0.418  13.003  19.666  0.00  0.00    +0.000 C 
ATOM      8  C   UNL     1       0.429  13.578  18.526  0.00  0.00    +0.000 C 
BRANCH   7  11
ATOM      9  C   UNL     1      -2.263  13.810  21.151  0.00  0.00    +0.000 C 
ATOM     10  O   UNL     1      -2.828  12.718  21.011  0.00  0.00    +0.000 OA
ATOM     11  N   UNL     1      -1.034  14.080  20.506  0.00  0.00    +0.000 N 
ATOM     12  C   UNL     1      -0.337  15.365  20.585  0.00  0.00    +0.000 C 
BRANCH   9  13
ATOM     13  C   UNL     1      -2.854  14.861  22.156  0.00  0.00    +0.000 C 
ATOM     14  C   UNL     1      -2.625  14.340  23.579  0.00  0.00    +0.000 C 
BRANCH  13  18
ATOM     15  C   UNL     1      -5.987  16.547  20.652  0.00  0.00    +0.000 C 
ATOM     16  C   UNL     1      -4.547  16.197  20.934  0.00  0.00    +0.000 C 
ATOM     17  O   UNL     1      -3.645  16.763  20.314  0.00  0.00    +0.000 OA
ATOM     18  N   UNL     1      -4.284  15.227  21.902  0.00  0.00    +0.000 N 
ATOM     19  C   UNL     1      -5.333  14.487  22.595  0.00  0.00    +0.000 C 
ENDBRANCH  13  18
ENDBRANCH   9  13
ENDBRANCH   7  11
ENDBRANCH   3   7
ENDBRANCH   1   5
BRANCH   1  20
ATOM     20  C   UNL     1       1.366   8.287  20.153  0.00  0.00    +0.000 C 
ATOM     21  O   UNL     1       1.021   7.190  20.608  0.00  0.00    +0.000 OA
ATOM     22  N   UNL     1       2.119   8.347  18.968  0.00  0.00    +0.000 N 
ATOM     23  C   UNL     1       2.484   9.580  18.273  0.00  0.00    +0.000 C 
BRANCH  22  24
ATOM     24  C   UNL     1       2.444   7.057  18.290  0.00  0.00    +0.000 C 
ATOM     25  C   UNL     1       3.526   7.252  17.222  0.00  0.00    +0.000 C 
BRANCH  24  26
ATOM     26  C   UNL     1       2.877   5.848  19.197  0.00  0.00    +0.000 C 
ATOM     27  O   UNL     1       3.713   6.023  20.093  0.00  0.00    +0.000 OA
ATOM     28  N   UNL     1       2.351   4.571  18.966  0.00  0.00    +0.000 N 
ATOM     29  C   UNL     1       1.380   4.274  17.913  0.00  0.00    +0.000 C 
BRANCH  28  30
ATOM     30  C   UNL     1       2.843   3.424  19.802  0.00  0.00    +0.000 C 
ATOM     31  C   UNL     1       1.768   2.354  20.043  0.00  0.00    +0.000 C 
BRANCH  30  32
ATOM     32  C   UNL     1       4.136   2.682  19.340  0.00  0.00    +0.000 C 
ATOM     33  N   UNL     1       3.994   1.532  18.607  0.00  0.00    +0.000 N 
ATOM     34  O   UNL     1       5.266   3.149  19.467  0.00  0.00    +0.000 OA
ATOM     35  H   UNL     1       3.121   1.335  18.146  0.00  0.00    +0.000 HD
ATOM     36  H   UNL     1       4.844   1.229  18.153  0.00  0.00    +0.000 HD
ENDBRANCH  30  32
ENDBRANCH  28  30
ENDBRANCH  24  26
ENDBRANCH  22  24
ENDBRANCH   1  20
TORSDOF 10
ENDMDL
MODEL 4
REMARK VINA RESULT:      -5.1      1.996      3.367
REMARK  Name = 
REMARK  21 active torsions:
REMARK  status: ('A' for Active; 'I' for Inactive)
REMARK    1  A    between atoms: C_1  and  C_2
REMARK    2  A    between atoms: N_4  and  C_5
REMARK    3  A    between atoms: N_4  and  C_6
REMARK    4  A    between atoms: C_6  and  C_7
REMARK    5  A    between atoms: C_6  and  C_8
REMARK    6  A    between atoms: N_10  and  C_11
REMARK    7  A    between atoms: N_10  and  C_12
REMARK    8  A    between atoms: C_12  and  C_13
REMARK    9  A    between atoms: C_12  and  C_14
REMARK   10  A    between atoms: N_16  and  C_17
REMARK   11  A    between atoms: N_16  and  C_18
REMARK   12  A    between atoms: C_18  and  C_19
REMARK   13  A    between atoms: C_18  and  C_20
REMARK   14  A    between atoms: N_22  and  C_23
REMARK   15  A    between atoms: N_22  and  C_24
REMARK   16  A    between atoms: C_24  and  C_25
REMARK   17  A    between atoms: C_24  and  C_26
REMARK   18  A    between atoms: N_28  and  C_29
REMARK   19  A    between atoms: N_28  and  C_30
REMARK   20  A    between atoms: C_30  and  C_31
REMARK   21  A    between atoms: C_30  and  C_32
REMARK                            x       y       z     vdW  Elec       q    Type
REMARK                         _______ _______ _______ _____ _____    ______ ____
ROOT
ATOM      1  C   UNL     1       4.219  15.146  20.886  0.00  0.00    +0.000 C 
ATOM      2  C   UNL     1       4.728  14.205  21.983  0.00  0.00    +0.000 C 
ENDROOT
BRANCH   1   5
ATOM      3  C   UNL     1       1.889  15.843  20.356  0.00  0.00    +0.000 C 
ATOM      4  O   UNL     1       2.215  17.002  20.639  0.00  0.00    +0.000 OA
ATOM      5  N   UNL     1       2.822  14.798  20.465  0.00  0.00    +0.000 N 
ATOM      6  C   UNL     1       2.530  13.394  20.166  0.00  0.00    +0.000 C 
BRANCH   3   7
ATOM      7  C   UNL     1       0.462  15.551  19.786  0.00  0.00    +0.000 C 
ATOM      8  C   UNL     1       0.214  16.448  18.568  0.00  0.00    +0.000 C 
BRANCH   7  11
ATOM      9  C   UNL     1      -1.070  14.451  21.429  0.00  0.00    +0.000 C 
ATOM     10  O   UNL     1      -0.540  13.363  21.166  0.00  0.00    +0.000 OA
ATOM     11  N   UNL     1      -0.653  15.637  20.782  0.00  0.00    +0.000 N 
ATOM     12  C   UNL     1      -1.269  16.946  21.005  0.00  0.00    +0.000 C 
BRANCH   9  13
ATOM     13  C   UNL     1      -2.128  14.533  22.585  0.00  0.00    +0.000 C 
ATOM     14  C   UNL     1      -1.381  14.474  23.921  0.00  0.00    +0.000 C 
BRANCH  13  18
ATOM     15  C   UNL     1      -5.367  12.731  21.495  0.00  0.00    +0.000 C 
ATOM     16  C   UNL     1      -4.275  13.766  21.612  0.00  0.00    +0.000 C 
ATOM     17  O   UNL     1      -4.329  14.794  20.934  0.00  0.00    +0.000 OA
ATOM     18  N   UNL     1      -3.225  13.517  22.496  0.00  0.00    +0.000 N 
ATOM     19  C   UNL     1      -3.096  12.276  23.252  0.00  0.00    +0.000 C 
ENDBRANCH  13  18
ENDBRANCH   9  13
ENDBRANCH   7  11
ENDBRANCH   3   7
ENDBRANCH   1   5
BRANCH   1  20
ATOM     20  C   UNL     1       5.277  15.230  19.736  0.00  0.00    +0.000 C 
ATOM     21  O   UNL     1       5.085  14.634  18.670  0.00  0.00    +0.000 OA
ATOM     22  N   UNL     1       6.497  15.893  19.956  0.00  0.00    +0.000 N 
ATOM     23  C   UNL     1       6.796  16.726  21.120  0.00  0.00    +0.000 C 
BRANCH  22  24
ATOM     24  C   UNL     1       7.506  15.866  18.855  0.00  0.00    +0.000 C 
ATOM     25  C   UNL     1       7.883  17.285  18.417  0.00  0.00    +0.000 C 
BRANCH  24  26
ATOM     26  C   UNL     1       8.839  15.073  19.110  0.00  0.00    +0.000 C 
ATOM     27  O   UNL     1       9.723  15.571  19.818  0.00  0.00    +0.000 OA
ATOM     28  N   UNL     1       9.042  13.826  18.506  0.00  0.00    +0.000 N 
ATOM     29  C   UNL     1       8.060  13.178  17.636  0.00  0.00    +0.000 C 
BRANCH  28  30
ATOM     30  C   UNL     1      10.357  13.129  18.710  0.00  0.00    +0.000 C 
ATOM     31  C   UNL     1      10.198  11.671  19.165  0.00  0.00    +0.000 C 
BRANCH  30  32
ATOM     32  C   UNL     1      11.380  13.135  17.532  0.00  0.00    +0.000 C 
ATOM     33  N   UNL     1      12.040  11.968  17.243  0.00  0.00    +0.000 N 
ATOM     34  O   UNL     1      11.516  14.082  16.759  0.00  0.00    +0.000 OA
ATOM     35  H   UNL     1      11.675  11.090  17.575  0.00  0.00    +0.000 HD
ATOM     36  H   UNL     1      12.507  11.974  16.346  0.00  0.00    +0.000 HD
ENDBRANCH  30  32
ENDBRANCH  28  30
ENDBRANCH  24  26
ENDBRANCH  22  24
ENDBRANCH   1  20
TORSDOF 10
ENDMDL
MODEL 5
REMARK VINA RESULT:      -5.1      2.727     11.200
REMARK  Name = 
REMARK  21 active torsions:
REMARK  status: ('A' for Active; 'I' for Inactive)
REMARK    1  A    between atoms: C_1  and  C_2
REMARK    2  A    between atoms: N_4  and  C_5
REMARK    3  A    between atoms: N_4  and  C_6
REMARK    4  A    between atoms: C_6  and  C_7
REMARK    5  A    between atoms: C_6  and  C_8
REMARK    6  A    between atoms: N_10  and  C_11
REMARK    7  A    between atoms: N_10  and  C_12
REMARK    8  A    between atoms: C_12  and  C_13
REMARK    9  A    between atoms: C_12  and  C_14
REMARK   10  A    between atoms: N_16  and  C_17
REMARK   11  A    between atoms: N_16  and  C_18
REMARK   12  A    between atoms: C_18  and  C_19
REMARK   13  A    between atoms: C_18  and  C_20
REMARK   14  A    between atoms: N_22  and  C_23
REMARK   15  A    between atoms: N_22  and  C_24
REMARK   16  A    between atoms: C_24  and  C_25
REMARK   17  A    between atoms: C_24  and  C_26
REMARK   18  A    between atoms: N_28  and  C_29
REMARK   19  A    between atoms: N_28  and  C_30
REMARK   20  A    between atoms: C_30  and  C_31
REMARK   21  A    between atoms: C_30  and  C_32
REMARK                            x       y       z     vdW  Elec       q    Type
REMARK                         _______ _______ _______ _____ _____    ______ ____
ROOT
ATOM      1  C   UNL     1       2.446  14.462  20.137  0.00  0.00    +0.000 C 
ATOM      2  C   UNL     1       2.177  12.993  19.793  0.00  0.00    +0.000 C 
ENDROOT
BRANCH   1   5
ATOM      3  C   UNL     1       4.627  15.360  19.341  0.00  0.00    +0.000 C 
ATOM      4  O   UNL     1       4.068  15.663  18.281  0.00  0.00    +0.000 OA
ATOM      5  N   UNL     1       3.907  14.717  20.362  0.00  0.00    +0.000 N 
ATOM      6  C   UNL     1       4.482  14.306  21.646  0.00  0.00    +0.000 C 
BRANCH   3   7
ATOM      7  C   UNL     1       6.116  15.774  19.585  0.00  0.00    +0.000 C 
ATOM      8  C   UNL     1       6.367  17.145  18.947  0.00  0.00    +0.000 C 
BRANCH   7  11
ATOM      9  C   UNL     1       8.092  14.335  20.112  0.00  0.00    +0.000 C 
ATOM     10  O   UNL     1       8.099  14.797  21.260  0.00  0.00    +0.000 OA
ATOM     11  N   UNL     1       7.137  14.763  19.162  0.00  0.00    +0.000 N 
ATOM     12  C   UNL     1       7.102  14.298  17.775  0.00  0.00    +0.000 C 
BRANCH   9  13
ATOM     13  C   UNL     1       9.076  13.168  19.746  0.00  0.00    +0.000 C 
ATOM     14  C   UNL     1       9.540  12.509  21.048  0.00  0.00    +0.000 C 
BRANCH  13  18
ATOM     15  C   UNL     1      11.721  13.125  16.930  0.00  0.00    +0.000 C 
ATOM     16  C   UNL     1      10.589  12.708  17.837  0.00  0.00    +0.000 C 
ATOM     17  O   UNL     1      10.021  11.630  17.653  0.00  0.00    +0.000 OA
ATOM     18  N   UNL     1      10.220  13.573  18.868  0.00  0.00    +0.000 N 
ATOM     19  C   UNL     1      10.824  14.887  19.061  0.00  0.00    +0.000 C 
ENDBRANCH  13  18
ENDBRANCH   9  13
ENDBRANCH   7  11
ENDBRANCH   3   7
ENDBRANCH   1   5
BRANCH   1  20
ATOM     20  C   UNL     1       1.489  14.912  21.291  0.00  0.00    +0.000 C 
ATOM     21  O   UNL     1       1.188  14.121  22.192  0.00  0.00    +0.000 OA
ATOM     22  N   UNL     1       0.885  16.180  21.242  0.00  0.00    +0.000 N 
ATOM     23  C   UNL     1       1.243  17.240  20.301  0.00  0.00    +0.000 C 
BRANCH  22  24
ATOM     24  C   UNL     1      -0.088  16.523  22.322  0.00  0.00    +0.000 C 
ATOM     25  C   UNL     1      -0.199  18.041  22.503  0.00  0.00    +0.000 C 
BRANCH  24  26
ATOM     26  C   UNL     1      -1.545  15.947  22.197  0.00  0.00    +0.000 C 
ATOM     27  O   UNL     1      -2.173  16.094  21.141  0.00  0.00    +0.000 OA
ATOM     28  N   UNL     1      -2.144  15.307  23.289  0.00  0.00    +0.000 N 
ATOM     29  C   UNL     1      -1.481  15.115  24.579  0.00  0.00    +0.000 C 
BRANCH  28  30
ATOM     30  C   UNL     1      -3.565  14.835  23.160  0.00  0.00    +0.000 C 
ATOM     31  C   UNL     1      -3.885  13.642  24.072  0.00  0.00    +0.000 C 
BRANCH  30  32
ATOM     32  C   UNL     1      -4.705  15.882  23.354  0.00  0.00    +0.000 C 
ATOM     33  N   UNL     1      -5.102  16.614  22.265  0.00  0.00    +0.000 N 
ATOM     34  O   UNL     1      -5.365  15.981  24.388  0.00  0.00    +0.000 OA
ATOM     35  H   UNL     1      -4.879  16.294  21.337  0.00  0.00    +0.000 HD
ATOM     36  H   UNL     1      -5.978  17.101  22.397  0.00  0.00    +0.000 HD
ENDBRANCH  30  32
ENDBRANCH  28  30
ENDBRANCH  24  26
ENDBRANCH  22  24
ENDBRANCH   1  20
TORSDOF 10
ENDMDL
MODEL 6
REMARK VINA RESULT:      -5.0      5.814      9.298
REMARK  Name = 
REMARK  21 active torsions:
REMARK  status: ('A' for Active; 'I' for Inactive)
REMARK    1  A    between atoms: C_1  and  C_2
REMARK    2  A    between atoms: N_4  and  C_5
REMARK    3  A    between atoms: N_4  and  C_6
REMARK    4  A    between atoms: C_6  and  C_7
REMARK    5  A    between atoms: C_6  and  C_8
REMARK    6  A    between atoms: N_10  and  C_11
REMARK    7  A    between atoms: N_10  and  C_12
REMARK    8  A    between atoms: C_12  and  C_13
REMARK    9  A    between atoms: C_12  and  C_14
REMARK   10  A    between atoms: N_16  and  C_17
REMARK   11  A    between atoms: N_16  and  C_18
REMARK   12  A    between atoms: C_18  and  C_19
REMARK   13  A    between atoms: C_18  and  C_20
REMARK   14  A    between atoms: N_22  and  C_23
REMARK   15  A    between atoms: N_22  and  C_24
REMARK   16  A    between atoms: C_24  and  C_25
REMARK   17  A    between atoms: C_24  and  C_26
REMARK   18  A    between atoms: N_28  and  C_29
REMARK   19  A    between atoms: N_28  and  C_30
REMARK   20  A    between atoms: C_30  and  C_31
REMARK   21  A    between atoms: C_30  and  C_32
REMARK                            x       y       z     vdW  Elec       q    Type
REMARK                         _______ _______ _______ _____ _____    ______ ____
ROOT
ATOM      1  C   UNL     1       0.522  10.383  19.093  0.00  0.00    +0.000 C 
ATOM      2  C   UNL     1      -0.977  10.090  19.223  0.00  0.00    +0.000 C 
ENDROOT
BRANCH   1   5
ATOM      3  C   UNL     1       2.077   8.665  18.184  0.00  0.00    +0.000 C 
ATOM      4  O   UNL     1       2.005   9.237  17.090  0.00  0.00    +0.000 OA
ATOM      5  N   UNL     1       1.344   9.143  19.283  0.00  0.00    +0.000 N 
ATOM      6  C   UNL     1       1.353   8.529  20.613  0.00  0.00    +0.000 C 
BRANCH   3   7
ATOM      7  C   UNL     1       3.059   7.461  18.372  0.00  0.00    +0.000 C 
ATOM      8  C   UNL     1       4.103   7.485  17.250  0.00  0.00    +0.000 C 
BRANCH   7  11
ATOM      9  C   UNL     1       2.928   5.205  19.445  0.00  0.00    +0.000 C 
ATOM     10  O   UNL     1       3.915   5.497  20.134  0.00  0.00    +0.000 OA
ATOM     11  N   UNL     1       2.405   6.120  18.502  0.00  0.00    +0.000 N 
ATOM     12  C   UNL     1       1.276   5.823  17.620  0.00  0.00    +0.000 C 
BRANCH   9  13
ATOM     13  C   UNL     1       2.175   3.855  19.711  0.00  0.00    +0.000 C 
ATOM     14  C   UNL     1       1.442   3.974  21.052  0.00  0.00    +0.000 C 
BRANCH  13  18
ATOM     15  C   UNL     1       4.081   0.801  18.310  0.00  0.00    +0.000 C 
ATOM     16  C   UNL     1       3.185   2.012  18.397  0.00  0.00    +0.000 C 
ATOM     17  O   UNL     1       2.607   2.422  17.388  0.00  0.00    +0.000 OA
ATOM     18  N   UNL     1       3.041   2.635  19.637  0.00  0.00    +0.000 N 
ATOM     19  C   UNL     1       3.771   2.218  20.829  0.00  0.00    +0.000 C 
ENDBRANCH  13  18
ENDBRANCH   9  13
ENDBRANCH   7  11
ENDBRANCH   3   7
ENDBRANCH   1   5
BRANCH   1  20
ATOM     20  C   UNL     1       0.898  11.599  20.003  0.00  0.00    +0.000 C 
ATOM     21  O   UNL     1       0.407  11.704  21.133  0.00  0.00    +0.000 OA
ATOM     22  N   UNL     1       1.709  12.628  19.494  0.00  0.00    +0.000 N 
ATOM     23  C   UNL     1       2.437  12.568  18.228  0.00  0.00    +0.000 C 
BRANCH  22  24
ATOM     24  C   UNL     1       1.962  13.806  20.375  0.00  0.00    +0.000 C 
ATOM     25  C   UNL     1       3.435  14.229  20.320  0.00  0.00    +0.000 C 
BRANCH  24  26
ATOM     26  C   UNL     1       1.086  15.090  20.143  0.00  0.00    +0.000 C 
ATOM     27  O   UNL     1       1.120  15.665  19.048  0.00  0.00    +0.000 OA
ATOM     28  N   UNL     1       0.302  15.604  21.183  0.00  0.00    +0.000 N 
ATOM     29  C   UNL     1       0.224  15.000  22.514  0.00  0.00    +0.000 C 
BRANCH  28  30
ATOM     30  C   UNL     1      -0.466  16.875  20.951  0.00  0.00    +0.000 C 
ATOM     31  C   UNL     1       0.426  18.038  20.492  0.00  0.00    +0.000 C 
BRANCH  30  32
ATOM     32  C   UNL     1      -1.691  16.825  19.986  0.00  0.00    +0.000 C 
ATOM     33  N   UNL     1      -1.490  17.151  18.670  0.00  0.00    +0.000 N 
ATOM     34  O   UNL     1      -2.787  16.369  20.307  0.00  0.00    +0.000 OA
ATOM     35  H   UNL     1      -0.559  17.138  18.286  0.00  0.00    +0.000 HD
ATOM     36  H   UNL     1      -2.252  16.885  18.062  0.00  0.00    +0.000 HD
ENDBRANCH  30  32
ENDBRANCH  28  30
ENDBRANCH  24  26
ENDBRANCH  22  24
ENDBRANCH   1  20
TORSDOF 10
ENDMDL
MODEL 7
REMARK VINA RESULT:      -5.0      5.486      7.629
REMARK  Name = 
REMARK  21 active torsions:
REMARK  status: ('A' for Active; 'I' for Inactive)
REMARK    1  A    between atoms: C_1  and  C_2
REMARK    2  A    between atoms: N_4  and  C_5
REMARK    3  A    between atoms: N_4  and  C_6
REMARK    4  A    between atoms: C_6  and  C_7
REMARK    5  A    between atoms: C_6  and  C_8
REMARK    6  A    between atoms: N_10  and  C_11
REMARK    7  A    between atoms: N_10  and  C_12
REMARK    8  A    between atoms: C_12  and  C_13
REMARK    9  A    between atoms: C_12  and  C_14
REMARK   10  A    between atoms: N_16  and  C_17
REMARK   11  A    between atoms: N_16  and  C_18
REMARK   12  A    between atoms: C_18  and  C_19
REMARK   13  A    between atoms: C_18  and  C_20
REMARK   14  A    between atoms: N_22  and  C_23
REMARK   15  A    between atoms: N_22  and  C_24
REMARK   16  A    between atoms: C_24  and  C_25
REMARK   17  A    between atoms: C_24  and  C_26
REMARK   18  A    between atoms: N_28  and  C_29
REMARK   19  A    between atoms: N_28  and  C_30
REMARK   20  A    between atoms: C_30  and  C_31
REMARK   21  A    between atoms: C_30  and  C_32
REMARK                            x       y       z     vdW  Elec       q    Type
REMARK                         _______ _______ _______ _____ _____    ______ ____
ROOT
ATOM      1  C   UNL     1       1.208   9.495  20.968  0.00  0.00    +0.000 C 
ATOM      2  C   UNL     1       0.792   9.266  22.425  0.00  0.00    +0.000 C 
ENDROOT
BRANCH   1   5
ATOM      3  C   UNL     1       0.421  11.767  20.326  0.00  0.00    +0.000 C 
ATOM      4  O   UNL     1       1.344  12.234  21.003  0.00  0.00    +0.000 OA
ATOM      5  N   UNL     1       0.232  10.377  20.248  0.00  0.00    +0.000 N 
ATOM      6  C   UNL     1      -0.838   9.730  19.485  0.00  0.00    +0.000 C 
BRANCH   3   7
ATOM      7  C   UNL     1      -0.484  12.721  19.478  0.00  0.00    +0.000 C 
ATOM      8  C   UNL     1       0.360  13.895  18.970  0.00  0.00    +0.000 C 
BRANCH   7  11
ATOM      9  C   UNL     1      -1.640  14.224  21.109  0.00  0.00    +0.000 C 
ATOM     10  O   UNL     1      -0.545  14.730  21.390  0.00  0.00    +0.000 OA
ATOM     11  N   UNL     1      -1.737  13.183  20.158  0.00  0.00    +0.000 N 
ATOM     12  C   UNL     1      -2.988  12.505  19.816  0.00  0.00    +0.000 C 
BRANCH   9  13
ATOM     13  C   UNL     1      -2.950  14.832  21.724  0.00  0.00    +0.000 C 
ATOM     14  C   UNL     1      -2.654  16.275  22.144  0.00  0.00    +0.000 C 
BRANCH  13  18
ATOM     15  C   UNL     1      -5.540  13.003  23.929  0.00  0.00    +0.000 C 
ATOM     16  C   UNL     1      -4.934  13.843  22.833  0.00  0.00    +0.000 C 
ATOM     17  O   UNL     1      -5.659  14.345  21.972  0.00  0.00    +0.000 OA
ATOM     18  N   UNL     1      -3.550  14.023  22.832  0.00  0.00    +0.000 N 
ATOM     19  C   UNL     1      -2.661  13.379  23.793  0.00  0.00    +0.000 C 
ENDBRANCH  13  18
ENDBRANCH   9  13
ENDBRANCH   7  11
ENDBRANCH   3   7
ENDBRANCH   1   5
BRANCH   1  20
ATOM     20  C   UNL     1       1.514   8.118  20.289  0.00  0.00    +0.000 C 
ATOM     21  O   UNL     1       1.241   7.063  20.873  0.00  0.00    +0.000 OA
ATOM     22  N   UNL     1       2.200   8.081  19.063  0.00  0.00    +0.000 N 
ATOM     23  C   UNL     1       2.475   9.247  18.225  0.00  0.00    +0.000 C 
BRANCH  22  24
ATOM     24  C   UNL     1       2.544   6.740  18.504  0.00  0.00    +0.000 C 
ATOM     25  C   UNL     1       3.401   6.872  17.240  0.00  0.00    +0.000 C 
BRANCH  24  26
ATOM     26  C   UNL     1       3.256   5.715  19.461  0.00  0.00    +0.000 C 
ATOM     27  O   UNL     1       4.355   5.998  19.952  0.00  0.00    +0.000 OA
ATOM     28  N   UNL     1       2.667   4.472  19.722  0.00  0.00    +0.000 N 
ATOM     29  C   UNL     1       1.383   4.050  19.162  0.00  0.00    +0.000 C 
BRANCH  28  30
ATOM     30  C   UNL     1       3.408   3.486  20.580  0.00  0.00    +0.000 C 
ATOM     31  C   UNL     1       2.475   2.543  21.353  0.00  0.00    +0.000 C 
BRANCH  30  32
ATOM     32  C   UNL     1       4.500   2.601  19.903  0.00  0.00    +0.000 C 
ATOM     33  N   UNL     1       5.134   3.095  18.792  0.00  0.00    +0.000 N 
ATOM     34  O   UNL     1       4.926   1.557  20.394  0.00  0.00    +0.000 OA
ATOM     35  H   UNL     1       5.108   4.082  18.597  0.00  0.00    +0.000 HD
ATOM     36  H   UNL     1       5.971   2.587  18.539  0.00  0.00    +0.000 HD
ENDBRANCH  30  32
ENDBRANCH  28  30
ENDBRANCH  24  26
ENDBRANCH  22  24
ENDBRANCH   1  20
TORSDOF 10
ENDMDL
MODEL 8
REMARK VINA RESULT:      -5.0      5.211      6.748
REMARK  Name = 
REMARK  21 active torsions:
REMARK  status: ('A' for Active; 'I' for Inactive)
REMARK    1  A    between atoms: C_1  and  C_2
REMARK    2  A    between atoms: N_4  and  C_5
REMARK    3  A    between atoms: N_4  and  C_6
REMARK    4  A    between atoms: C_6  and  C_7
REMARK    5  A    between atoms: C_6  and  C_8
REMARK    6  A    between atoms: N_10  and  C_11
REMARK    7  A    between atoms: N_10  and  C_12
REMARK    8  A    between atoms: C_12  and  C_13
REMARK    9  A    between atoms: C_12  and  C_14
REMARK   10  A    between atoms: N_16  and  C_17
REMARK   11  A    between atoms: N_16  and  C_18
REMARK   12  A    between atoms: C_18  and  C_19
REMARK   13  A    between atoms: C_18  and  C_20
REMARK   14  A    between atoms: N_22  and  C_23
REMARK   15  A    between atoms: N_22  and  C_24
REMARK   16  A    between atoms: C_24  and  C_25
REMARK   17  A    between atoms: C_24  and  C_26
REMARK   18  A    between atoms: N_28  and  C_29
REMARK   19  A    between atoms: N_28  and  C_30
REMARK   20  A    between atoms: C_30  and  C_31
REMARK   21  A    between atoms: C_30  and  C_32
REMARK                            x       y       z     vdW  Elec       q    Type
REMARK                         _______ _______ _______ _____ _____    ______ ____
ROOT
ATOM      1  C   UNL     1       1.171   9.384  20.892  0.00  0.00    +0.000 C 
ATOM      2  C   UNL     1       0.773   9.203  22.361  0.00  0.00    +0.000 C 
ENDROOT
BRANCH   1   5
ATOM      3  C   UNL     1       0.256  11.495  19.941  0.00  0.00    +0.000 C 
ATOM      4  O   UNL     1       1.214  12.090  20.448  0.00  0.00    +0.000 OA
ATOM      5  N   UNL     1       0.110  10.108  20.118  0.00  0.00    +0.000 N 
ATOM      6  C   UNL     1      -0.994   9.317  19.570  0.00  0.00    +0.000 C 
BRANCH   3   7
ATOM      7  C   UNL     1      -0.747  12.268  19.024  0.00  0.00    +0.000 C 
ATOM      8  C   UNL     1      -0.013  13.430  18.344  0.00  0.00    +0.000 C 
BRANCH   7  11
ATOM      9  C   UNL     1      -1.919  13.707  20.701  0.00  0.00    +0.000 C 
ATOM     10  O   UNL     1      -0.824  14.176  21.036  0.00  0.00    +0.000 OA
ATOM     11  N   UNL     1      -2.009  12.718  19.694  0.00  0.00    +0.000 N 
ATOM     12  C   UNL     1      -3.262  12.084  19.285  0.00  0.00    +0.000 C 
BRANCH   9  13
ATOM     13  C   UNL     1      -3.234  14.307  21.313  0.00  0.00    +0.000 C 
ATOM     14  C   UNL     1      -2.976  15.780  21.645  0.00  0.00    +0.000 C 
BRANCH  13  18
ATOM     15  C   UNL     1      -5.721  12.777  23.842  0.00  0.00    +0.000 C 
ATOM     16  C   UNL     1      -5.161  13.570  22.687  0.00  0.00    +0.000 C 
ATOM     17  O   UNL     1      -5.919  14.214  21.960  0.00  0.00    +0.000 OA
ATOM     18  N   UNL     1      -3.782  13.543  22.479  0.00  0.00    +0.000 N 
ATOM     19  C   UNL     1      -2.870  12.729  23.277  0.00  0.00    +0.000 C 
ENDBRANCH  13  18
ENDBRANCH   9  13
ENDBRANCH   7  11
ENDBRANCH   3   7
ENDBRANCH   1   5
BRANCH   1  20
ATOM     20  C   UNL     1       1.629   8.009  20.301  0.00  0.00    +0.000 C 
ATOM     21  O   UNL     1       1.523   6.978  20.975  0.00  0.00    +0.000 OA
ATOM     22  N   UNL     1       2.262   7.964  19.047  0.00  0.00    +0.000 N 
ATOM     23  C   UNL     1       2.343   9.085  18.112  0.00  0.00    +0.000 C 
BRANCH  22  24
ATOM     24  C   UNL     1       2.758   6.638  18.572  0.00  0.00    +0.000 C 
ATOM     25  C   UNL     1       1.716   5.944  17.688  0.00  0.00    +0.000 C 
BRANCH  24  26
ATOM     26  C   UNL     1       4.131   6.607  17.808  0.00  0.00    +0.000 C 
ATOM     27  O   UNL     1       4.304   7.341  16.828  0.00  0.00    +0.000 OA
ATOM     28  N   UNL     1       5.140   5.723  18.212  0.00  0.00    +0.000 N 
ATOM     29  C   UNL     1       5.008   4.805  19.344  0.00  0.00    +0.000 C 
BRANCH  28  30
ATOM     30  C   UNL     1       6.413   5.665  17.415  0.00  0.00    +0.000 C 
ATOM     31  C   UNL     1       7.629   5.255  18.257  0.00  0.00    +0.000 C 
BRANCH  30  32
ATOM     32  C   UNL     1       6.429   4.788  16.124  0.00  0.00    +0.000 C 
ATOM     33  N   UNL     1       7.210   5.198  15.075  0.00  0.00    +0.000 N 
ATOM     34  O   UNL     1       5.901   3.679  16.052  0.00  0.00    +0.000 OA
ATOM     35  H   UNL     1       7.952   5.861  15.230  0.00  0.00    +0.000 HD
ATOM     36  H   UNL     1       7.355   4.487  14.371  0.00  0.00    +0.000 HD
ENDBRANCH  30  32
ENDBRANCH  28  30
ENDBRANCH  24  26
ENDBRANCH  22  24
ENDBRANCH   1  20
TORSDOF 10
ENDMDL
MODEL 9
REMARK VINA RESULT:      -5.0      6.132      8.238
REMARK  Name = 
REMARK  21 active torsions:
REMARK  status: ('A' for Active; 'I' for Inactive)
REMARK    1  A    between atoms: C_1  and  C_2
REMARK    2  A    between atoms: N_4  and  C_5
REMARK    3  A    between atoms: N_4  and  C_6
REMARK    4  A    between atoms: C_6  and  C_7
REMARK    5  A    between atoms: C_6  and  C_8
REMARK    6  A    between atoms: N_10  and  C_11
REMARK    7  A    between atoms: N_10  and  C_12
REMARK    8  A    between atoms: C_12  and  C_13
REMARK    9  A    between atoms: C_12  and  C_14
REMARK   10  A    between atoms: N_16  and  C_17
REMARK   11  A    between atoms: N_16  and  C_18
REMARK   12  A    between atoms: C_18  and  C_19
REMARK   13  A    between atoms: C_18  and  C_20
REMARK   14  A    between atoms: N_22  and  C_23
REMARK   15  A    between atoms: N_22  and  C_24
REMARK   16  A    between atoms: C_24  and  C_25
REMARK   17  A    between atoms: C_24  and  C_26
REMARK   18  A    between atoms: N_28  and  C_29
REMARK   19  A    between atoms: N_28  and  C_30
REMARK   20  A    between atoms: C_30  and  C_31
REMARK   21  A    between atoms: C_30  and  C_32
REMARK                            x       y       z     vdW  Elec       q    Type
REMARK                         _______ _______ _______ _____ _____    ______ ____
ROOT
ATOM      1  C   UNL     1       2.026   7.425  18.570  0.00  0.00    +0.000 C 
ATOM      2  C   UNL     1       2.956   8.126  17.575  0.00  0.00    +0.000 C 
ENDROOT
BRANCH   1   5
ATOM      3  C   UNL     1       1.081   9.623  19.254  0.00  0.00    +0.000 C 
ATOM      4  O   UNL     1       1.087   9.951  18.062  0.00  0.00    +0.000 OA
ATOM      5  N   UNL     1       1.560   8.362  19.644  0.00  0.00    +0.000 N 
ATOM      6  C   UNL     1       1.607   7.887  21.030  0.00  0.00    +0.000 C 
BRANCH   3   7
ATOM      7  C   UNL     1       0.454  10.578  20.323  0.00  0.00    +0.000 C 
ATOM      8  C   UNL     1      -0.878   9.990  20.802  0.00  0.00    +0.000 C 
BRANCH   7  11
ATOM      9  C   UNL     1       1.262  12.945  20.373  0.00  0.00    +0.000 C 
ATOM     10  O   UNL     1       2.172  12.599  21.137  0.00  0.00    +0.000 OA
ATOM     11  N   UNL     1       0.316  12.008  19.898  0.00  0.00    +0.000 N 
ATOM     12  C   UNL     1      -0.814  12.357  19.035  0.00  0.00    +0.000 C 
BRANCH   9  13
ATOM     13  C   UNL     1       1.234  14.416  19.826  0.00  0.00    +0.000 C 
ATOM     14  C   UNL     1       2.654  14.983  19.909  0.00  0.00    +0.000 C 
BRANCH  13  18
ATOM     15  C   UNL     1      -1.619  16.974  20.316  0.00  0.00    +0.000 C 
ATOM     16  C   UNL     1      -0.577  16.101  19.662  0.00  0.00    +0.000 C 
ATOM     17  O   UNL     1      -0.454  16.106  18.435  0.00  0.00    +0.000 OA
ATOM     18  N   UNL     1       0.222  15.304  20.482  0.00  0.00    +0.000 N 
ATOM     19  C   UNL     1       0.046  15.220  21.928  0.00  0.00    +0.000 C 
ENDBRANCH  13  18
ENDBRANCH   9  13
ENDBRANCH   7  11
ENDBRANCH   3   7
ENDBRANCH   1   5
BRANCH   1  20
ATOM     20  C   UNL     1       2.693   6.098  19.063  0.00  0.00    +0.000 C 
ATOM     21  O   UNL     1       3.581   6.132  19.924  0.00  0.00    +0.000 OA
ATOM     22  N   UNL     1       2.361   4.878  18.449  0.00  0.00    +0.000 N 
ATOM     23  C   UNL     1       1.256   4.690  17.510  0.00  0.00    +0.000 C 
BRANCH  22  24
ATOM     24  C   UNL     1       3.093   3.656  18.899  0.00  0.00    +0.000 C 
ATOM     25  C   UNL     1       2.681   2.432  18.074  0.00  0.00    +0.000 C 
BRANCH  24  26
ATOM     26  C   UNL     1       4.663   3.716  18.918  0.00  0.00    +0.000 C 
ATOM     27  O   UNL     1       5.282   3.254  19.884  0.00  0.00    +0.000 OA
ATOM     28  N   UNL     1       5.356   4.325  17.864  0.00  0.00    +0.000 N 
ATOM     29  C   UNL     1       4.701   4.917  16.698  0.00  0.00    +0.000 C 
BRANCH  28  30
ATOM     30  C   UNL     1       6.853   4.432  17.949  0.00  0.00    +0.000 C 
ATOM     31  C   UNL     1       7.526   4.518  16.572  0.00  0.00    +0.000 C 
BRANCH  30  32
ATOM     32  C   UNL     1       7.457   5.570  18.829  0.00  0.00    +0.000 C 
ATOM     33  N   UNL     1       7.703   6.782  18.238  0.00  0.00    +0.000 N 
ATOM     34  O   UNL     1       7.585   5.486  20.049  0.00  0.00    +0.000 OA
ATOM     35  H   UNL     1       7.252   7.018  17.369  0.00  0.00    +0.000 HD
ATOM     36  H   UNL     1       7.876   7.530  18.895  0.00  0.00    +0.000 HD
ENDBRANCH  30  32
ENDBRANCH  28  30
ENDBRANCH  24  26
ENDBRANCH  22  24
ENDBRANCH   1  20
TORSDOF 10
ENDMDL
