MODEL 1
REMARK VINA RESULT:      -6.5      0.000      0.000
REMARK  Name = 
REMARK  6 active torsions:
REMARK  status: ('A' for Active; 'I' for Inactive)
REMARK    1  A    between atoms: C_2  and  C_3
REMARK    2  A    between atoms: C_3  and  O_4
REMARK    3  A    between atoms: O_4  and  C_5
REMARK    4  A    between atoms: C_10  and  C_11
REMARK    5  A    between atoms: C_18  and  S_19
REMARK    6  A    between atoms: S_19  and  N_22
REMARK                            x       y       z     vdW  Elec       q    Type
REMARK                         _______ _______ _______ _____ _____    ______ ____
ROOT
ATOM      1  C   UNL     1       1.046  10.707  20.552  0.00  0.00    +0.000 A 
ATOM      2  N   UNL     1       1.819  10.313  21.582  0.00  0.00    +0.000 NA
ATOM      3  C   UNL     1       1.434   9.153  22.150  0.00  0.00    +0.000 A 
ATOM      4  C   UNL     1       0.587   8.301  21.509  0.00  0.00    +0.000 A 
ATOM      5  F   UNL     1      -0.722   8.441  21.792  0.00  0.00    +0.000 F 
ATOM      6  C   UNL     1       0.909   8.345  20.200  0.00  0.00    +0.000 A 
ATOM      7  C   UNL     1       1.711   7.281  19.765  0.00  0.00    +0.000 A 
ATOM      8  C   UNL     1       2.424   7.376  18.583  0.00  0.00    +0.000 A 
ATOM      9  C   UNL     1       2.011   8.348  17.664  0.00  0.00    +0.000 A 
ATOM     10  C   UNL     1       1.230   9.452  18.149  0.00  0.00    +0.000 A 
ATOM     11  C   UNL     1       0.873   9.599  19.568  0.00  0.00    +0.000 A 
ENDROOT
BRANCH   1  17
ATOM     12  C   UNL     1       0.416  13.072  21.660  0.00  0.00    +0.000 A 
ATOM     13  C   UNL     1      -0.526  14.066  22.088  0.00  0.00    +0.000 A 
ATOM     14  C   UNL     1      -1.881  13.771  22.058  0.00  0.00    +0.000 A 
ATOM     15  C   UNL     1      -2.245  12.536  21.612  0.00  0.00    +0.000 A 
ATOM     16  C   UNL     1      -1.271  11.535  21.291  0.00  0.00    +0.000 A 
ATOM     17  C   UNL     1       0.133  11.751  21.294  0.00  0.00    +0.000 A 
BRANCH  12  18
ATOM     18  O   UNL     1       1.662  13.566  21.543  0.00  0.00    +0.000 OA
BRANCH  18  19
ATOM     19  C   UNL     1       1.555  14.572  20.590  0.00  0.00    +0.000 C 
BRANCH  19  21
ATOM     20  N   UNL     1       2.867  13.521  18.374  0.00  0.00    +0.000 NA
ATOM     21  C   UNL     1       2.272  13.998  19.379  0.00  0.00    +0.000 C 
ENDBRANCH  19  21
ENDBRANCH  18  19
ENDBRANCH  12  18
ENDBRANCH   1  17
BRANCH   8  22
ATOM     22  S   UNL     1       3.920   6.409  18.444  0.00  0.00    +0.000 S 
ATOM     23  O   UNL     1       4.937   7.263  17.863  0.00  0.00    +0.000 OA
ATOM     24  O   UNL     1       4.146   5.759  19.714  0.00  0.00    +0.000 OA
BRANCH  22  25
ATOM     25  N   UNL     1       3.644   5.159  17.326  0.00  0.00    +0.000 N 
ATOM     26  C   UNL     1       3.158   3.964  17.885  0.00  0.00    +0.000 A 
ATOM     27  N   UNL     1       4.011   2.993  18.084  0.00  0.00    +0.000 NA
ATOM     28  C   UNL     1       3.351   1.941  18.692  0.00  0.00    +0.000 A 
ATOM     29  C   UNL     1       1.984   2.084  18.804  0.00  0.00    +0.000 A 
ATOM     30  S   UNL     1       1.520   3.636  18.223  0.00  0.00    +0.000 S 
ATOM     31  H   UNL     1       4.525   4.977  16.848  0.00  0.00    +0.000 HD
ENDBRANCH  22  25
ENDBRANCH   8  22
TORSDOF 6
ENDMDL
MODEL 2
REMARK VINA RESULT:      -6.4      1.643      2.084
REMARK  Name = 
REMARK  6 active torsions:
REMARK  status: ('A' for Active; 'I' for Inactive)
REMARK    1  A    between atoms: C_2  and  C_3
REMARK    2  A    between atoms: C_3  and  O_4
REMARK    3  A    between atoms: O_4  and  C_5
REMARK    4  A    between atoms: C_10  and  C_11
REMARK    5  A    between atoms: C_18  and  S_19
REMARK    6  A    between atoms: S_19  and  N_22
REMARK                            x       y       z     vdW  Elec       q    Type
REMARK                         _______ _______ _______ _____ _____    ______ ____
ROOT
ATOM      1  C   UNL     1       0.891  10.421  20.438  0.00  0.00    +0.000 A 
ATOM      2  N   UNL     1       1.648  10.070  21.495  0.00  0.00    +0.000 NA
ATOM      3  C   UNL     1       1.340   8.869  22.021  0.00  0.00    +0.000 A 
ATOM      4  C   UNL     1       0.599   7.963  21.326  0.00  0.00    +0.000 A 
ATOM      5  F   UNL     1      -0.728   7.985  21.551  0.00  0.00    +0.000 F 
ATOM      6  C   UNL     1       0.974   8.065  20.034  0.00  0.00    +0.000 A 
ATOM      7  C   UNL     1       1.882   7.084  19.615  0.00  0.00    +0.000 A 
ATOM      8  C   UNL     1       2.636   7.267  18.469  0.00  0.00    +0.000 A 
ATOM      9  C   UNL     1       2.182   8.222  17.551  0.00  0.00    +0.000 A 
ATOM     10  C   UNL     1       1.288   9.244  18.022  0.00  0.00    +0.000 A 
ATOM     11  C   UNL     1       0.857   9.326  19.426  0.00  0.00    +0.000 A 
ENDROOT
BRANCH   1  17
ATOM     12  C   UNL     1      -1.125  12.189  20.600  0.00  0.00    +0.000 A 
ATOM     13  C   UNL     1      -2.212  12.821  21.293  0.00  0.00    +0.000 A 
ATOM     14  C   UNL     1      -2.412  12.538  22.636  0.00  0.00    +0.000 A 
ATOM     15  C   UNL     1      -1.554  11.661  23.228  0.00  0.00    +0.000 A 
ATOM     16  C   UNL     1      -0.420  11.131  22.531  0.00  0.00    +0.000 A 
ATOM     17  C   UNL     1      -0.141  11.366  21.158  0.00  0.00    +0.000 A 
BRANCH  12  18
ATOM     18  O   UNL     1      -1.183  12.388  19.270  0.00  0.00    +0.000 OA
BRANCH  18  19
ATOM     19  C   UNL     1      -2.457  11.970  18.905  0.00  0.00    +0.000 C 
BRANCH  19  21
ATOM     20  N   UNL     1      -1.979   9.981  17.021  0.00  0.00    +0.000 NA
ATOM     21  C   UNL     1      -2.196  10.883  17.875  0.00  0.00    +0.000 C 
ENDBRANCH  19  21
ENDBRANCH  18  19
ENDBRANCH  12  18
ENDBRANCH   1  17
BRANCH   8  22
ATOM     22  S   UNL     1       4.215   6.434  18.379  0.00  0.00    +0.000 S 
ATOM     23  O   UNL     1       5.171   7.375  17.831  0.00  0.00    +0.000 OA
ATOM     24  O   UNL     1       4.455   5.805  19.658  0.00  0.00    +0.000 OA
BRANCH  22  25
ATOM     25  N   UNL     1       4.085   5.167  17.255  0.00  0.00    +0.000 N 
ATOM     26  C   UNL     1       3.441   4.014  17.737  0.00  0.00    +0.000 A 
ATOM     27  N   UNL     1       4.190   3.009  18.111  0.00  0.00    +0.000 NA
ATOM     28  C   UNL     1       3.374   2.009  18.605  0.00  0.00    +0.000 A 
ATOM     29  C   UNL     1       2.019   2.221  18.458  0.00  0.00    +0.000 A 
ATOM     30  S   UNL     1       1.754   3.776  17.769  0.00  0.00    +0.000 S 
ATOM     31  H   UNL     1       5.028   4.929  16.953  0.00  0.00    +0.000 HD
ENDBRANCH  22  25
ENDBRANCH   8  22
TORSDOF 6
ENDMDL
MODEL 3
REMARK VINA RESULT:      -6.3      2.374      3.660
REMARK  Name = 
REMARK  6 active torsions:
REMARK  status: ('A' for Active; 'I' for Inactive)
REMARK    1  A    between atoms: C_2  and  C_3
REMARK    2  A    between atoms: C_3  and  O_4
REMARK    3  A    between atoms: O_4  and  C_5
REMARK    4  A    between atoms: C_10  and  C_11
REMARK    5  A    between atoms: C_18  and  S_19
REMARK    6  A    between atoms: S_19  and  N_22
REMARK                            x       y       z     vdW  Elec       q    Type
REMARK                         _______ _______ _______ _____ _____    ______ ____
ROOT
ATOM      1  C   UNL     1       0.117   9.979  19.666  0.00  0.00    +0.000 A 
ATOM      2  N   UNL     1      -0.375   9.634  18.461  0.00  0.00    +0.000 NA
ATOM      3  C   UNL     1       0.556   9.539  17.491  0.00  0.00    +0.000 A 
ATOM      4  C   UNL     1       1.880   9.439  17.792  0.00  0.00    +0.000 A 
ATOM      5  F   UNL     1       2.570  10.595  17.823  0.00  0.00    +0.000 F 
ATOM      6  C   UNL     1       1.970   8.675  18.900  0.00  0.00    +0.000 A 
ATOM      7  C   UNL     1       2.307   7.337  18.656  0.00  0.00    +0.000 A 
ATOM      8  C   UNL     1       2.072   6.367  19.614  0.00  0.00    +0.000 A 
ATOM      9  C   UNL     1       1.888   6.801  20.932  0.00  0.00    +0.000 A 
ATOM     10  C   UNL     1       1.496   8.166  21.148  0.00  0.00    +0.000 A 
ATOM     11  C   UNL     1       1.266   9.104  20.038  0.00  0.00    +0.000 A 
ENDROOT
BRANCH   1  17
ATOM     12  C   UNL     1      -1.153  12.228  20.405  0.00  0.00    +0.000 A 
ATOM     13  C   UNL     1      -1.233  13.653  20.558  0.00  0.00    +0.000 A 
ATOM     14  C   UNL     1      -0.240  14.448  20.006  0.00  0.00    +0.000 A 
ATOM     15  C   UNL     1       0.772  13.821  19.345  0.00  0.00    +0.000 A 
ATOM     16  C   UNL     1       0.764  12.406  19.125  0.00  0.00    +0.000 A 
ATOM     17  C   UNL     1      -0.211  11.518  19.653  0.00  0.00    +0.000 A 
BRANCH  12  18
ATOM     18  O   UNL     1      -2.057  11.581  21.164  0.00  0.00    +0.000 OA
BRANCH  18  19
ATOM     19  C   UNL     1      -1.816  12.028  22.459  0.00  0.00    +0.000 C 
BRANCH  19  21
ATOM     20  N   UNL     1      -0.224  10.032  23.559  0.00  0.00    +0.000 NA
ATOM     21  C   UNL     1      -0.946  10.937  23.059  0.00  0.00    +0.000 C 
ENDBRANCH  19  21
ENDBRANCH  18  19
ENDBRANCH  12  18
ENDBRANCH   1  17
BRANCH   8  22
ATOM     22  S   UNL     1       1.807   4.694  19.043  0.00  0.00    +0.000 S 
ATOM     23  O   UNL     1       0.871   4.067  19.955  0.00  0.00    +0.000 OA
ATOM     24  O   UNL     1       1.526   4.749  17.627  0.00  0.00    +0.000 OA
BRANCH  22  25
ATOM     25  N   UNL     1       3.270   3.843  19.194  0.00  0.00    +0.000 N 
ATOM     26  C   UNL     1       4.240   4.161  18.227  0.00  0.00    +0.000 A 
ATOM     27  N   UNL     1       4.385   3.343  17.217  0.00  0.00    +0.000 NA
ATOM     28  C   UNL     1       5.335   3.864  16.357  0.00  0.00    +0.000 A 
ATOM     29  C   UNL     1       5.992   4.989  16.811  0.00  0.00    +0.000 A 
ATOM     30  S   UNL     1       5.324   5.473  18.321  0.00  0.00    +0.000 S 
ATOM     31  H   UNL     1       3.053   2.849  19.142  0.00  0.00    +0.000 HD
ENDBRANCH  22  25
ENDBRANCH   8  22
TORSDOF 6
ENDMDL
MODEL 4
REMARK VINA RESULT:      -6.3      2.767      3.790
REMARK  Name = 
REMARK  6 active torsions:
REMARK  status: ('A' for Active; 'I' for Inactive)
REMARK    1  A    between atoms: C_2  and  C_3
REMARK    2  A    between atoms: C_3  and  O_4
REMARK    3  A    between atoms: O_4  and  C_5
REMARK    4  A    between atoms: C_10  and  C_11
REMARK    5  A    between atoms: C_18  and  S_19
REMARK    6  A    between atoms: S_19  and  N_22
REMARK                            x       y       z     vdW  Elec       q    Type
REMARK                         _______ _______ _______ _____ _____    ______ ____
ROOT
ATOM      1  C   UNL     1       0.399   9.558  19.709  0.00  0.00    +0.000 A 
ATOM      2  N   UNL     1      -0.110   9.333  18.483  0.00  0.00    +0.000 NA
ATOM      3  C   UNL     1       0.817   9.235  17.509  0.00  0.00    +0.000 A 
ATOM      4  C   UNL     1       2.129   9.019  17.803  0.00  0.00    +0.000 A 
ATOM      5  F   UNL     1       2.901  10.116  17.913  0.00  0.00    +0.000 F 
ATOM      6  C   UNL     1       2.156   8.177  18.857  0.00  0.00    +0.000 A 
ATOM      7  C   UNL     1       2.396   6.837  18.522  0.00  0.00    +0.000 A 
ATOM      8  C   UNL     1       2.085   5.824  19.411  0.00  0.00    +0.000 A 
ATOM      9  C   UNL     1       1.927   6.180  20.756  0.00  0.00    +0.000 A 
ATOM     10  C   UNL     1       1.634   7.552  21.065  0.00  0.00    +0.000 A 
ATOM     11  C   UNL     1       1.479   8.577  20.021  0.00  0.00    +0.000 A 
ENDROOT
BRANCH   1  17
ATOM     12  C   UNL     1      -0.997  11.852  19.679  0.00  0.00    +0.000 A 
ATOM     13  C   UNL     1      -1.191  13.230  20.034  0.00  0.00    +0.000 A 
ATOM     14  C   UNL     1      -0.161  13.917  20.658  0.00  0.00    +0.000 A 
ATOM     15  C   UNL     1       0.991  13.234  20.907  0.00  0.00    +0.000 A 
ATOM     16  C   UNL     1       1.183  11.891  20.446  0.00  0.00    +0.000 A 
ATOM     17  C   UNL     1       0.185  11.114  19.800  0.00  0.00    +0.000 A 
BRANCH  12  18
ATOM     18  O   UNL     1      -2.140  11.262  19.280  0.00  0.00    +0.000 OA
BRANCH  18  19
ATOM     19  C   UNL     1      -2.557  12.005  18.182  0.00  0.00    +0.000 C 
BRANCH  19  21
ATOM     20  N   UNL     1      -2.721  10.124  16.140  0.00  0.00    +0.000 NA
ATOM     21  C   UNL     1      -2.647  10.977  17.067  0.00  0.00    +0.000 C 
ENDBRANCH  19  21
ENDBRANCH  18  19
ENDBRANCH  12  18
ENDBRANCH   1  17
BRANCH   8  22
ATOM     22  S   UNL     1       1.703   4.217  18.728  0.00  0.00    +0.000 S 
ATOM     23  O   UNL     1       0.750   3.583  19.617  0.00  0.00    +0.000 OA
ATOM     24  O   UNL     1       1.394   4.395  17.328  0.00  0.00    +0.000 OA
BRANCH  22  25
ATOM     25  N   UNL     1       3.112   3.269  18.776  0.00  0.00    +0.000 N 
ATOM     26  C   UNL     1       4.249   3.874  18.212  0.00  0.00    +0.000 A 
ATOM     27  N   UNL     1       4.589   3.520  17.000  0.00  0.00    +0.000 NA
ATOM     28  C   UNL     1       5.686   4.268  16.612  0.00  0.00    +0.000 A 
ATOM     29  C   UNL     1       6.239   5.064  17.593  0.00  0.00    +0.000 A 
ATOM     30  S   UNL     1       5.290   4.952  19.025  0.00  0.00    +0.000 S 
ATOM     31  H   UNL     1       2.912   2.399  18.286  0.00  0.00    +0.000 HD
ENDBRANCH  22  25
ENDBRANCH   8  22
TORSDOF 6
ENDMDL
MODEL 5
REMARK VINA RESULT:      -6.3      5.423      9.103
REMARK  Name = 
REMARK  6 active torsions:
REMARK  status: ('A' for Active; 'I' for Inactive)
REMARK    1  A    between atoms: C_2  and  C_3
REMARK    2  A    between atoms: C_3  and  O_4
REMARK    3  A    between atoms: O_4  and  C_5
REMARK    4  A    between atoms: C_10  and  C_11
REMARK    5  A    between atoms: C_18  and  S_19
REMARK    6  A    between atoms: S_19  and  N_22
REMARK                            x       y       z     vdW  Elec       q    Type
REMARK                         _______ _______ _______ _____ _____    ______ ____
ROOT
ATOM      1  C   UNL     1       5.097   5.019  15.868  0.00  0.00    +0.000 A 
ATOM      2  N   UNL     1       5.099   3.791  16.422  0.00  0.00    +0.000 NA
ATOM      3  C   UNL     1       5.862   3.685  17.527  0.00  0.00    +0.000 A 
ATOM      4  C   UNL     1       6.279   4.789  18.206  0.00  0.00    +0.000 A 
ATOM      5  F   UNL     1       7.490   5.270  17.869  0.00  0.00    +0.000 F 
ATOM      6  C   UNL     1       5.265   5.677  18.161  0.00  0.00    +0.000 A 
ATOM      7  C   UNL     1       4.480   5.719  19.321  0.00  0.00    +0.000 A 
ATOM      8  C   UNL     1       3.215   6.279  19.294  0.00  0.00    +0.000 A 
ATOM      9  C   UNL     1       2.920   7.142  18.232  0.00  0.00    +0.000 A 
ATOM     10  C   UNL     1       3.713   7.043  17.037  0.00  0.00    +0.000 A 
ATOM     11  C   UNL     1       4.798   6.060  16.893  0.00  0.00    +0.000 A 
ENDROOT
BRANCH   1  17
ATOM     12  C   UNL     1       5.967   4.236  13.450  0.00  0.00    +0.000 A 
ATOM     13  C   UNL     1       6.885   4.293  12.347  0.00  0.00    +0.000 A 
ATOM     14  C   UNL     1       8.041   5.048  12.469  0.00  0.00    +0.000 A 
ATOM     15  C   UNL     1       8.242   5.705  13.645  0.00  0.00    +0.000 A 
ATOM     16  C   UNL     1       7.355   5.542  14.759  0.00  0.00    +0.000 A 
ATOM     17  C   UNL     1       6.151   4.790  14.722  0.00  0.00    +0.000 A 
BRANCH  12  18
ATOM     18  O   UNL     1       4.803   3.650  13.116  0.00  0.00    +0.000 OA
BRANCH  18  19
ATOM     19  C   UNL     1       5.101   2.886  11.993  0.00  0.00    +0.000 C 
BRANCH  19  21
ATOM     20  N   UNL     1       3.067   3.523  10.207  0.00  0.00    +0.000 NA
ATOM     21  C   UNL     1       3.989   3.234  11.017  0.00  0.00    +0.000 C 
ENDBRANCH  19  21
ENDBRANCH  18  19
ENDBRANCH  12  18
ENDBRANCH   1  17
BRANCH   8  22
ATOM     22  S   UNL     1       2.022   5.677  20.482  0.00  0.00    +0.000 S 
ATOM     23  O   UNL     1       2.740   4.862  21.442  0.00  0.00    +0.000 OA
ATOM     24  O   UNL     1       1.231   6.803  20.922  0.00  0.00    +0.000 OA
BRANCH  22  25
ATOM     25  N   UNL     1       0.945   4.639  19.676  0.00  0.00    +0.000 N 
ATOM     26  C   UNL     1       1.558   3.614  18.935  0.00  0.00    +0.000 A 
ATOM     27  N   UNL     1       1.666   3.777  17.642  0.00  0.00    +0.000 NA
ATOM     28  C   UNL     1       2.346   2.695  17.114  0.00  0.00    +0.000 A 
ATOM     29  C   UNL     1       2.606   1.669  17.998  0.00  0.00    +0.000 A 
ATOM     30  S   UNL     1       2.074   2.119  19.571  0.00  0.00    +0.000 S 
ATOM     31  H   UNL     1       0.375   5.211  19.057  0.00  0.00    +0.000 HD
ENDBRANCH  22  25
ENDBRANCH   8  22
TORSDOF 6
ENDMDL
MODEL 6
REMARK VINA RESULT:      -6.2      4.619      8.649
REMARK  Name = 
REMARK  6 active torsions:
REMARK  status: ('A' for Active; 'I' for Inactive)
REMARK    1  A    between atoms: C_2  and  C_3
REMARK    2  A    between atoms: C_3  and  O_4
REMARK    3  A    between atoms: O_4  and  C_5
REMARK    4  A    between atoms: C_10  and  C_11
REMARK    5  A    between atoms: C_18  and  S_19
REMARK    6  A    between atoms: S_19  and  N_22
REMARK                            x       y       z     vdW  Elec       q    Type
REMARK                         _______ _______ _______ _____ _____    ______ ____
ROOT
ATOM      1  C   UNL     1       0.579   9.263  19.331  0.00  0.00    +0.000 A 
ATOM      2  N   UNL     1       0.917   9.721  20.551  0.00  0.00    +0.000 NA
ATOM      3  C   UNL     1       1.438  10.964  20.550  0.00  0.00    +0.000 A 
ATOM      4  C   UNL     1       1.286  11.791  19.479  0.00  0.00    +0.000 A 
ATOM      5  F   UNL     1       2.282  11.776  18.573  0.00  0.00    +0.000 F 
ATOM      6  C   UNL     1       0.049  11.570  18.990  0.00  0.00    +0.000 A 
ATOM      7  C   UNL     1      -0.907  12.516  19.383  0.00  0.00    +0.000 A 
ATOM      8  C   UNL     1      -2.258  12.233  19.288  0.00  0.00    +0.000 A 
ATOM      9  C   UNL     1      -2.633  11.190  18.432  0.00  0.00    +0.000 A 
ATOM     10  C   UNL     1      -1.643  10.208  18.085  0.00  0.00    +0.000 A 
ATOM     11  C   UNL     1      -0.270  10.255  18.611  0.00  0.00    +0.000 A 
ENDROOT
BRANCH   1  17
ATOM     12  C   UNL     1       2.193   7.125  19.535  0.00  0.00    +0.000 A 
ATOM     13  C   UNL     1       3.206   6.242  19.030  0.00  0.00    +0.000 A 
ATOM     14  C   UNL     1       3.867   6.573  17.858  0.00  0.00    +0.000 A 
ATOM     15  C   UNL     1       3.509   7.733  17.240  0.00  0.00    +0.000 A 
ATOM     16  C   UNL     1       2.566   8.638  17.828  0.00  0.00    +0.000 A 
ATOM     17  C   UNL     1       1.844   8.380  19.023  0.00  0.00    +0.000 A 
BRANCH  12  18
ATOM     18  O   UNL     1       1.497   6.578  20.549  0.00  0.00    +0.000 OA
BRANCH  18  19
ATOM     19  C   UNL     1       2.239   5.464  20.927  0.00  0.00    +0.000 C 
BRANCH  19  21
ATOM     20  N   UNL     1       0.575   3.325  20.306  0.00  0.00    +0.000 NA
ATOM     21  C   UNL     1       1.330   4.295  20.588  0.00  0.00    +0.000 C 
ENDBRANCH  19  21
ENDBRANCH  18  19
ENDBRANCH  12  18
ENDBRANCH   1  17
BRANCH   8  22
ATOM     22  S   UNL     1      -3.357  13.071  20.421  0.00  0.00    +0.000 S 
ATOM     23  O   UNL     1      -3.585  12.180  21.542  0.00  0.00    +0.000 OA
ATOM     24  O   UNL     1      -2.840  14.402  20.635  0.00  0.00    +0.000 OA
BRANCH  22  25
ATOM     25  N   UNL     1      -4.860  13.273  19.653  0.00  0.00    +0.000 N 
ATOM     26  C   UNL     1      -5.880  12.427  20.122  0.00  0.00    +0.000 A 
ATOM     27  N   UNL     1      -6.165  11.366  19.414  0.00  0.00    +0.000 NA
ATOM     28  C   UNL     1      -7.143  10.643  20.073  0.00  0.00    +0.000 A 
ATOM     29  C   UNL     1      -7.679  11.251  21.189  0.00  0.00    +0.000 A 
ATOM     30  S   UNL     1      -6.857  12.734  21.485  0.00  0.00    +0.000 S 
ATOM     31  H   UNL     1      -4.718  13.114  18.657  0.00  0.00    +0.000 HD
ENDBRANCH  22  25
ENDBRANCH   8  22
TORSDOF 6
ENDMDL
MODEL 7
REMARK VINA RESULT:      -6.2      0.940      1.012
REMARK  Name = 
REMARK  6 active torsions:
REMARK  status: ('A' for Active; 'I' for Inactive)
REMARK    1  A    between atoms: C_2  and  C_3
REMARK    2  A    between atoms: C_3  and  O_4
REMARK    3  A    between atoms: O_4  and  C_5
REMARK    4  A    between atoms: C_10  and  C_11
REMARK    5  A    between atoms: C_18  and  S_19
REMARK    6  A    between atoms: S_19  and  N_22
REMARK                            x       y       z     vdW  Elec       q    Type
REMARK                         _______ _______ _______ _____ _____    ______ ____
ROOT
ATOM      1  C   UNL     1       0.931  10.527  20.516  0.00  0.00    +0.000 A 
ATOM      2  N   UNL     1       1.690  10.139  21.559  0.00  0.00    +0.000 NA
ATOM      3  C   UNL     1       1.342   8.947  22.082  0.00  0.00    +0.000 A 
ATOM      4  C   UNL     1       0.555   8.076  21.391  0.00  0.00    +0.000 A 
ATOM      5  F   UNL     1      -0.767   8.149  21.636  0.00  0.00    +0.000 F 
ATOM      6  C   UNL     1       0.915   8.172  20.094  0.00  0.00    +0.000 A 
ATOM      7  C   UNL     1       1.777   7.159  19.656  0.00  0.00    +0.000 A 
ATOM      8  C   UNL     1       2.520   7.320  18.500  0.00  0.00    +0.000 A 
ATOM      9  C   UNL     1       2.092   8.299  17.595  0.00  0.00    +0.000 A 
ATOM     10  C   UNL     1       1.246   9.352  18.086  0.00  0.00    +0.000 A 
ATOM     11  C   UNL     1       0.839   9.442  19.497  0.00  0.00    +0.000 A 
ENDROOT
BRANCH   1  17
ATOM     12  C   UNL     1      -0.850  12.526  20.727  0.00  0.00    +0.000 A 
ATOM     13  C   UNL     1      -1.924  13.210  21.391  0.00  0.00    +0.000 A 
ATOM     14  C   UNL     1      -2.316  12.787  22.652  0.00  0.00    +0.000 A 
ATOM     15  C   UNL     1      -1.653  11.729  23.194  0.00  0.00    +0.000 A 
ATOM     16  C   UNL     1      -0.520  11.138  22.545  0.00  0.00    +0.000 A 
ATOM     17  C   UNL     1      -0.052  11.507  21.257  0.00  0.00    +0.000 A 
BRANCH  12  18
ATOM     18  O   UNL     1      -0.723  12.903  19.441  0.00  0.00    +0.000 OA
BRANCH  18  19
ATOM     19  C   UNL     1      -0.114  14.151  19.496  0.00  0.00    +0.000 C 
BRANCH  19  21
ATOM     20  N   UNL     1       2.290  13.767  18.151  0.00  0.00    +0.000 NA
ATOM     21  C   UNL     1       1.200  13.942  18.762  0.00  0.00    +0.000 C 
ENDBRANCH  19  21
ENDBRANCH  18  19
ENDBRANCH  12  18
ENDBRANCH   1  17
BRANCH   8  22
ATOM     22  S   UNL     1       4.064   6.426  18.382  0.00  0.00    +0.000 S 
ATOM     23  O   UNL     1       5.037   7.318  17.784  0.00  0.00    +0.000 OA
ATOM     24  O   UNL     1       4.319   5.815  19.666  0.00  0.00    +0.000 OA
BRANCH  22  25
ATOM     25  N   UNL     1       3.852   5.142  17.290  0.00  0.00    +0.000 N 
ATOM     26  C   UNL     1       3.285   3.982  17.846  0.00  0.00    +0.000 A 
ATOM     27  N   UNL     1       4.089   2.998  18.155  0.00  0.00    +0.000 NA
ATOM     28  C   UNL     1       3.348   1.987  18.740  0.00  0.00    +0.000 A 
ATOM     29  C   UNL     1       1.981   2.169  18.725  0.00  0.00    +0.000 A 
ATOM     30  S   UNL     1       1.615   3.708  18.048  0.00  0.00    +0.000 S 
ATOM     31  H   UNL     1       4.766   4.919  16.899  0.00  0.00    +0.000 HD
ENDBRANCH  22  25
ENDBRANCH   8  22
TORSDOF 6
ENDMDL
MODEL 8
REMARK VINA RESULT:      -6.2      3.523      8.199
REMARK  Name = 
REMARK  6 active torsions:
REMARK  status: ('A' for Active; 'I' for Inactive)
REMARK    1  A    between atoms: C_2  and  C_3
REMARK    2  A    between atoms: C_3  and  O_4
REMARK    3  A    between atoms: O_4  and  C_5
REMARK    4  A    between atoms: C_10  and  C_11
REMARK    5  A    between atoms: C_18  and  S_19
REMARK    6  A    between atoms: S_19  and  N_22
REMARK                            x       y       z     vdW  Elec       q    Type
REMARK                         _______ _______ _______ _____ _____    ______ ____
ROOT
ATOM      1  C   UNL     1       2.115   5.520  18.001  0.00  0.00    +0.000 A 
ATOM      2  N   UNL     1       1.087   5.184  18.803  0.00  0.00    +0.000 NA
ATOM      3  C   UNL     1       1.315   5.397  20.114  0.00  0.00    +0.000 A 
ATOM      4  C   UNL     1       2.328   6.207  20.531  0.00  0.00    +0.000 A 
ATOM      5  F   UNL     1       3.497   5.599  20.808  0.00  0.00    +0.000 F 
ATOM      6  C   UNL     1       2.394   7.228  19.652  0.00  0.00    +0.000 A 
ATOM      7  C   UNL     1       1.773   8.407  20.086  0.00  0.00    +0.000 A 
ATOM      8  C   UNL     1       1.428   9.394  19.180  0.00  0.00    +0.000 A 
ATOM      9  C   UNL     1       2.068   9.371  17.936  0.00  0.00    +0.000 A 
ATOM     10  C   UNL     1       2.654   8.135  17.497  0.00  0.00    +0.000 A 
ATOM     11  C   UNL     1       2.586   6.904  18.299  0.00  0.00    +0.000 A 
ENDROOT
BRANCH   1  17
ATOM     12  C   UNL     1       4.098   3.713  17.865  0.00  0.00    +0.000 A 
ATOM     13  C   UNL     1       4.605   2.372  17.928  0.00  0.00    +0.000 A 
ATOM     14  C   UNL     1       3.711   1.316  18.027  0.00  0.00    +0.000 A 
ATOM     15  C   UNL     1       2.383   1.619  18.061  0.00  0.00    +0.000 A 
ATOM     16  C   UNL     1       1.912   2.961  17.892  0.00  0.00    +0.000 A 
ATOM     17  C   UNL     1       2.756   4.099  17.786  0.00  0.00    +0.000 A 
BRANCH  12  18
ATOM     18  O   UNL     1       5.073   4.633  17.987  0.00  0.00    +0.000 OA
BRANCH  18  19
ATOM     19  C   UNL     1       5.855   4.474  16.849  0.00  0.00    +0.000 C 
BRANCH  19  21
ATOM     20  N   UNL     1       5.261   6.720  15.321  0.00  0.00    +0.000 NA
ATOM     21  C   UNL     1       5.530   5.702  16.015  0.00  0.00    +0.000 C 
ENDBRANCH  19  21
ENDBRANCH  18  19
ENDBRANCH  12  18
ENDBRANCH   1  17
BRANCH   8  22
ATOM     22  S   UNL     1       0.054  10.456  19.603  0.00  0.00    +0.000 S 
ATOM     23  O   UNL     1      -1.040   9.603  20.025  0.00  0.00    +0.000 OA
ATOM     24  O   UNL     1       0.551  11.496  20.474  0.00  0.00    +0.000 OA
BRANCH  22  25
ATOM     25  N   UNL     1      -0.466  11.243  18.190  0.00  0.00    +0.000 N 
ATOM     26  C   UNL     1      -1.778  10.935  17.792  0.00  0.00    +0.000 A 
ATOM     27  N   UNL     1      -1.935  10.064  16.830  0.00  0.00    +0.000 NA
ATOM     28  C   UNL     1      -3.288   9.858  16.634  0.00  0.00    +0.000 A 
ATOM     29  C   UNL     1      -4.124  10.687  17.352  0.00  0.00    +0.000 A 
ATOM     30  S   UNL     1      -3.185  11.691  18.387  0.00  0.00    +0.000 S 
ATOM     31  H   UNL     1       0.183  10.993  17.445  0.00  0.00    +0.000 HD
ENDBRANCH  22  25
ENDBRANCH   8  22
TORSDOF 6
ENDMDL
MODEL 9
REMARK VINA RESULT:      -6.2      2.991      8.480
REMARK  Name = 
REMARK  6 active torsions:
REMARK  status: ('A' for Active; 'I' for Inactive)
REMARK    1  A    between atoms: C_2  and  C_3
REMARK    2  A    between atoms: C_3  and  O_4
REMARK    3  A    between atoms: O_4  and  C_5
REMARK    4  A    between atoms: C_10  and  C_11
REMARK    5  A    between atoms: C_18  and  S_19
REMARK    6  A    between atoms: S_19  and  N_22
REMARK                            x       y       z     vdW  Elec       q    Type
REMARK                         _______ _______ _______ _____ _____    ______ ____
ROOT
ATOM      1  C   UNL     1       2.259   5.626  18.103  0.00  0.00    +0.000 A 
ATOM      2  N   UNL     1       1.096   5.260  18.674  0.00  0.00    +0.000 NA
ATOM      3  C   UNL     1       1.036   5.486  20.001  0.00  0.00    +0.000 A 
ATOM      4  C   UNL     1       1.913   6.330  20.612  0.00  0.00    +0.000 A 
ATOM      5  F   UNL     1       3.015   5.763  21.137  0.00  0.00    +0.000 F 
ATOM      6  C   UNL     1       2.131   7.350  19.756  0.00  0.00    +0.000 A 
ATOM      7  C   UNL     1       1.397   8.510  20.036  0.00  0.00    +0.000 A 
ATOM      8  C   UNL     1       1.220   9.481  19.067  0.00  0.00    +0.000 A 
ATOM      9  C   UNL     1       2.108   9.473  17.985  0.00  0.00    +0.000 A 
ATOM     10  C   UNL     1       2.812   8.254  17.693  0.00  0.00    +0.000 A 
ATOM     11  C   UNL     1       2.614   7.025  18.477  0.00  0.00    +0.000 A 
ENDROOT
BRANCH   1  17
ATOM     12  C   UNL     1       4.200   3.834  18.594  0.00  0.00    +0.000 A 
ATOM     13  C   UNL     1       4.684   2.492  18.747  0.00  0.00    +0.000 A 
ATOM     14  C   UNL     1       3.849   1.432  18.427  0.00  0.00    +0.000 A 
ATOM     15  C   UNL     1       2.597   1.731  17.981  0.00  0.00    +0.000 A 
ATOM     16  C   UNL     1       2.186   3.083  17.744  0.00  0.00    +0.000 A 
ATOM     17  C   UNL     1       2.974   4.225  18.044  0.00  0.00    +0.000 A 
BRANCH  12  18
ATOM     18  O   UNL     1       5.031   4.742  19.138  0.00  0.00    +0.000 OA
BRANCH  18  19
ATOM     19  C   UNL     1       6.195   4.654  18.383  0.00  0.00    +0.000 C 
BRANCH  19  21
ATOM     20  N   UNL     1       6.069   6.878  16.718  0.00  0.00    +0.000 NA
ATOM     21  C   UNL     1       6.126   5.869  17.473  0.00  0.00    +0.000 C 
ENDBRANCH  19  21
ENDBRANCH  18  19
ENDBRANCH  12  18
ENDBRANCH   1  17
BRANCH   8  22
ATOM     22  S   UNL     1      -0.244  10.500  19.179  0.00  0.00    +0.000 S 
ATOM     23  O   UNL     1      -1.371   9.686  18.767  0.00  0.00    +0.000 OA
ATOM     24  O   UNL     1      -0.237  11.143  20.473  0.00  0.00    +0.000 OA
BRANCH  22  25
ATOM     25  N   UNL     1      -0.110  11.751  18.037  0.00  0.00    +0.000 N 
ATOM     26  C   UNL     1       0.439  12.946  18.534  0.00  0.00    +0.000 A 
ATOM     27  N   UNL     1      -0.385  13.915  18.837  0.00  0.00    +0.000 NA
ATOM     28  C   UNL     1       0.344  14.968  19.361  0.00  0.00    +0.000 A 
ATOM     29  C   UNL     1       1.714  14.827  19.304  0.00  0.00    +0.000 A 
ATOM     30  S   UNL     1       2.105  13.277  18.668  0.00  0.00    +0.000 S 
ATOM     31  H   UNL     1      -1.043  11.932  17.672  0.00  0.00    +0.000 HD
ENDBRANCH  22  25
ENDBRANCH   8  22
TORSDOF 6
ENDMDL
