MODEL 1
REMARK VINA RESULT:      -7.4      0.000      0.000
REMARK  Name = 
REMARK  9 active torsions:
REMARK  status: ('A' for Active; 'I' for Inactive)
REMARK    1  A    between atoms: C_1  and  O_2
REMARK    2  A    between atoms: O_2  and  C_3
REMARK    3  A    between atoms: C_3  and  C_5
REMARK    4  A    between atoms: C_9  and  N_10
REMARK    5  A    between atoms: C_11  and  C_13
REMARK    6  A    between atoms: C_13  and  S_14
REMARK    7  A    between atoms: S_14  and  C_15
REMARK    8  A    between atoms: N_19  and  C_20
REMARK    9  A    between atoms: C_25  and  C_26
REMARK                            x       y       z     vdW  Elec       q    Type
REMARK                         _______ _______ _______ _____ _____    ______ ____
ROOT
ATOM      1  C   UNL     1       2.756   8.072  17.868  0.00  0.00    +0.000 C 
ENDROOT
BRANCH   1   3
ATOM      2  N   UNL     1       0.770   9.188  18.734  0.00  0.00    +0.000 N 
ATOM      3  C   UNL     1       1.943   9.350  18.006  0.00  0.00    +0.000 C 
ATOM      4  O   UNL     1       2.347  10.406  17.522  0.00  0.00    +0.000 OA
ATOM      5  H   UNL     1       0.659   8.348  19.295  0.00  0.00    +0.000 HD
BRANCH   2  10
ATOM      6  C   UNL     1      -0.181  11.054  20.016  0.00  0.00    +0.000 A 
ATOM      7  S   UNL     1      -1.509  12.150  19.951  0.00  0.00    +0.000 S 
ATOM      8  C   UNL     1      -2.082  11.494  18.493  0.00  0.00    +0.000 A 
ATOM      9  C   UNL     1      -1.299  10.449  18.063  0.00  0.00    +0.000 A 
ATOM     10  C   UNL     1      -0.189  10.182  18.927  0.00  0.00    +0.000 A 
BRANCH   6  11
ATOM     11  C   UNL     1       0.739  11.209  21.131  0.00  0.00    +0.000 C 
ATOM     12  O   UNL     1       1.230  10.307  21.799  0.00  0.00    +0.000 OA
BRANCH  11  14
ATOM     13  C   UNL     1       2.058  13.059  20.571  0.00  0.00    +0.000 C 
ATOM     14  O   UNL     1       0.990  12.538  21.368  0.00  0.00    +0.000 OA
ENDBRANCH  11  14
ENDBRANCH   6  11
ENDBRANCH   2  10
ENDBRANCH   1   3
BRANCH   1  15
ATOM     15  S   UNL     1       2.345   6.902  19.191  0.00  0.00    +0.000 S 
BRANCH  15  16
ATOM     16  C   UNL     1       2.606   5.392  18.383  0.00  0.00    +0.000 A 
ATOM     17  N   UNL     1       1.646   4.560  18.040  0.00  0.00    +0.000 NA
ATOM     18  N   UNL     1       2.236   3.621  17.242  0.00  0.00    +0.000 NA
ATOM     19  N   UNL     1       3.525   3.874  17.078  0.00  0.00    +0.000 NA
ATOM     20  N   UNL     1       3.808   4.963  17.840  0.00  0.00    +0.000 N 
BRANCH  20  21
ATOM     21  C   UNL     1       5.140   5.426  18.022  0.00  0.00    +0.000 A 
ATOM     22  C   UNL     1       5.791   5.166  19.244  0.00  0.00    +0.000 A 
ATOM     23  C   UNL     1       7.104   5.587  19.456  0.00  0.00    +0.000 A 
ATOM     24  C   UNL     1       7.791   6.254  18.450  0.00  0.00    +0.000 A 
ATOM     25  C   UNL     1       7.163   6.509  17.231  0.00  0.00    +0.000 A 
ATOM     26  C   UNL     1       5.833   6.109  16.996  0.00  0.00    +0.000 A 
ATOM     27  C   UNL     1       5.203   6.518  15.691  0.00  0.00    +0.000 C 
ENDBRANCH  20  21
ENDBRANCH  15  16
ENDBRANCH   1  15
TORSDOF 7
ENDMDL
MODEL 2
REMARK VINA RESULT:      -7.4      0.514      1.093
REMARK  Name = 
REMARK  9 active torsions:
REMARK  status: ('A' for Active; 'I' for Inactive)
REMARK    1  A    between atoms: C_1  and  O_2
REMARK    2  A    between atoms: O_2  and  C_3
REMARK    3  A    between atoms: C_3  and  C_5
REMARK    4  A    between atoms: C_9  and  N_10
REMARK    5  A    between atoms: C_11  and  C_13
REMARK    6  A    between atoms: C_13  and  S_14
REMARK    7  A    between atoms: S_14  and  C_15
REMARK    8  A    between atoms: N_19  and  C_20
REMARK    9  A    between atoms: C_25  and  C_26
REMARK                            x       y       z     vdW  Elec       q    Type
REMARK                         _______ _______ _______ _____ _____    ______ ____
ROOT
ATOM      1  C   UNL     1       2.358   8.131  17.676  0.00  0.00    +0.000 C 
ENDROOT
BRANCH   1   3
ATOM      2  N   UNL     1       0.413   9.321  18.532  0.00  0.00    +0.000 N 
ATOM      3  C   UNL     1       1.688   9.457  17.998  0.00  0.00    +0.000 C 
ATOM      4  O   UNL     1       2.276  10.520  17.807  0.00  0.00    +0.000 OA
ATOM      5  H   UNL     1       0.126   8.409  18.878  0.00  0.00    +0.000 HD
BRANCH   2  10
ATOM      6  C   UNL     1      -0.276  11.216  19.934  0.00  0.00    +0.000 A 
ATOM      7  S   UNL     1      -1.510  12.417  20.006  0.00  0.00    +0.000 S 
ATOM      8  C   UNL     1      -2.249  11.855  18.584  0.00  0.00    +0.000 A 
ATOM      9  C   UNL     1      -1.592  10.764  18.065  0.00  0.00    +0.000 A 
ATOM     10  C   UNL     1      -0.443  10.382  18.829  0.00  0.00    +0.000 A 
BRANCH   6  11
ATOM     11  C   UNL     1       0.740  11.261  20.974  0.00  0.00    +0.000 C 
ATOM     12  O   UNL     1       1.334  12.258  21.366  0.00  0.00    +0.000 OA
BRANCH  11  14
ATOM     13  C   UNL     1       0.103   9.654  22.552  0.00  0.00    +0.000 C 
ATOM     14  O   UNL     1       0.975  10.003  21.472  0.00  0.00    +0.000 OA
ENDBRANCH  11  14
ENDBRANCH   6  11
ENDBRANCH   2  10
ENDBRANCH   1   3
BRANCH   1  15
ATOM     15  S   UNL     1       2.378   7.049  19.131  0.00  0.00    +0.000 S 
BRANCH  15  16
ATOM     16  C   UNL     1       2.614   5.503  18.385  0.00  0.00    +0.000 A 
ATOM     17  N   UNL     1       1.640   4.676  18.070  0.00  0.00    +0.000 NA
ATOM     18  N   UNL     1       2.215   3.696  17.313  0.00  0.00    +0.000 NA
ATOM     19  N   UNL     1       3.509   3.918  17.145  0.00  0.00    +0.000 NA
ATOM     20  N   UNL     1       3.810   5.031  17.864  0.00  0.00    +0.000 N 
BRANCH  20  21
ATOM     21  C   UNL     1       5.149   5.476  18.032  0.00  0.00    +0.000 A 
ATOM     22  C   UNL     1       5.822   5.173  19.231  0.00  0.00    +0.000 A 
ATOM     23  C   UNL     1       7.144   5.575  19.429  0.00  0.00    +0.000 A 
ATOM     24  C   UNL     1       7.815   6.268  18.431  0.00  0.00    +0.000 A 
ATOM     25  C   UNL     1       7.165   6.567  17.234  0.00  0.00    +0.000 A 
ATOM     26  C   UNL     1       5.827   6.187  17.014  0.00  0.00    +0.000 A 
ATOM     27  C   UNL     1       5.174   6.642  15.736  0.00  0.00    +0.000 C 
ENDBRANCH  20  21
ENDBRANCH  15  16
ENDBRANCH   1  15
TORSDOF 7
ENDMDL
MODEL 3
REMARK VINA RESULT:      -7.2      1.410      2.373
REMARK  Name = 
REMARK  9 active torsions:
REMARK  status: ('A' for Active; 'I' for Inactive)
REMARK    1  A    between atoms: C_1  and  O_2
REMARK    2  A    between atoms: O_2  and  C_3
REMARK    3  A    between atoms: C_3  and  C_5
REMARK    4  A    between atoms: C_9  and  N_10
REMARK    5  A    between atoms: C_11  and  C_13
REMARK    6  A    between atoms: C_13  and  S_14
REMARK    7  A    between atoms: S_14  and  C_15
REMARK    8  A    between atoms: N_19  and  C_20
REMARK    9  A    between atoms: C_25  and  C_26
REMARK                            x       y       z     vdW  Elec       q    Type
REMARK                         _______ _______ _______ _____ _____    ______ ____
ROOT
ATOM      1  C   UNL     1       2.166   7.765  17.840  0.00  0.00    +0.000 C 
ENDROOT
BRANCH   1   3
ATOM      2  N   UNL     1       0.935   9.321  19.254  0.00  0.00    +0.000 N 
ATOM      3  C   UNL     1       1.817   9.204  18.185  0.00  0.00    +0.000 C 
ATOM      4  O   UNL     1       2.316  10.138  17.562  0.00  0.00    +0.000 OA
ATOM      5  H   UNL     1       0.784   8.511  19.849  0.00  0.00    +0.000 HD
BRANCH   2  10
ATOM      6  C   UNL     1      -0.710  11.139  19.117  0.00  0.00    +0.000 A 
ATOM      7  S   UNL     1      -1.114  12.608  19.922  0.00  0.00    +0.000 S 
ATOM      8  C   UNL     1       0.140  12.426  21.052  0.00  0.00    +0.000 A 
ATOM      9  C   UNL     1       0.872  11.285  20.822  0.00  0.00    +0.000 A 
ATOM     10  C   UNL     1       0.392  10.522  19.709  0.00  0.00    +0.000 A 
BRANCH   6  11
ATOM     11  C   UNL     1      -1.559  10.750  18.002  0.00  0.00    +0.000 C 
ATOM     12  O   UNL     1      -1.422   9.758  17.296  0.00  0.00    +0.000 OA
BRANCH  11  14
ATOM     13  C   UNL     1      -3.862  11.081  17.753  0.00  0.00    +0.000 C 
ATOM     14  O   UNL     1      -2.560  11.671  17.816  0.00  0.00    +0.000 OA
ENDBRANCH  11  14
ENDBRANCH   6  11
ENDBRANCH   2  10
ENDBRANCH   1   3
BRANCH   1  15
ATOM     15  S   UNL     1       2.508   6.807  19.340  0.00  0.00    +0.000 S 
BRANCH  15  16
ATOM     16  C   UNL     1       2.843   5.248  18.662  0.00  0.00    +0.000 A 
ATOM     17  N   UNL     1       1.931   4.330  18.430  0.00  0.00    +0.000 NA
ATOM     18  N   UNL     1       2.556   3.360  17.699  0.00  0.00    +0.000 NA
ATOM     19  N   UNL     1       3.820   3.678  17.465  0.00  0.00    +0.000 NA
ATOM     20  N   UNL     1       4.054   4.847  18.115  0.00  0.00    +0.000 N 
BRANCH  20  21
ATOM     21  C   UNL     1       5.357   5.408  18.206  0.00  0.00    +0.000 A 
ATOM     22  C   UNL     1       6.128   5.158  19.358  0.00  0.00    +0.000 A 
ATOM     23  C   UNL     1       7.419   5.674  19.478  0.00  0.00    +0.000 A 
ATOM     24  C   UNL     1       7.964   6.429  18.447  0.00  0.00    +0.000 A 
ATOM     25  C   UNL     1       7.216   6.676  17.296  0.00  0.00    +0.000 A 
ATOM     26  C   UNL     1       5.905   6.180  17.155  0.00  0.00    +0.000 A 
ATOM     27  C   UNL     1       5.137   6.582  15.924  0.00  0.00    +0.000 C 
ENDBRANCH  20  21
ENDBRANCH  15  16
ENDBRANCH   1  15
TORSDOF 7
ENDMDL
MODEL 4
REMARK VINA RESULT:      -7.1      1.576      2.517
REMARK  Name = 
REMARK  9 active torsions:
REMARK  status: ('A' for Active; 'I' for Inactive)
REMARK    1  A    between atoms: C_1  and  O_2
REMARK    2  A    between atoms: O_2  and  C_3
REMARK    3  A    between atoms: C_3  and  C_5
REMARK    4  A    between atoms: C_9  and  N_10
REMARK    5  A    between atoms: C_11  and  C_13
REMARK    6  A    between atoms: C_13  and  S_14
REMARK    7  A    between atoms: S_14  and  C_15
REMARK    8  A    between atoms: N_19  and  C_20
REMARK    9  A    between atoms: C_25  and  C_26
REMARK                            x       y       z     vdW  Elec       q    Type
REMARK                         _______ _______ _______ _____ _____    ______ ____
ROOT
ATOM      1  C   UNL     1       2.189   7.715  18.242  0.00  0.00    +0.000 C 
ENDROOT
BRANCH   1   3
ATOM      2  N   UNL     1       1.558  10.053  17.973  0.00  0.00    +0.000 N 
ATOM      3  C   UNL     1       1.653   8.993  18.867  0.00  0.00    +0.000 C 
ATOM      4  O   UNL     1       1.324   9.023  20.051  0.00  0.00    +0.000 OA
ATOM      5  H   UNL     1       1.615   9.855  16.978  0.00  0.00    +0.000 HD
BRANCH   2  10
ATOM      6  C   UNL     1      -0.148  11.751  18.459  0.00  0.00    +0.000 A 
ATOM      7  S   UNL     1      -0.260  13.418  18.880  0.00  0.00    +0.000 S 
ATOM      8  C   UNL     1       1.427  13.610  18.891  0.00  0.00    +0.000 A 
ATOM      9  C   UNL     1       2.074  12.441  18.563  0.00  0.00    +0.000 A 
ATOM     10  C   UNL     1       1.180  11.351  18.316  0.00  0.00    +0.000 A 
BRANCH   6  11
ATOM     11  C   UNL     1      -1.401  11.020  18.350  0.00  0.00    +0.000 C 
ATOM     12  O   UNL     1      -2.424  11.233  18.990  0.00  0.00    +0.000 OA
BRANCH  11  14
ATOM     13  C   UNL     1      -2.385   9.982  16.497  0.00  0.00    +0.000 C 
ATOM     14  O   UNL     1      -1.293  10.015  17.421  0.00  0.00    +0.000 OA
ENDBRANCH  11  14
ENDBRANCH   6  11
ENDBRANCH   2  10
ENDBRANCH   1   3
BRANCH   1  15
ATOM     15  S   UNL     1       2.319   6.397  19.480  0.00  0.00    +0.000 S 
BRANCH  15  16
ATOM     16  C   UNL     1       2.684   5.036  18.471  0.00  0.00    +0.000 A 
ATOM     17  N   UNL     1       1.793   4.160  18.059  0.00  0.00    +0.000 NA
ATOM     18  N   UNL     1       2.429   3.396  17.123  0.00  0.00    +0.000 NA
ATOM     19  N   UNL     1       3.676   3.800  16.942  0.00  0.00    +0.000 NA
ATOM     20  N   UNL     1       3.891   4.807  17.829  0.00  0.00    +0.000 N 
BRANCH  20  21
ATOM     21  C   UNL     1       5.179   5.379  18.017  0.00  0.00    +0.000 A 
ATOM     22  C   UNL     1       5.908   5.050  19.176  0.00  0.00    +0.000 A 
ATOM     23  C   UNL     1       7.184   5.574  19.389  0.00  0.00    +0.000 A 
ATOM     24  C   UNL     1       7.754   6.418  18.445  0.00  0.00    +0.000 A 
ATOM     25  C   UNL     1       7.049   6.744  17.288  0.00  0.00    +0.000 A 
ATOM     26  C   UNL     1       5.754   6.241  17.054  0.00  0.00    +0.000 A 
ATOM     27  C   UNL     1       5.027   6.729  15.829  0.00  0.00    +0.000 C 
ENDBRANCH  20  21
ENDBRANCH  15  16
ENDBRANCH   1  15
TORSDOF 7
ENDMDL
MODEL 5
REMARK VINA RESULT:      -7.0      1.612      2.663
REMARK  Name = 
REMARK  9 active torsions:
REMARK  status: ('A' for Active; 'I' for Inactive)
REMARK    1  A    between atoms: C_1  and  O_2
REMARK    2  A    between atoms: O_2  and  C_3
REMARK    3  A    between atoms: C_3  and  C_5
REMARK    4  A    between atoms: C_9  and  N_10
REMARK    5  A    between atoms: C_11  and  C_13
REMARK    6  A    between atoms: C_13  and  S_14
REMARK    7  A    between atoms: S_14  and  C_15
REMARK    8  A    between atoms: N_19  and  C_20
REMARK    9  A    between atoms: C_25  and  C_26
REMARK                            x       y       z     vdW  Elec       q    Type
REMARK                         _______ _______ _______ _____ _____    ______ ____
ROOT
ATOM      1  C   UNL     1       1.984   7.238  20.158  0.00  0.00    +0.000 C 
ENDROOT
BRANCH   1   3
ATOM      2  N   UNL     1       1.118   9.452  19.625  0.00  0.00    +0.000 N 
ATOM      3  C   UNL     1       1.260   8.492  20.621  0.00  0.00    +0.000 C 
ATOM      4  O   UNL     1       0.837   8.585  21.771  0.00  0.00    +0.000 OA
ATOM      5  H   UNL     1       1.277   9.178  18.660  0.00  0.00    +0.000 HD
BRANCH   2  10
ATOM      6  C   UNL     1      -0.522  11.202  19.096  0.00  0.00    +0.000 A 
ATOM      7  S   UNL     1      -0.934  12.805  19.576  0.00  0.00    +0.000 S 
ATOM      8  C   UNL     1       0.305  12.861  20.735  0.00  0.00    +0.000 A 
ATOM      9  C   UNL     1       1.038  11.698  20.754  0.00  0.00    +0.000 A 
ATOM     10  C   UNL     1       0.572  10.722  19.816  0.00  0.00    +0.000 A 
BRANCH   6  11
ATOM     11  C   UNL     1      -1.358  10.591  18.074  0.00  0.00    +0.000 C 
ATOM     12  O   UNL     1      -1.051   9.651  17.351  0.00  0.00    +0.000 OA
BRANCH  11  14
ATOM     13  C   UNL     1      -3.652  10.345  17.684  0.00  0.00    +0.000 C 
ATOM     14  O   UNL     1      -2.572  11.228  18.001  0.00  0.00    +0.000 OA
ENDBRANCH  11  14
ENDBRANCH   6  11
ENDBRANCH   2  10
ENDBRANCH   1   3
BRANCH   1  15
ATOM     15  S   UNL     1       2.316   7.307  18.377  0.00  0.00    +0.000 S 
BRANCH  15  16
ATOM     16  C   UNL     1       2.546   5.626  18.023  0.00  0.00    +0.000 A 
ATOM     17  N   UNL     1       1.567   4.776  17.799  0.00  0.00    +0.000 NA
ATOM     18  N   UNL     1       2.163   3.634  17.346  0.00  0.00    +0.000 NA
ATOM     19  N   UNL     1       3.477   3.777  17.271  0.00  0.00    +0.000 NA
ATOM     20  N   UNL     1       3.762   5.016  17.751  0.00  0.00    +0.000 N 
BRANCH  20  21
ATOM     21  C   UNL     1       5.099   5.451  17.959  0.00  0.00    +0.000 A 
ATOM     22  C   UNL     1       5.725   5.167  19.187  0.00  0.00    +0.000 A 
ATOM     23  C   UNL     1       7.044   5.560  19.424  0.00  0.00    +0.000 A 
ATOM     24  C   UNL     1       7.757   6.225  18.436  0.00  0.00    +0.000 A 
ATOM     25  C   UNL     1       7.154   6.505  17.210  0.00  0.00    +0.000 A 
ATOM     26  C   UNL     1       5.820   6.133  16.951  0.00  0.00    +0.000 A 
ATOM     27  C   UNL     1       5.218   6.567  15.640  0.00  0.00    +0.000 C 
ENDBRANCH  20  21
ENDBRANCH  15  16
ENDBRANCH   1  15
TORSDOF 7
ENDMDL
MODEL 6
REMARK VINA RESULT:      -7.0      1.591      2.282
REMARK  Name = 
REMARK  9 active torsions:
REMARK  status: ('A' for Active; 'I' for Inactive)
REMARK    1  A    between atoms: C_1  and  O_2
REMARK    2  A    between atoms: O_2  and  C_3
REMARK    3  A    between atoms: C_3  and  C_5
REMARK    4  A    between atoms: C_9  and  N_10
REMARK    5  A    between atoms: C_11  and  C_13
REMARK    6  A    between atoms: C_13  and  S_14
REMARK    7  A    between atoms: S_14  and  C_15
REMARK    8  A    between atoms: N_19  and  C_20
REMARK    9  A    between atoms: C_25  and  C_26
REMARK                            x       y       z     vdW  Elec       q    Type
REMARK                         _______ _______ _______ _____ _____    ______ ____
ROOT
ATOM      1  C   UNL     1       2.214   7.751  19.549  0.00  0.00    +0.000 C 
ENDROOT
BRANCH   1   3
ATOM      2  N   UNL     1       0.452   9.416  19.796  0.00  0.00    +0.000 N 
ATOM      3  C   UNL     1       1.522   8.995  19.014  0.00  0.00    +0.000 C 
ATOM      4  O   UNL     1       1.927   9.550  17.995  0.00  0.00    +0.000 OA
ATOM      5  H   UNL     1       0.360   9.041  20.736  0.00  0.00    +0.000 HD
BRANCH   2  10
ATOM      6  C   UNL     1      -0.549  11.606  20.278  0.00  0.00    +0.000 A 
ATOM      7  S   UNL     1      -1.680  12.712  19.594  0.00  0.00    +0.000 S 
ATOM      8  C   UNL     1      -1.958  11.718  18.246  0.00  0.00    +0.000 A 
ATOM      9  C   UNL     1      -1.225  10.556  18.311  0.00  0.00    +0.000 A 
ATOM     10  C   UNL     1      -0.399  10.474  19.477  0.00  0.00    +0.000 A 
BRANCH   6  11
ATOM     11  C   UNL     1       0.086  12.008  21.523  0.00  0.00    +0.000 C 
ATOM     12  O   UNL     1       0.521  13.122  21.791  0.00  0.00    +0.000 OA
BRANCH  11  14
ATOM     13  C   UNL     1      -1.065  10.710  23.094  0.00  0.00    +0.000 C 
ATOM     14  O   UNL     1       0.158  10.946  22.391  0.00  0.00    +0.000 OA
ENDBRANCH  11  14
ENDBRANCH   6  11
ENDBRANCH   2  10
ENDBRANCH   1   3
BRANCH   1  15
ATOM     15  S   UNL     1       2.652   6.626  18.197  0.00  0.00    +0.000 S 
BRANCH  15  16
ATOM     16  C   UNL     1       3.144   5.223  19.087  0.00  0.00    +0.000 A 
ATOM     17  N   UNL     1       2.525   4.769  20.155  0.00  0.00    +0.000 NA
ATOM     18  N   UNL     1       3.078   3.548  20.415  0.00  0.00    +0.000 NA
ATOM     19  N   UNL     1       4.003   3.241  19.518  0.00  0.00    +0.000 NA
ATOM     20  N   UNL     1       4.113   4.313  18.691  0.00  0.00    +0.000 N 
BRANCH  20  21
ATOM     21  C   UNL     1       5.126   4.392  17.696  0.00  0.00    +0.000 A 
ATOM     22  C   UNL     1       4.854   3.895  16.407  0.00  0.00    +0.000 A 
ATOM     23  C   UNL     1       5.814   3.970  15.396  0.00  0.00    +0.000 A 
ATOM     24  C   UNL     1       7.047   4.555  15.652  0.00  0.00    +0.000 A 
ATOM     25  C   UNL     1       7.327   5.060  16.922  0.00  0.00    +0.000 A 
ATOM     26  C   UNL     1       6.382   4.984  17.964  0.00  0.00    +0.000 A 
ATOM     27  C   UNL     1       6.808   5.461  19.327  0.00  0.00    +0.000 C 
ENDBRANCH  20  21
ENDBRANCH  15  16
ENDBRANCH   1  15
TORSDOF 7
ENDMDL
MODEL 7
REMARK VINA RESULT:      -7.0      1.936      3.639
REMARK  Name = 
REMARK  9 active torsions:
REMARK  status: ('A' for Active; 'I' for Inactive)
REMARK    1  A    between atoms: C_1  and  O_2
REMARK    2  A    between atoms: O_2  and  C_3
REMARK    3  A    between atoms: C_3  and  C_5
REMARK    4  A    between atoms: C_9  and  N_10
REMARK    5  A    between atoms: C_11  and  C_13
REMARK    6  A    between atoms: C_13  and  S_14
REMARK    7  A    between atoms: S_14  and  C_15
REMARK    8  A    between atoms: N_19  and  C_20
REMARK    9  A    between atoms: C_25  and  C_26
REMARK                            x       y       z     vdW  Elec       q    Type
REMARK                         _______ _______ _______ _____ _____    ______ ____
ROOT
ATOM      1  C   UNL     1       2.663   7.584  18.871  0.00  0.00    +0.000 C 
ENDROOT
BRANCH   1   3
ATOM      2  N   UNL     1       0.869   9.171  19.317  0.00  0.00    +0.000 N 
ATOM      3  C   UNL     1       1.858   8.791  18.416  0.00  0.00    +0.000 C 
ATOM      4  O   UNL     1       2.116   9.355  17.355  0.00  0.00    +0.000 OA
ATOM      5  H   UNL     1       0.905   8.801  20.262  0.00  0.00    +0.000 HD
BRANCH   2  10
ATOM      6  C   UNL     1      -0.161  11.323  19.899  0.00  0.00    +0.000 A 
ATOM      7  S   UNL     1      -1.414  12.371  19.351  0.00  0.00    +0.000 S 
ATOM      8  C   UNL     1      -1.811  11.348  18.055  0.00  0.00    +0.000 A 
ATOM      9  C   UNL     1      -1.026  10.219  18.039  0.00  0.00    +0.000 A 
ATOM     10  C   UNL     1      -0.060  10.188  19.095  0.00  0.00    +0.000 A 
BRANCH   6  11
ATOM     11  C   UNL     1       0.604  11.768  21.054  0.00  0.00    +0.000 C 
ATOM     12  O   UNL     1       1.772  12.138  21.054  0.00  0.00    +0.000 OA
BRANCH  11  14
ATOM     13  C   UNL     1      -0.374  10.371  22.656  0.00  0.00    +0.000 C 
ATOM     14  O   UNL     1      -0.163  11.707  22.192  0.00  0.00    +0.000 OA
ENDBRANCH  11  14
ENDBRANCH   6  11
ENDBRANCH   2  10
ENDBRANCH   1   3
BRANCH   1  15
ATOM     15  S   UNL     1       3.656   6.922  17.506  0.00  0.00    +0.000 S 
BRANCH  15  16
ATOM     16  C   UNL     1       4.746   5.886  18.368  0.00  0.00    +0.000 A 
ATOM     17  N   UNL     1       5.997   6.190  18.639  0.00  0.00    +0.000 NA
ATOM     18  N   UNL     1       6.432   5.231  19.509  0.00  0.00    +0.000 NA
ATOM     19  N   UNL     1       5.469   4.366  19.788  0.00  0.00    +0.000 NA
ATOM     20  N   UNL     1       4.397   4.719  19.032  0.00  0.00    +0.000 N 
BRANCH  20  21
ATOM     21  C   UNL     1       3.228   3.914  18.965  0.00  0.00    +0.000 A 
ATOM     22  C   UNL     1       3.088   3.001  17.902  0.00  0.00    +0.000 A 
ATOM     23  C   UNL     1       1.964   2.179  17.810  0.00  0.00    +0.000 A 
ATOM     24  C   UNL     1       0.975   2.244  18.783  0.00  0.00    +0.000 A 
ATOM     25  C   UNL     1       1.105   3.136  19.848  0.00  0.00    +0.000 A 
ATOM     26  C   UNL     1       2.221   3.987  19.956  0.00  0.00    +0.000 A 
ATOM     27  C   UNL     1       2.227   4.989  21.081  0.00  0.00    +0.000 C 
ENDBRANCH  20  21
ENDBRANCH  15  16
ENDBRANCH   1  15
TORSDOF 7
ENDMDL
MODEL 8
REMARK VINA RESULT:      -7.0      2.025      3.407
REMARK  Name = 
REMARK  9 active torsions:
REMARK  status: ('A' for Active; 'I' for Inactive)
REMARK    1  A    between atoms: C_1  and  O_2
REMARK    2  A    between atoms: O_2  and  C_3
REMARK    3  A    between atoms: C_3  and  C_5
REMARK    4  A    between atoms: C_9  and  N_10
REMARK    5  A    between atoms: C_11  and  C_13
REMARK    6  A    between atoms: C_13  and  S_14
REMARK    7  A    between atoms: S_14  and  C_15
REMARK    8  A    between atoms: N_19  and  C_20
REMARK    9  A    between atoms: C_25  and  C_26
REMARK                            x       y       z     vdW  Elec       q    Type
REMARK                         _______ _______ _______ _____ _____    ______ ____
ROOT
ATOM      1  C   UNL     1       2.630   7.645  18.738  0.00  0.00    +0.000 C 
ENDROOT
BRANCH   1   3
ATOM      2  N   UNL     1       0.806   9.235  19.022  0.00  0.00    +0.000 N 
ATOM      3  C   UNL     1       1.911   8.893  18.250  0.00  0.00    +0.000 C 
ATOM      4  O   UNL     1       2.326   9.516  17.276  0.00  0.00    +0.000 OA
ATOM      5  H   UNL     1       0.701   8.806  19.937  0.00  0.00    +0.000 HD
BRANCH   2  10
ATOM      6  C   UNL     1       0.089  11.575  19.230  0.00  0.00    +0.000 A 
ATOM      7  S   UNL     1      -1.172  12.615  18.687  0.00  0.00    +0.000 S 
ATOM      8  C   UNL     1      -1.915  11.379  17.792  0.00  0.00    +0.000 A 
ATOM      9  C   UNL     1      -1.238  10.188  17.910  0.00  0.00    +0.000 A 
ATOM     10  C   UNL     1      -0.071  10.281  18.734  0.00  0.00    +0.000 A 
BRANCH   6  11
ATOM     11  C   UNL     1       1.116  12.175  20.067  0.00  0.00    +0.000 C 
ATOM     12  O   UNL     1       1.499  11.763  21.156  0.00  0.00    +0.000 OA
BRANCH  11  14
ATOM     13  C   UNL     1       2.590  13.040  18.469  0.00  0.00    +0.000 C 
ATOM     14  O   UNL     1       1.613  13.311  19.478  0.00  0.00    +0.000 OA
ENDBRANCH  11  14
ENDBRANCH   6  11
ENDBRANCH   2  10
ENDBRANCH   1   3
BRANCH   1  15
ATOM     15  S   UNL     1       3.410   6.769  17.356  0.00  0.00    +0.000 S 
BRANCH  15  16
ATOM     16  C   UNL     1       4.671   5.913  18.181  0.00  0.00    +0.000 A 
ATOM     17  N   UNL     1       5.947   6.221  18.105  0.00  0.00    +0.000 NA
ATOM     18  N   UNL     1       6.569   5.467  19.059  0.00  0.00    +0.000 NA
ATOM     19  N   UNL     1       5.698   4.725  19.725  0.00  0.00    +0.000 NA
ATOM     20  N   UNL     1       4.485   4.940  19.152  0.00  0.00    +0.000 N 
BRANCH  20  21
ATOM     21  C   UNL     1       3.338   4.186  19.519  0.00  0.00    +0.000 A 
ATOM     22  C   UNL     1       2.579   4.597  20.632  0.00  0.00    +0.000 A 
ATOM     23  C   UNL     1       1.435   3.896  21.015  0.00  0.00    +0.000 A 
ATOM     24  C   UNL     1       1.024   2.788  20.286  0.00  0.00    +0.000 A 
ATOM     25  C   UNL     1       1.759   2.374  19.175  0.00  0.00    +0.000 A 
ATOM     26  C   UNL     1       2.926   3.055  18.776  0.00  0.00    +0.000 A 
ATOM     27  C   UNL     1       3.713   2.476  17.630  0.00  0.00    +0.000 C 
ENDBRANCH  20  21
ENDBRANCH  15  16
ENDBRANCH   1  15
TORSDOF 7
ENDMDL
MODEL 9
REMARK VINA RESULT:      -7.0      5.280      7.393
REMARK  Name = 
REMARK  9 active torsions:
REMARK  status: ('A' for Active; 'I' for Inactive)
REMARK    1  A    between atoms: C_1  and  O_2
REMARK    2  A    between atoms: O_2  and  C_3
REMARK    3  A    between atoms: C_3  and  C_5
REMARK    4  A    between atoms: C_9  and  N_10
REMARK    5  A    between atoms: C_11  and  C_13
REMARK    6  A    between atoms: C_13  and  S_14
REMARK    7  A    between atoms: S_14  and  C_15
REMARK    8  A    between atoms: N_19  and  C_20
REMARK    9  A    between atoms: C_25  and  C_26
REMARK                            x       y       z     vdW  Elec       q    Type
REMARK                         _______ _______ _______ _____ _____    ______ ____
ROOT
ATOM      1  C   UNL     1       7.696   8.853  17.591  0.00  0.00    +0.000 C 
ENDROOT
BRANCH   1   3
ATOM      2  N   UNL     1       8.903  10.953  17.852  0.00  0.00    +0.000 N 
ATOM      3  C   UNL     1       8.661   9.701  18.405  0.00  0.00    +0.000 C 
ATOM      4  O   UNL     1       9.132   9.279  19.459  0.00  0.00    +0.000 OA
ATOM      5  H   UNL     1       8.279  11.292  17.126  0.00  0.00    +0.000 HD
BRANCH   2  10
ATOM      6  C   UNL     1       9.576  13.256  18.379  0.00  0.00    +0.000 A 
ATOM      7  S   UNL     1      10.907  14.112  19.060  0.00  0.00    +0.000 S 
ATOM      8  C   UNL     1      11.784  12.686  19.339  0.00  0.00    +0.000 A 
ATOM      9  C   UNL     1      11.098  11.574  18.910  0.00  0.00    +0.000 A 
ATOM     10  C   UNL     1       9.814  11.882  18.356  0.00  0.00    +0.000 A 
BRANCH   6  11
ATOM     11  C   UNL     1       8.428  14.050  17.971  0.00  0.00    +0.000 C 
ATOM     12  O   UNL     1       7.370  13.623  17.525  0.00  0.00    +0.000 OA
BRANCH  11  14
ATOM     13  C   UNL     1       7.588  16.106  18.709  0.00  0.00    +0.000 C 
ATOM     14  O   UNL     1       8.685  15.389  18.137  0.00  0.00    +0.000 OA
ENDBRANCH  11  14
ENDBRANCH   6  11
ENDBRANCH   2  10
ENDBRANCH   1   3
BRANCH   1  15
ATOM     15  S   UNL     1       7.791   7.112  18.088  0.00  0.00    +0.000 S 
BRANCH  15  16
ATOM     16  C   UNL     1       6.956   6.352  16.773  0.00  0.00    +0.000 A 
ATOM     17  N   UNL     1       7.537   5.934  15.670  0.00  0.00    +0.000 NA
ATOM     18  N   UNL     1       6.591   5.207  15.004  0.00  0.00    +0.000 NA
ATOM     19  N   UNL     1       5.458   5.156  15.687  0.00  0.00    +0.000 NA
ATOM     20  N   UNL     1       5.636   5.926  16.793  0.00  0.00    +0.000 N 
BRANCH  20  21
ATOM     21  C   UNL     1       4.566   6.221  17.681  0.00  0.00    +0.000 A 
ATOM     22  C   UNL     1       3.775   7.361  17.441  0.00  0.00    +0.000 A 
ATOM     23  C   UNL     1       2.704   7.676  18.277  0.00  0.00    +0.000 A 
ATOM     24  C   UNL     1       2.397   6.852  19.352  0.00  0.00    +0.000 A 
ATOM     25  C   UNL     1       3.165   5.714  19.597  0.00  0.00    +0.000 A 
ATOM     26  C   UNL     1       4.261   5.381  18.778  0.00  0.00    +0.000 A 
ATOM     27  C   UNL     1       5.095   4.193  19.178  0.00  0.00    +0.000 C 
ENDBRANCH  20  21
ENDBRANCH  15  16
ENDBRANCH   1  15
TORSDOF 7
ENDMDL
