MODEL 1
REMARK VINA RESULT:      -8.0      0.000      0.000
REMARK  Name = 
REMARK  8 active torsions:
REMARK  status: ('A' for Active; 'I' for Inactive)
REMARK    1  A    between atoms: C_1  and  C_2
REMARK    2  A    between atoms: C_2  and  O_3
REMARK    3  A    between atoms: O_3  and  C_4
REMARK    4  A    between atoms: C_7  and  C_8
REMARK    5  A    between atoms: C_13  and  N_14
REMARK    6  A    between atoms: N_17  and  C_18
REMARK    7  A    between atoms: C_18  and  C_19
REMARK    8  A    between atoms: C_22  and  C_23
REMARK                            x       y       z     vdW  Elec       q    Type
REMARK                         _______ _______ _______ _____ _____    ______ ____
ROOT
ATOM      1  C   UNL     1       2.977   4.165  18.316  0.00  0.00    +0.000 A 
ATOM      2  C   UNL     1       3.623   3.386  17.341  0.00  0.00    +0.000 A 
ATOM      3  C   UNL     1       4.956   3.615  17.003  0.00  0.00    +0.000 A 
ATOM      4  C   UNL     1       5.667   4.644  17.617  0.00  0.00    +0.000 A 
ATOM      5  C   UNL     1       5.006   5.460  18.549  0.00  0.00    +0.000 A 
ATOM      6  C   UNL     1       3.659   5.259  18.888  0.00  0.00    +0.000 A 
ENDROOT
BRANCH   6   7
ATOM      7  N   UNL     1       3.002   6.112  19.819  0.00  0.00    +0.000 N 
ATOM      8  C   UNL     1       2.296   7.252  19.481  0.00  0.00    +0.000 C 
ATOM      9  O   UNL     1       2.004   7.612  18.350  0.00  0.00    +0.000 OA
ATOM     10  N   UNL     1       1.928   7.999  20.576  0.00  0.00    +0.000 N 
ATOM     11  H   UNL     1       2.845   5.720  20.736  0.00  0.00    +0.000 HD
ATOM     12  H   UNL     1       2.530   7.953  21.384  0.00  0.00    +0.000 HD
BRANCH  10  13
ATOM     13  C   UNL     1       1.329   9.302  20.316  0.00  0.00    +0.000 C 
BRANCH  13  14
ATOM     14  C   UNL     1       0.604   9.806  21.513  0.00  0.00    +0.000 A 
ATOM     15  N   UNL     1       0.979   9.499  22.763  0.00  0.00    +0.000 NA
ATOM     16  O   UNL     1       0.028  10.147  23.551  0.00  0.00    +0.000 OA
ATOM     17  C   UNL     1      -0.826  10.771  22.690  0.00  0.00    +0.000 A 
ATOM     18  C   UNL     1      -1.931  11.539  23.289  0.00  0.00    +0.000 C 
ATOM     19  N   UNL     1      -0.526  10.588  21.424  0.00  0.00    +0.000 NA
ENDBRANCH  13  14
ENDBRANCH  10  13
ENDBRANCH   6   7
BRANCH   4  20
ATOM     20  C   UNL     1       7.117   4.904  17.300  0.00  0.00    +0.000 C 
ATOM     21  F   UNL     1       7.440   6.228  17.310  0.00  0.00    +0.000 F 
ATOM     22  F   UNL     1       7.962   4.308  18.181  0.00  0.00    +0.000 F 
ATOM     23  F   UNL     1       7.470   4.447  16.065  0.00  0.00    +0.000 F 
ENDBRANCH   4  20
BRANCH   1  24
ATOM     24  O   UNL     1       1.694   3.905  18.746  0.00  0.00    +0.000 OA
BRANCH  24  26
ATOM     25  C   UNL     1       1.366   2.948  20.943  0.00  0.00    +0.000 C 
ATOM     26  C   UNL     1       1.547   2.669  19.465  0.00  0.00    +0.000 C 
ENDBRANCH  24  26
ENDBRANCH   1  24
TORSDOF 6
ENDMDL
MODEL 2
REMARK VINA RESULT:      -7.9      0.548      1.017
REMARK  Name = 
REMARK  8 active torsions:
REMARK  status: ('A' for Active; 'I' for Inactive)
REMARK    1  A    between atoms: C_1  and  C_2
REMARK    2  A    between atoms: C_2  and  O_3
REMARK    3  A    between atoms: O_3  and  C_4
REMARK    4  A    between atoms: C_7  and  C_8
REMARK    5  A    between atoms: C_13  and  N_14
REMARK    6  A    between atoms: N_17  and  C_18
REMARK    7  A    between atoms: C_18  and  C_19
REMARK    8  A    between atoms: C_22  and  C_23
REMARK                            x       y       z     vdW  Elec       q    Type
REMARK                         _______ _______ _______ _____ _____    ______ ____
ROOT
ATOM      1  C   UNL     1       3.228   4.158  18.584  0.00  0.00    +0.000 A 
ATOM      2  C   UNL     1       4.030   3.423  17.693  0.00  0.00    +0.000 A 
ATOM      3  C   UNL     1       5.373   3.744  17.503  0.00  0.00    +0.000 A 
ATOM      4  C   UNL     1       5.940   4.820  18.182  0.00  0.00    +0.000 A 
ATOM      5  C   UNL     1       5.126   5.591  19.027  0.00  0.00    +0.000 A 
ATOM      6  C   UNL     1       3.766   5.297  19.217  0.00  0.00    +0.000 A 
ENDROOT
BRANCH   6   7
ATOM      7  N   UNL     1       2.953   6.104  20.062  0.00  0.00    +0.000 N 
ATOM      8  C   UNL     1       2.297   7.254  19.661  0.00  0.00    +0.000 C 
ATOM      9  O   UNL     1       2.191   7.661  18.513  0.00  0.00    +0.000 OA
ATOM     10  N   UNL     1       1.744   7.950  20.710  0.00  0.00    +0.000 N 
ATOM     11  H   UNL     1       2.652   5.671  20.923  0.00  0.00    +0.000 HD
ATOM     12  H   UNL     1       2.204   7.871  21.604  0.00  0.00    +0.000 HD
BRANCH  10  13
ATOM     13  C   UNL     1       1.179   9.259  20.410  0.00  0.00    +0.000 C 
BRANCH  13  14
ATOM     14  C   UNL     1       0.466   9.817  21.590  0.00  0.00    +0.000 A 
ATOM     15  N   UNL     1       0.847   9.559  22.849  0.00  0.00    +0.000 NA
ATOM     16  O   UNL     1      -0.094  10.246  23.616  0.00  0.00    +0.000 OA
ATOM     17  C   UNL     1      -0.949  10.841  22.736  0.00  0.00    +0.000 A 
ATOM     18  C   UNL     1      -2.044  11.642  23.310  0.00  0.00    +0.000 C 
ATOM     19  N   UNL     1      -0.658  10.604  21.477  0.00  0.00    +0.000 NA
ENDBRANCH  13  14
ENDBRANCH  10  13
ENDBRANCH   6   7
BRANCH   4  20
ATOM     20  C   UNL     1       7.395   5.179  18.024  0.00  0.00    +0.000 C 
ATOM     21  F   UNL     1       8.166   4.129  17.624  0.00  0.00    +0.000 F 
ATOM     22  F   UNL     1       7.597   6.160  17.106  0.00  0.00    +0.000 F 
ATOM     23  F   UNL     1       7.951   5.624  19.186  0.00  0.00    +0.000 F 
ENDBRANCH   4  20
BRANCH   1  24
ATOM     24  O   UNL     1       1.926   3.810  18.872  0.00  0.00    +0.000 OA
BRANCH  24  26
ATOM     25  C   UNL     1       2.236   2.695  20.995  0.00  0.00    +0.000 C 
ATOM     26  C   UNL     1       1.784   2.554  19.557  0.00  0.00    +0.000 C 
ENDBRANCH  24  26
ENDBRANCH   1  24
TORSDOF 6
ENDMDL
MODEL 3
REMARK VINA RESULT:      -7.9      5.697      7.686
REMARK  Name = 
REMARK  8 active torsions:
REMARK  status: ('A' for Active; 'I' for Inactive)
REMARK    1  A    between atoms: C_1  and  C_2
REMARK    2  A    between atoms: C_2  and  O_3
REMARK    3  A    between atoms: O_3  and  C_4
REMARK    4  A    between atoms: C_7  and  C_8
REMARK    5  A    between atoms: C_13  and  N_14
REMARK    6  A    between atoms: N_17  and  C_18
REMARK    7  A    between atoms: C_18  and  C_19
REMARK    8  A    between atoms: C_22  and  C_23
REMARK                            x       y       z     vdW  Elec       q    Type
REMARK                         _______ _______ _______ _____ _____    ______ ____
ROOT
ATOM      1  C   UNL     1       6.424   5.338  15.870  0.00  0.00    +0.000 A 
ATOM      2  C   UNL     1       5.680   4.146  15.844  0.00  0.00    +0.000 A 
ATOM      3  C   UNL     1       4.491   4.025  16.562  0.00  0.00    +0.000 A 
ATOM      4  C   UNL     1       4.030   5.085  17.339  0.00  0.00    +0.000 A 
ATOM      5  C   UNL     1       4.802   6.256  17.412  0.00  0.00    +0.000 A 
ATOM      6  C   UNL     1       6.012   6.391  16.713  0.00  0.00    +0.000 A 
ENDROOT
BRANCH   6   7
ATOM      7  N   UNL     1       6.791   7.578  16.818  0.00  0.00    +0.000 N 
ATOM      8  C   UNL     1       7.714   7.830  17.818  0.00  0.00    +0.000 C 
ATOM      9  O   UNL     1       8.105   7.032  18.656  0.00  0.00    +0.000 OA
ATOM     10  N   UNL     1       8.182   9.123  17.800  0.00  0.00    +0.000 N 
ATOM     11  H   UNL     1       6.840   8.143  15.983  0.00  0.00    +0.000 HD
ATOM     12  H   UNL     1       7.557   9.831  17.447  0.00  0.00    +0.000 HD
BRANCH  10  13
ATOM     13  C   UNL     1       9.028   9.533  18.914  0.00  0.00    +0.000 C 
BRANCH  13  14
ATOM     14  C   UNL     1       9.547  10.913  18.711  0.00  0.00    +0.000 A 
ATOM     15  N   UNL     1       9.294  11.910  19.571  0.00  0.00    +0.000 NA
ATOM     16  O   UNL     1       9.935  13.004  18.990  0.00  0.00    +0.000 OA
ATOM     17  C   UNL     1      10.501  12.551  17.835  0.00  0.00    +0.000 A 
ATOM     18  C   UNL     1      11.251  13.532  17.032  0.00  0.00    +0.000 C 
ATOM     19  N   UNL     1      10.287  11.275  17.608  0.00  0.00    +0.000 NA
ENDBRANCH  13  14
ENDBRANCH  10  13
ENDBRANCH   6   7
BRANCH   4  20
ATOM     20  C   UNL     1       2.735   5.002  18.105  0.00  0.00    +0.000 C 
ATOM     21  F   UNL     1       1.939   3.971  17.703  0.00  0.00    +0.000 F 
ATOM     22  F   UNL     1       2.924   4.828  19.439  0.00  0.00    +0.000 F 
ATOM     23  F   UNL     1       1.977   6.127  17.970  0.00  0.00    +0.000 F 
ENDBRANCH   4  20
BRANCH   1  24
ATOM     24  O   UNL     1       7.549   5.529  15.097  0.00  0.00    +0.000 OA
BRANCH  24  26
ATOM     25  C   UNL     1       8.321   5.734  12.815  0.00  0.00    +0.000 C 
ATOM     26  C   UNL     1       7.480   4.936  13.790  0.00  0.00    +0.000 C 
ENDBRANCH  24  26
ENDBRANCH   1  24
TORSDOF 6
ENDMDL
MODEL 4
REMARK VINA RESULT:      -7.7      4.233      8.072
REMARK  Name = 
REMARK  8 active torsions:
REMARK  status: ('A' for Active; 'I' for Inactive)
REMARK    1  A    between atoms: C_1  and  C_2
REMARK    2  A    between atoms: C_2  and  O_3
REMARK    3  A    between atoms: O_3  and  C_4
REMARK    4  A    between atoms: C_7  and  C_8
REMARK    5  A    between atoms: C_13  and  N_14
REMARK    6  A    between atoms: N_17  and  C_18
REMARK    7  A    between atoms: C_18  and  C_19
REMARK    8  A    between atoms: C_22  and  C_23
REMARK                            x       y       z     vdW  Elec       q    Type
REMARK                         _______ _______ _______ _____ _____    ______ ____
ROOT
ATOM      1  C   UNL     1       2.078   6.197  20.109  0.00  0.00    +0.000 A 
ATOM      2  C   UNL     1       1.499   7.193  20.913  0.00  0.00    +0.000 A 
ATOM      3  C   UNL     1       1.265   8.474  20.415  0.00  0.00    +0.000 A 
ATOM      4  C   UNL     1       1.625   8.794  19.108  0.00  0.00    +0.000 A 
ATOM      5  C   UNL     1       2.257   7.818  18.322  0.00  0.00    +0.000 A 
ATOM      6  C   UNL     1       2.520   6.528  18.811  0.00  0.00    +0.000 A 
ENDROOT
BRANCH   6   7
ATOM      7  N   UNL     1       3.181   5.559  18.005  0.00  0.00    +0.000 N 
ATOM      8  C   UNL     1       4.539   5.298  18.039  0.00  0.00    +0.000 C 
ATOM      9  O   UNL     1       5.338   5.738  18.854  0.00  0.00    +0.000 OA
ATOM     10  N   UNL     1       4.950   4.462  17.028  0.00  0.00    +0.000 N 
ATOM     11  H   UNL     1       2.584   4.870  17.572  0.00  0.00    +0.000 HD
ATOM     12  H   UNL     1       4.426   4.493  16.167  0.00  0.00    +0.000 HD
BRANCH  10  13
ATOM     13  C   UNL     1       6.386   4.264  16.879  0.00  0.00    +0.000 C 
BRANCH  13  14
ATOM     14  C   UNL     1       6.825   4.556  15.487  0.00  0.00    +0.000 A 
ATOM     15  N   UNL     1       7.624   5.590  15.187  0.00  0.00    +0.000 NA
ATOM     16  O   UNL     1       7.753   5.503  13.801  0.00  0.00    +0.000 OA
ATOM     17  C   UNL     1       7.010   4.428  13.411  0.00  0.00    +0.000 A 
ATOM     18  C   UNL     1       6.990   4.120  11.971  0.00  0.00    +0.000 C 
ATOM     19  N   UNL     1       6.410   3.814  14.405  0.00  0.00    +0.000 NA
ENDBRANCH  13  14
ENDBRANCH  10  13
ENDBRANCH   6   7
BRANCH   4  20
ATOM     20  C   UNL     1       1.361  10.159  18.526  0.00  0.00    +0.000 C 
ATOM     21  F   UNL     1       2.258  10.514  17.563  0.00  0.00    +0.000 F 
ATOM     22  F   UNL     1       0.136  10.255  17.947  0.00  0.00    +0.000 F 
ATOM     23  F   UNL     1       1.418  11.146  19.464  0.00  0.00    +0.000 F 
ENDBRANCH   4  20
BRANCH   1  24
ATOM     24  O   UNL     1       2.234   4.895  20.533  0.00  0.00    +0.000 OA
BRANCH  24  26
ATOM     25  C   UNL     1       1.155   2.934  19.617  0.00  0.00    +0.000 C 
ATOM     26  C   UNL     1       1.020   4.124  20.544  0.00  0.00    +0.000 C 
ENDBRANCH  24  26
ENDBRANCH   1  24
TORSDOF 6
ENDMDL
MODEL 5
REMARK VINA RESULT:      -7.6      4.539      8.333
REMARK  Name = 
REMARK  8 active torsions:
REMARK  status: ('A' for Active; 'I' for Inactive)
REMARK    1  A    between atoms: C_1  and  C_2
REMARK    2  A    between atoms: C_2  and  O_3
REMARK    3  A    between atoms: O_3  and  C_4
REMARK    4  A    between atoms: C_7  and  C_8
REMARK    5  A    between atoms: C_13  and  N_14
REMARK    6  A    between atoms: N_17  and  C_18
REMARK    7  A    between atoms: C_18  and  C_19
REMARK    8  A    between atoms: C_22  and  C_23
REMARK                            x       y       z     vdW  Elec       q    Type
REMARK                         _______ _______ _______ _____ _____    ______ ____
ROOT
ATOM      1  C   UNL     1       2.598   6.020  19.843  0.00  0.00    +0.000 A 
ATOM      2  C   UNL     1       1.918   6.903  20.700  0.00  0.00    +0.000 A 
ATOM      3  C   UNL     1       1.492   8.153  20.254  0.00  0.00    +0.000 A 
ATOM      4  C   UNL     1       1.755   8.558  18.947  0.00  0.00    +0.000 A 
ATOM      5  C   UNL     1       2.484   7.701  18.108  0.00  0.00    +0.000 A 
ATOM      6  C   UNL     1       2.940   6.446  18.543  0.00  0.00    +0.000 A 
ENDROOT
BRANCH   6   7
ATOM      7  N   UNL     1       3.697   5.602  17.682  0.00  0.00    +0.000 N 
ATOM      8  C   UNL     1       4.996   5.851  17.277  0.00  0.00    +0.000 C 
ATOM      9  O   UNL     1       5.730   6.730  17.704  0.00  0.00    +0.000 OA
ATOM     10  N   UNL     1       5.425   4.988  16.296  0.00  0.00    +0.000 N 
ATOM     11  H   UNL     1       3.344   4.663  17.571  0.00  0.00    +0.000 HD
ATOM     12  H   UNL     1       4.724   4.617  15.673  0.00  0.00    +0.000 HD
BRANCH  10  13
ATOM     13  C   UNL     1       6.717   5.274  15.684  0.00  0.00    +0.000 C 
BRANCH  13  14
ATOM     14  C   UNL     1       6.785   4.732  14.301  0.00  0.00    +0.000 A 
ATOM     15  N   UNL     1       7.589   5.253  13.363  0.00  0.00    +0.000 NA
ATOM     16  O   UNL     1       7.318   4.472  12.239  0.00  0.00    +0.000 OA
ATOM     17  C   UNL     1       6.371   3.567  12.617  0.00  0.00    +0.000 A 
ATOM     18  C   UNL     1       5.916   2.613  11.592  0.00  0.00    +0.000 C 
ATOM     19  N   UNL     1       5.999   3.686  13.871  0.00  0.00    +0.000 NA
ENDBRANCH  13  14
ENDBRANCH  10  13
ENDBRANCH   6   7
BRANCH   4  20
ATOM     20  C   UNL     1       1.285   9.889  18.421  0.00  0.00    +0.000 C 
ATOM     21  F   UNL     1       0.133   9.804  17.697  0.00  0.00    +0.000 F 
ATOM     22  F   UNL     1       1.037  10.787  19.410  0.00  0.00    +0.000 F 
ATOM     23  F   UNL     1       2.197  10.474  17.594  0.00  0.00    +0.000 F 
ENDBRANCH   4  20
BRANCH   1  24
ATOM     24  O   UNL     1       2.946   4.740  20.217  0.00  0.00    +0.000 OA
BRANCH  24  26
ATOM     25  C   UNL     1       0.965   3.355  20.146  0.00  0.00    +0.000 C 
ATOM     26  C   UNL     1       1.967   4.070  21.029  0.00  0.00    +0.000 C 
ENDBRANCH  24  26
ENDBRANCH   1  24
TORSDOF 6
ENDMDL
MODEL 6
REMARK VINA RESULT:      -7.5      1.097      1.287
REMARK  Name = 
REMARK  8 active torsions:
REMARK  status: ('A' for Active; 'I' for Inactive)
REMARK    1  A    between atoms: C_1  and  C_2
REMARK    2  A    between atoms: C_2  and  O_3
REMARK    3  A    between atoms: O_3  and  C_4
REMARK    4  A    between atoms: C_7  and  C_8
REMARK    5  A    between atoms: C_13  and  N_14
REMARK    6  A    between atoms: N_17  and  C_18
REMARK    7  A    between atoms: C_18  and  C_19
REMARK    8  A    between atoms: C_22  and  C_23
REMARK                            x       y       z     vdW  Elec       q    Type
REMARK                         _______ _______ _______ _____ _____    ______ ____
ROOT
ATOM      1  C   UNL     1       2.924   4.666  17.786  0.00  0.00    +0.000 A 
ATOM      2  C   UNL     1       3.761   3.841  17.016  0.00  0.00    +0.000 A 
ATOM      3  C   UNL     1       5.142   4.033  16.997  0.00  0.00    +0.000 A 
ATOM      4  C   UNL     1       5.715   5.070  17.731  0.00  0.00    +0.000 A 
ATOM      5  C   UNL     1       4.875   5.930  18.454  0.00  0.00    +0.000 A 
ATOM      6  C   UNL     1       3.481   5.766  18.471  0.00  0.00    +0.000 A 
ENDROOT
BRANCH   6   7
ATOM      7  N   UNL     1       2.645   6.665  19.193  0.00  0.00    +0.000 N 
ATOM      8  C   UNL     1       2.197   7.882  18.715  0.00  0.00    +0.000 C 
ATOM      9  O   UNL     1       2.317   8.298  17.572  0.00  0.00    +0.000 OA
ATOM     10  N   UNL     1       1.572   8.639  19.679  0.00  0.00    +0.000 N 
ATOM     11  H   UNL     1       2.167   6.271  19.990  0.00  0.00    +0.000 HD
ATOM     12  H   UNL     1       1.876   8.509  20.631  0.00  0.00    +0.000 HD
BRANCH  10  13
ATOM     13  C   UNL     1       1.215  10.005  19.317  0.00  0.00    +0.000 C 
BRANCH  13  14
ATOM     14  C   UNL     1       0.640  10.733  20.479  0.00  0.00    +0.000 A 
ATOM     15  N   UNL     1       1.196  11.847  20.978  0.00  0.00    +0.000 NA
ATOM     16  O   UNL     1       0.363  12.169  22.049  0.00  0.00    +0.000 OA
ATOM     17  C   UNL     1      -0.605  11.209  22.088  0.00  0.00    +0.000 A 
ATOM     18  C   UNL     1      -1.623  11.333  23.145  0.00  0.00    +0.000 C 
ATOM     19  N   UNL     1      -0.479  10.296  21.152  0.00  0.00    +0.000 NA
ENDBRANCH  13  14
ENDBRANCH  10  13
ENDBRANCH   6   7
BRANCH   4  20
ATOM     20  C   UNL     1       7.205   5.290  17.758  0.00  0.00    +0.000 C 
ATOM     21  F   UNL     1       7.712   5.378  19.021  0.00  0.00    +0.000 F 
ATOM     22  F   UNL     1       7.895   4.291  17.149  0.00  0.00    +0.000 F 
ATOM     23  F   UNL     1       7.573   6.444  17.133  0.00  0.00    +0.000 F 
ENDBRANCH   4  20
BRANCH   1  24
ATOM     24  O   UNL     1       1.569   4.446  17.908  0.00  0.00    +0.000 OA
BRANCH  24  26
ATOM     25  C   UNL     1       0.936   3.409  19.999  0.00  0.00    +0.000 C 
ATOM     26  C   UNL     1       1.224   3.195  18.527  0.00  0.00    +0.000 C 
ENDBRANCH  24  26
ENDBRANCH   1  24
TORSDOF 6
ENDMDL
MODEL 7
REMARK VINA RESULT:      -7.4      2.206      2.587
REMARK  Name = 
REMARK  8 active torsions:
REMARK  status: ('A' for Active; 'I' for Inactive)
REMARK    1  A    between atoms: C_1  and  C_2
REMARK    2  A    between atoms: C_2  and  O_3
REMARK    3  A    between atoms: O_3  and  C_4
REMARK    4  A    between atoms: C_7  and  C_8
REMARK    5  A    between atoms: C_13  and  N_14
REMARK    6  A    between atoms: N_17  and  C_18
REMARK    7  A    between atoms: C_18  and  C_19
REMARK    8  A    between atoms: C_22  and  C_23
REMARK                            x       y       z     vdW  Elec       q    Type
REMARK                         _______ _______ _______ _____ _____    ______ ____
ROOT
ATOM      1  C   UNL     1       2.781   4.600  17.774  0.00  0.00    +0.000 A 
ATOM      2  C   UNL     1       3.546   3.667  17.052  0.00  0.00    +0.000 A 
ATOM      3  C   UNL     1       4.911   3.861  16.846  0.00  0.00    +0.000 A 
ATOM      4  C   UNL     1       5.537   5.005  17.337  0.00  0.00    +0.000 A 
ATOM      5  C   UNL     1       4.764   5.965  18.007  0.00  0.00    +0.000 A 
ATOM      6  C   UNL     1       3.384   5.798  18.208  0.00  0.00    +0.000 A 
ENDROOT
BRANCH   6   7
ATOM      7  N   UNL     1       2.614   6.795  18.870  0.00  0.00    +0.000 N 
ATOM      8  C   UNL     1       2.246   8.007  18.315  0.00  0.00    +0.000 C 
ATOM      9  O   UNL     1       2.391   8.339  17.147  0.00  0.00    +0.000 OA
ATOM     10  N   UNL     1       1.678   8.864  19.227  0.00  0.00    +0.000 N 
ATOM     11  H   UNL     1       2.113   6.486  19.691  0.00  0.00    +0.000 HD
ATOM     12  H   UNL     1       1.976   8.776  20.186  0.00  0.00    +0.000 HD
BRANCH  10  13
ATOM     13  C   UNL     1       1.413  10.225  18.777  0.00  0.00    +0.000 C 
BRANCH  13  14
ATOM     14  C   UNL     1      -0.049  10.469  18.643  0.00  0.00    +0.000 A 
ATOM     15  N   UNL     1      -0.722  11.283  19.469  0.00  0.00    +0.000 NA
ATOM     16  O   UNL     1      -2.034  11.197  19.006  0.00  0.00    +0.000 OA
ATOM     17  C   UNL     1      -2.015  10.331  17.953  0.00  0.00    +0.000 A 
ATOM     18  C   UNL     1      -3.300  10.074  17.280  0.00  0.00    +0.000 C 
ATOM     19  N   UNL     1      -0.823   9.845  17.690  0.00  0.00    +0.000 NA
ENDBRANCH  13  14
ENDBRANCH  10  13
ENDBRANCH   6   7
BRANCH   4  20
ATOM     20  C   UNL     1       7.016   5.235  17.159  0.00  0.00    +0.000 C 
ATOM     21  F   UNL     1       7.464   4.911  15.913  0.00  0.00    +0.000 F 
ATOM     22  F   UNL     1       7.373   6.531  17.357  0.00  0.00    +0.000 F 
ATOM     23  F   UNL     1       7.766   4.496  18.024  0.00  0.00    +0.000 F 
ENDBRANCH   4  20
BRANCH   1  24
ATOM     24  O   UNL     1       1.454   4.394  18.082  0.00  0.00    +0.000 OA
BRANCH  24  26
ATOM     25  C   UNL     1       1.218   3.547  20.335  0.00  0.00    +0.000 C 
ATOM     26  C   UNL     1       1.201   3.210  18.858  0.00  0.00    +0.000 C 
ENDBRANCH  24  26
ENDBRANCH   1  24
TORSDOF 6
ENDMDL
MODEL 8
REMARK VINA RESULT:      -7.4      5.700      7.381
REMARK  Name = 
REMARK  8 active torsions:
REMARK  status: ('A' for Active; 'I' for Inactive)
REMARK    1  A    between atoms: C_1  and  C_2
REMARK    2  A    between atoms: C_2  and  O_3
REMARK    3  A    between atoms: O_3  and  C_4
REMARK    4  A    between atoms: C_7  and  C_8
REMARK    5  A    between atoms: C_13  and  N_14
REMARK    6  A    between atoms: N_17  and  C_18
REMARK    7  A    between atoms: C_18  and  C_19
REMARK    8  A    between atoms: C_22  and  C_23
REMARK                            x       y       z     vdW  Elec       q    Type
REMARK                         _______ _______ _______ _____ _____    ______ ____
ROOT
ATOM      1  C   UNL     1       6.367   5.447  15.854  0.00  0.00    +0.000 A 
ATOM      2  C   UNL     1       5.634   4.248  15.823  0.00  0.00    +0.000 A 
ATOM      3  C   UNL     1       4.530   4.057  16.653  0.00  0.00    +0.000 A 
ATOM      4  C   UNL     1       4.148   5.053  17.549  0.00  0.00    +0.000 A 
ATOM      5  C   UNL     1       4.913   6.227  17.623  0.00  0.00    +0.000 A 
ATOM      6  C   UNL     1       6.040   6.430  16.810  0.00  0.00    +0.000 A 
ENDROOT
BRANCH   6   7
ATOM      7  N   UNL     1       6.816   7.619  16.917  0.00  0.00    +0.000 N 
ATOM      8  C   UNL     1       7.775   7.851  17.885  0.00  0.00    +0.000 C 
ATOM      9  O   UNL     1       8.204   7.034  18.687  0.00  0.00    +0.000 OA
ATOM     10  N   UNL     1       8.235   9.147  17.884  0.00  0.00    +0.000 N 
ATOM     11  H   UNL     1       6.829   8.207  16.096  0.00  0.00    +0.000 HD
ATOM     12  H   UNL     1       7.594   9.861  17.575  0.00  0.00    +0.000 HD
BRANCH  10  13
ATOM     13  C   UNL     1       9.122   9.534  18.975  0.00  0.00    +0.000 C 
BRANCH  13  14
ATOM     14  C   UNL     1       9.354  11.003  18.980  0.00  0.00    +0.000 A 
ATOM     15  N   UNL     1       9.399  11.729  17.853  0.00  0.00    +0.000 NA
ATOM     16  O   UNL     1       9.657  13.019  18.313  0.00  0.00    +0.000 OA
ATOM     17  C   UNL     1       9.749  12.934  19.671  0.00  0.00    +0.000 A 
ATOM     18  C   UNL     1      10.016  14.186  20.400  0.00  0.00    +0.000 C 
ATOM     19  N   UNL     1       9.580  11.717  20.135  0.00  0.00    +0.000 NA
ENDBRANCH  13  14
ENDBRANCH  10  13
ENDBRANCH   6   7
BRANCH   4  20
ATOM     20  C   UNL     1       2.943   4.895  18.441  0.00  0.00    +0.000 C 
ATOM     21  F   UNL     1       3.121   5.427  19.683  0.00  0.00    +0.000 F 
ATOM     22  F   UNL     1       1.833   5.494  17.935  0.00  0.00    +0.000 F 
ATOM     23  F   UNL     1       2.613   3.588  18.643  0.00  0.00    +0.000 F 
ENDBRANCH   4  20
BRANCH   1  24
ATOM     24  O   UNL     1       7.401   5.710  14.982  0.00  0.00    +0.000 OA
BRANCH  24  26
ATOM     25  C   UNL     1       8.064   5.637  12.657  0.00  0.00    +0.000 C 
ATOM     26  C   UNL     1       7.402   4.893  13.799  0.00  0.00    +0.000 C 
ENDBRANCH  24  26
ENDBRANCH   1  24
TORSDOF 6
ENDMDL
MODEL 9
REMARK VINA RESULT:      -7.4      4.435      8.375
REMARK  Name = 
REMARK  8 active torsions:
REMARK  status: ('A' for Active; 'I' for Inactive)
REMARK    1  A    between atoms: C_1  and  C_2
REMARK    2  A    between atoms: C_2  and  O_3
REMARK    3  A    between atoms: O_3  and  C_4
REMARK    4  A    between atoms: C_7  and  C_8
REMARK    5  A    between atoms: C_13  and  N_14
REMARK    6  A    between atoms: N_17  and  C_18
REMARK    7  A    between atoms: C_18  and  C_19
REMARK    8  A    between atoms: C_22  and  C_23
REMARK                            x       y       z     vdW  Elec       q    Type
REMARK                         _______ _______ _______ _____ _____    ______ ____
ROOT
ATOM      1  C   UNL     1       2.529   6.828  19.157  0.00  0.00    +0.000 A 
ATOM      2  C   UNL     1       1.721   6.524  20.266  0.00  0.00    +0.000 A 
ATOM      3  C   UNL     1       1.595   5.216  20.728  0.00  0.00    +0.000 A 
ATOM      4  C   UNL     1       2.257   4.176  20.078  0.00  0.00    +0.000 A 
ATOM      5  C   UNL     1       3.018   4.470  18.936  0.00  0.00    +0.000 A 
ATOM      6  C   UNL     1       3.141   5.779  18.442  0.00  0.00    +0.000 A 
ENDROOT
BRANCH   6   7
ATOM      7  N   UNL     1       3.900   6.051  17.268  0.00  0.00    +0.000 N 
ATOM      8  C   UNL     1       5.029   5.354  16.879  0.00  0.00    +0.000 C 
ATOM      9  O   UNL     1       5.453   4.326  17.386  0.00  0.00    +0.000 OA
ATOM     10  N   UNL     1       5.682   5.940  15.820  0.00  0.00    +0.000 N 
ATOM     11  H   UNL     1       3.439   6.620  16.573  0.00  0.00    +0.000 HD
ATOM     12  H   UNL     1       5.606   6.942  15.733  0.00  0.00    +0.000 HD
BRANCH  10  13
ATOM     13  C   UNL     1       6.973   5.376  15.447  0.00  0.00    +0.000 C 
BRANCH  13  14
ATOM     14  C   UNL     1       6.913   4.752  14.097  0.00  0.00    +0.000 A 
ATOM     15  N   UNL     1       7.646   5.196  13.066  0.00  0.00    +0.000 NA
ATOM     16  O   UNL     1       7.266   4.358  12.018  0.00  0.00    +0.000 OA
ATOM     17  C   UNL     1       6.335   3.501  12.527  0.00  0.00    +0.000 A 
ATOM     18  C   UNL     1       5.776   2.500  11.603  0.00  0.00    +0.000 C 
ATOM     19  N   UNL     1       6.072   3.703  13.799  0.00  0.00    +0.000 NA
ENDBRANCH  13  14
ENDBRANCH  10  13
ENDBRANCH   6   7
BRANCH   4  20
ATOM     20  C   UNL     1       2.169   2.753  20.566  0.00  0.00    +0.000 C 
ATOM     21  F   UNL     1       3.260   2.364  21.285  0.00  0.00    +0.000 F 
ATOM     22  F   UNL     1       1.096   2.540  21.371  0.00  0.00    +0.000 F 
ATOM     23  F   UNL     1       2.063   1.858  19.544  0.00  0.00    +0.000 F 
ENDBRANCH   4  20
BRANCH   1  24
ATOM     24  O   UNL     1       2.755   8.120  18.733  0.00  0.00    +0.000 OA
BRANCH  24  26
ATOM     25  C   UNL     1       1.340  10.051  18.393  0.00  0.00    +0.000 C 
ATOM     26  C   UNL     1       1.713   8.666  17.907  0.00  0.00    +0.000 C 
ENDBRANCH  24  26
ENDBRANCH   1  24
TORSDOF 6
ENDMDL
