MODEL 1
REMARK VINA RESULT:      -8.4      0.000      0.000
REMARK  Name = 
REMARK  2 active torsions:
REMARK  status: ('A' for Active; 'I' for Inactive)
REMARK    1  A    between atoms: C_7  and  C_8
REMARK    2  A    between atoms: C_9  and  C_10
REMARK                            x       y       z     vdW  Elec       q    Type
REMARK                         _______ _______ _______ _____ _____    ______ ____
ROOT
ATOM      1  C   UNL     1       2.300   7.399  19.514  0.00  0.00    +0.000 C 
ATOM      2  C   UNL     1       2.570   7.333  18.200  0.00  0.00    +0.000 C 
ENDROOT
BRANCH   1   9
ATOM      3  O   UNL     1      -1.087  12.512  21.859  0.00  0.00    +0.000 OA
ATOM      4  N   UNL     1      -0.505  11.420  22.032  0.00  0.00    +0.000 N 
ATOM      5  O   UNL     1      -0.416  10.934  23.376  0.00  0.00    +0.000 OA
ATOM      6  N   UNL     1       0.269   9.726  23.357  0.00  0.00    +0.000 NA
ATOM      7  C   UNL     1       0.591   9.477  22.080  0.00  0.00    +0.000 A 
ATOM      8  C   UNL     1       1.296   8.388  21.539  0.00  0.00    +0.000 A 
ATOM      9  C   UNL     1       1.476   8.445  20.136  0.00  0.00    +0.000 A 
ATOM     10  C   UNL     1       0.983   9.530  19.341  0.00  0.00    +0.000 A 
ATOM     11  C   UNL     1       0.263  10.625  19.852  0.00  0.00    +0.000 A 
ATOM     12  C   UNL     1       0.103  10.539  21.232  0.00  0.00    +0.000 A 
ENDBRANCH   1   9
BRANCH   2  13
ATOM     13  C   UNL     1       3.482   6.327  17.648  0.00  0.00    +0.000 A 
ATOM     14  C   UNL     1       3.161   4.950  17.703  0.00  0.00    +0.000 A 
ATOM     15  C   UNL     1       3.995   3.992  17.122  0.00  0.00    +0.000 A 
ATOM     16  C   UNL     1       5.131   4.443  16.498  0.00  0.00    +0.000 A 
ATOM     17  C   UNL     1       5.477   5.776  16.487  0.00  0.00    +0.000 A 
ATOM     18  C   UNL     1       4.692   6.741  17.077  0.00  0.00    +0.000 A 
ATOM     19  O   UNL     1       6.629   6.001  15.797  0.00  0.00    +0.000 OA
ATOM     20  C   UNL     1       6.802   4.710  15.177  0.00  0.00    +0.000 C 
ATOM     21  O   UNL     1       6.015   3.678  15.802  0.00  0.00    +0.000 OA
ENDBRANCH   2  13
TORSDOF 2
ENDMDL
MODEL 2
REMARK VINA RESULT:      -8.3      6.255      8.605
REMARK  Name = 
REMARK  2 active torsions:
REMARK  status: ('A' for Active; 'I' for Inactive)
REMARK    1  A    between atoms: C_7  and  C_8
REMARK    2  A    between atoms: C_9  and  C_10
REMARK                            x       y       z     vdW  Elec       q    Type
REMARK                         _______ _______ _______ _____ _____    ______ ____
ROOT
ATOM      1  C   UNL     1       8.271   7.933  18.302  0.00  0.00    +0.000 C 
ATOM      2  C   UNL     1       8.072   9.242  18.078  0.00  0.00    +0.000 C 
ENDROOT
BRANCH   1   9
ATOM      3  O   UNL     1       3.473   3.745  16.702  0.00  0.00    +0.000 OA
ATOM      4  N   UNL     1       4.409   4.094  17.453  0.00  0.00    +0.000 N 
ATOM      5  O   UNL     1       4.643   3.293  18.617  0.00  0.00    +0.000 OA
ATOM      6  N   UNL     1       5.707   3.846  19.318  0.00  0.00    +0.000 NA
ATOM      7  C   UNL     1       6.108   4.927  18.635  0.00  0.00    +0.000 A 
ATOM      8  C   UNL     1       7.139   5.834  18.935  0.00  0.00    +0.000 A 
ATOM      9  C   UNL     1       7.287   6.884  17.998  0.00  0.00    +0.000 A 
ATOM     10  C   UNL     1       6.446   7.010  16.844  0.00  0.00    +0.000 A 
ATOM     11  C   UNL     1       5.417   6.111  16.512  0.00  0.00    +0.000 A 
ATOM     12  C   UNL     1       5.298   5.092  17.452  0.00  0.00    +0.000 A 
ENDBRANCH   1   9
BRANCH   2  13
ATOM     13  C   UNL     1       9.046  10.254  18.496  0.00  0.00    +0.000 A 
ATOM     14  C   UNL     1       9.417  10.385  19.855  0.00  0.00    +0.000 A 
ATOM     15  C   UNL     1      10.392  11.303  20.250  0.00  0.00    +0.000 A 
ATOM     16  C   UNL     1      10.972  12.068  19.269  0.00  0.00    +0.000 A 
ATOM     17  C   UNL     1      10.578  11.984  17.951  0.00  0.00    +0.000 A 
ATOM     18  C   UNL     1       9.598  11.110  17.534  0.00  0.00    +0.000 A 
ATOM     19  O   UNL     1      11.297  12.814  17.147  0.00  0.00    +0.000 OA
ATOM     20  C   UNL     1      12.333  13.213  18.067  0.00  0.00    +0.000 C 
ATOM     21  O   UNL     1      11.995  12.947  19.443  0.00  0.00    +0.000 OA
ENDBRANCH   2  13
TORSDOF 2
ENDMDL
MODEL 3
REMARK VINA RESULT:      -8.2      7.033      8.443
REMARK  Name = 
REMARK  2 active torsions:
REMARK  status: ('A' for Active; 'I' for Inactive)
REMARK    1  A    between atoms: C_7  and  C_8
REMARK    2  A    between atoms: C_9  and  C_10
REMARK                            x       y       z     vdW  Elec       q    Type
REMARK                         _______ _______ _______ _____ _____    ______ ____
ROOT
ATOM      1  C   UNL     1       8.879   9.442  19.060  0.00  0.00    +0.000 C 
ATOM      2  C   UNL     1       8.323   8.949  17.941  0.00  0.00    +0.000 C 
ENDROOT
BRANCH   1   9
ATOM      3  O   UNL     1      11.973  15.178  19.860  0.00  0.00    +0.000 OA
ATOM      4  N   UNL     1      11.522  14.278  19.119  0.00  0.00    +0.000 N 
ATOM      5  O   UNL     1      11.622  14.485  17.706  0.00  0.00    +0.000 OA
ATOM      6  N   UNL     1      11.060  13.388  17.065  0.00  0.00    +0.000 NA
ATOM      7  C   UNL     1      10.633  12.552  18.021  0.00  0.00    +0.000 A 
ATOM      8  C   UNL     1       9.986  11.311  17.889  0.00  0.00    +0.000 A 
ATOM      9  C   UNL     1       9.656  10.688  19.117  0.00  0.00    +0.000 A 
ATOM     10  C   UNL     1       9.955  11.283  20.386  0.00  0.00    +0.000 A 
ATOM     11  C   UNL     1      10.613  12.516  20.548  0.00  0.00    +0.000 A 
ATOM     12  C   UNL     1      10.923  13.101  19.324  0.00  0.00    +0.000 A 
ENDBRANCH   1   9
BRANCH   2  13
ATOM     13  C   UNL     1       7.647   7.649  17.922  0.00  0.00    +0.000 A 
ATOM     14  C   UNL     1       8.078   6.596  18.763  0.00  0.00    +0.000 A 
ATOM     15  C   UNL     1       7.398   5.377  18.796  0.00  0.00    +0.000 A 
ATOM     16  C   UNL     1       6.298   5.247  17.984  0.00  0.00    +0.000 A 
ATOM     17  C   UNL     1       5.904   6.249  17.124  0.00  0.00    +0.000 A 
ATOM     18  C   UNL     1       6.573   7.450  17.046  0.00  0.00    +0.000 A 
ATOM     19  O   UNL     1       4.782   5.916  16.431  0.00  0.00    +0.000 OA
ATOM     20  C   UNL     1       4.393   4.725  17.145  0.00  0.00    +0.000 C 
ATOM     21  O   UNL     1       5.459   4.176  17.944  0.00  0.00    +0.000 OA
ENDBRANCH   2  13
TORSDOF 2
ENDMDL
MODEL 4
REMARK VINA RESULT:      -8.2      6.816      8.341
REMARK  Name = 
REMARK  2 active torsions:
REMARK  status: ('A' for Active; 'I' for Inactive)
REMARK    1  A    between atoms: C_7  and  C_8
REMARK    2  A    between atoms: C_9  and  C_10
REMARK                            x       y       z     vdW  Elec       q    Type
REMARK                         _______ _______ _______ _____ _____    ______ ____
ROOT
ATOM      1  C   UNL     1       8.642   9.825  18.412  0.00  0.00    +0.000 C 
ATOM      2  C   UNL     1       8.157   8.969  17.498  0.00  0.00    +0.000 C 
ENDROOT
BRANCH   1   9
ATOM      3  O   UNL     1      12.021  15.341  17.280  0.00  0.00    +0.000 OA
ATOM      4  N   UNL     1      10.944  14.753  17.518  0.00  0.00    +0.000 N 
ATOM      5  O   UNL     1       9.783  15.569  17.705  0.00  0.00    +0.000 OA
ATOM      6  N   UNL     1       8.703  14.735  17.967  0.00  0.00    +0.000 NA
ATOM      7  C   UNL     1       9.165  13.477  17.948  0.00  0.00    +0.000 A 
ATOM      8  C   UNL     1       8.471  12.274  18.166  0.00  0.00    +0.000 A 
ATOM      9  C   UNL     1       9.274  11.111  18.085  0.00  0.00    +0.000 A 
ATOM     10  C   UNL     1      10.680  11.164  17.810  0.00  0.00    +0.000 A 
ATOM     11  C   UNL     1      11.397  12.352  17.574  0.00  0.00    +0.000 A 
ATOM     12  C   UNL     1      10.579  13.475  17.661  0.00  0.00    +0.000 A 
ENDBRANCH   1   9
BRANCH   2  13
ATOM     13  C   UNL     1       7.631   7.654  17.874  0.00  0.00    +0.000 A 
ATOM     14  C   UNL     1       8.257   6.885  18.883  0.00  0.00    +0.000 A 
ATOM     15  C   UNL     1       7.724   5.660  19.290  0.00  0.00    +0.000 A 
ATOM     16  C   UNL     1       6.572   5.239  18.674  0.00  0.00    +0.000 A 
ATOM     17  C   UNL     1       5.986   5.957  17.654  0.00  0.00    +0.000 A 
ATOM     18  C   UNL     1       6.505   7.153  17.209  0.00  0.00    +0.000 A 
ATOM     19  O   UNL     1       4.845   5.368  17.204  0.00  0.00    +0.000 OA
ATOM     20  C   UNL     1       4.663   4.365  18.224  0.00  0.00    +0.000 C 
ATOM     21  O   UNL     1       5.857   4.126  18.994  0.00  0.00    +0.000 OA
ENDBRANCH   2  13
TORSDOF 2
ENDMDL
MODEL 5
REMARK VINA RESULT:      -8.2      7.167      8.612
REMARK  Name = 
REMARK  2 active torsions:
REMARK  status: ('A' for Active; 'I' for Inactive)
REMARK    1  A    between atoms: C_7  and  C_8
REMARK    2  A    between atoms: C_9  and  C_10
REMARK                            x       y       z     vdW  Elec       q    Type
REMARK                         _______ _______ _______ _____ _____    ______ ____
ROOT
ATOM      1  C   UNL     1       8.887   9.971  18.497  0.00  0.00    +0.000 C 
ATOM      2  C   UNL     1       8.110   9.297  17.634  0.00  0.00    +0.000 C 
ENDROOT
BRANCH   1   9
ATOM      3  O   UNL     1      10.597  16.169  17.163  0.00  0.00    +0.000 OA
ATOM      4  N   UNL     1      10.884  14.957  17.257  0.00  0.00    +0.000 N 
ATOM      5  O   UNL     1      12.208  14.568  16.873  0.00  0.00    +0.000 OA
ATOM      6  N   UNL     1      12.323  13.194  17.039  0.00  0.00    +0.000 NA
ATOM      7  C   UNL     1      11.142  12.753  17.494  0.00  0.00    +0.000 A 
ATOM      8  C   UNL     1      10.745  11.442  17.808  0.00  0.00    +0.000 A 
ATOM      9  C   UNL     1       9.408  11.325  18.256  0.00  0.00    +0.000 A 
ATOM     10  C   UNL     1       8.534  12.454  18.371  0.00  0.00    +0.000 A 
ATOM     11  C   UNL     1       8.907  13.779  18.078  0.00  0.00    +0.000 A 
ATOM     12  C   UNL     1      10.226  13.859  17.641  0.00  0.00    +0.000 A 
ENDBRANCH   1   9
BRANCH   2  13
ATOM     13  C   UNL     1       7.705   7.911  17.880  0.00  0.00    +0.000 A 
ATOM     14  C   UNL     1       8.342   7.136  18.877  0.00  0.00    +0.000 A 
ATOM     15  C   UNL     1       7.918   5.836  19.160  0.00  0.00    +0.000 A 
ATOM     16  C   UNL     1       6.860   5.347  18.434  0.00  0.00    +0.000 A 
ATOM     17  C   UNL     1       6.269   6.076  17.425  0.00  0.00    +0.000 A 
ATOM     18  C   UNL     1       6.685   7.349  17.102  0.00  0.00    +0.000 A 
ATOM     19  O   UNL     1       5.230   5.409  16.853  0.00  0.00    +0.000 OA
ATOM     20  C   UNL     1       5.090   4.319  17.786  0.00  0.00    +0.000 C 
ATOM     21  O   UNL     1       6.250   4.145  18.624  0.00  0.00    +0.000 OA
ENDBRANCH   2  13
TORSDOF 2
ENDMDL
MODEL 6
REMARK VINA RESULT:      -8.0      3.876      8.476
REMARK  Name = 
REMARK  2 active torsions:
REMARK  status: ('A' for Active; 'I' for Inactive)
REMARK    1  A    between atoms: C_7  and  C_8
REMARK    2  A    between atoms: C_9  and  C_10
REMARK                            x       y       z     vdW  Elec       q    Type
REMARK                         _______ _______ _______ _____ _____    ______ ____
ROOT
ATOM      1  C   UNL     1       2.603   7.265  18.548  0.00  0.00    +0.000 C 
ATOM      2  C   UNL     1       2.431   8.577  18.324  0.00  0.00    +0.000 C 
ENDROOT
BRANCH   1   9
ATOM      3  O   UNL     1       8.260   4.048  17.669  0.00  0.00    +0.000 OA
ATOM      4  N   UNL     1       7.348   4.785  17.237  0.00  0.00    +0.000 N 
ATOM      5  O   UNL     1       7.497   5.297  15.908  0.00  0.00    +0.000 OA
ATOM      6  N   UNL     1       6.396   6.093  15.623  0.00  0.00    +0.000 NA
ATOM      7  C   UNL     1       5.611   6.082  16.709  0.00  0.00    +0.000 A 
ATOM      8  C   UNL     1       4.388   6.740  16.927  0.00  0.00    +0.000 A 
ATOM      9  C   UNL     1       3.824   6.521  18.206  0.00  0.00    +0.000 A 
ATOM     10  C   UNL     1       4.457   5.700  19.196  0.00  0.00    +0.000 A 
ATOM     11  C   UNL     1       5.672   5.018  19.001  0.00  0.00    +0.000 A 
ATOM     12  C   UNL     1       6.200   5.254  17.734  0.00  0.00    +0.000 A 
ENDBRANCH   1   9
BRANCH   2  13
ATOM     13  C   UNL     1       1.155   9.246  18.590  0.00  0.00    +0.000 A 
ATOM     14  C   UNL     1       0.848   9.734  19.882  0.00  0.00    +0.000 A 
ATOM     15  C   UNL     1      -0.339  10.428  20.126  0.00  0.00    +0.000 A 
ATOM     16  C   UNL     1      -1.188  10.617  19.065  0.00  0.00    +0.000 A 
ATOM     17  C   UNL     1      -0.921  10.099  17.816  0.00  0.00    +0.000 A 
ATOM     18  C   UNL     1       0.226   9.384  17.551  0.00  0.00    +0.000 A 
ATOM     19  O   UNL     1      -1.883  10.423  16.911  0.00  0.00    +0.000 OA
ATOM     20  C   UNL     1      -2.622  11.400  17.672  0.00  0.00    +0.000 C 
ATOM     21  O   UNL     1      -2.340  11.341  19.084  0.00  0.00    +0.000 OA
ENDBRANCH   2  13
TORSDOF 2
ENDMDL
MODEL 7
REMARK VINA RESULT:      -7.9      6.800      9.416
REMARK  Name = 
REMARK  2 active torsions:
REMARK  status: ('A' for Active; 'I' for Inactive)
REMARK    1  A    between atoms: C_7  and  C_8
REMARK    2  A    between atoms: C_9  and  C_10
REMARK                            x       y       z     vdW  Elec       q    Type
REMARK                         _______ _______ _______ _____ _____    ______ ____
ROOT
ATOM      1  C   UNL     1       8.563   8.514  18.620  0.00  0.00    +0.000 C 
ATOM      2  C   UNL     1       8.582   9.741  18.075  0.00  0.00    +0.000 C 
ENDROOT
BRANCH   1   9
ATOM      3  O   UNL     1       5.466   3.133  16.482  0.00  0.00    +0.000 OA
ATOM      4  N   UNL     1       5.672   4.364  16.428  0.00  0.00    +0.000 N 
ATOM      5  O   UNL     1       4.987   5.096  15.406  0.00  0.00    +0.000 OA
ATOM      6  N   UNL     1       5.354   6.432  15.508  0.00  0.00    +0.000 NA
ATOM      7  C   UNL     1       6.218   6.525  16.528  0.00  0.00    +0.000 A 
ATOM      8  C   UNL     1       6.885   7.658  17.026  0.00  0.00    +0.000 A 
ATOM      9  C   UNL     1       7.747   7.399  18.118  0.00  0.00    +0.000 A 
ATOM     10  C   UNL     1       7.926   6.085  18.661  0.00  0.00    +0.000 A 
ATOM     11  C   UNL     1       7.263   4.936  18.193  0.00  0.00    +0.000 A 
ATOM     12  C   UNL     1       6.424   5.225  17.121  0.00  0.00    +0.000 A 
ENDBRANCH   1   9
BRANCH   2  13
ATOM     13  C   UNL     1       9.335  10.843  18.678  0.00  0.00    +0.000 A 
ATOM     14  C   UNL     1       9.677  10.820  20.051  0.00  0.00    +0.000 A 
ATOM     15  C   UNL     1      10.450  11.836  20.618  0.00  0.00    +0.000 A 
ATOM     16  C   UNL     1      10.861  12.851  19.789  0.00  0.00    +0.000 A 
ATOM     17  C   UNL     1      10.488  12.907  18.464  0.00  0.00    +0.000 A 
ATOM     18  C   UNL     1       9.701  11.937  17.884  0.00  0.00    +0.000 A 
ATOM     19  O   UNL     1      11.024  13.983  17.827  0.00  0.00    +0.000 OA
ATOM     20  C   UNL     1      11.962  14.424  18.829  0.00  0.00    +0.000 C 
ATOM     21  O   UNL     1      11.689  13.875  20.133  0.00  0.00    +0.000 OA
ENDBRANCH   2  13
TORSDOF 2
ENDMDL
MODEL 8
REMARK VINA RESULT:      -7.8      3.276      8.673
REMARK  Name = 
REMARK  2 active torsions:
REMARK  status: ('A' for Active; 'I' for Inactive)
REMARK    1  A    between atoms: C_7  and  C_8
REMARK    2  A    between atoms: C_9  and  C_10
REMARK                            x       y       z     vdW  Elec       q    Type
REMARK                         _______ _______ _______ _____ _____    ______ ____
ROOT
ATOM      1  C   UNL     1       2.404   7.136  19.459  0.00  0.00    +0.000 C 
ATOM      2  C   UNL     1       1.882   8.362  19.293  0.00  0.00    +0.000 C 
ENDROOT
BRANCH   1   9
ATOM      3  O   UNL     1       5.917   3.435  15.326  0.00  0.00    +0.000 OA
ATOM      4  N   UNL     1       5.535   4.555  15.729  0.00  0.00    +0.000 N 
ATOM      5  O   UNL     1       6.094   5.705  15.086  0.00  0.00    +0.000 OA
ATOM      6  N   UNL     1       5.555   6.840  15.678  0.00  0.00    +0.000 NA
ATOM      7  C   UNL     1       4.715   6.421  16.635  0.00  0.00    +0.000 A 
ATOM      8  C   UNL     1       3.934   7.181  17.524  0.00  0.00    +0.000 A 
ATOM      9  C   UNL     1       3.160   6.413  18.427  0.00  0.00    +0.000 A 
ATOM     10  C   UNL     1       3.181   4.980  18.433  0.00  0.00    +0.000 A 
ATOM     11  C   UNL     1       3.942   4.195  17.547  0.00  0.00    +0.000 A 
ATOM     12  C   UNL     1       4.690   4.979  16.674  0.00  0.00    +0.000 A 
ENDBRANCH   1   9
BRANCH   2  13
ATOM     13  C   UNL     1       1.049   8.993  20.320  0.00  0.00    +0.000 A 
ATOM     14  C   UNL     1       1.147   8.599  21.675  0.00  0.00    +0.000 A 
ATOM     15  C   UNL     1       0.403   9.240  22.668  0.00  0.00    +0.000 A 
ATOM     16  C   UNL     1      -0.421  10.264  22.274  0.00  0.00    +0.000 A 
ATOM     17  C   UNL     1      -0.562  10.619  20.950  0.00  0.00    +0.000 A 
ATOM     18  C   UNL     1       0.135   9.985  19.945  0.00  0.00    +0.000 A 
ATOM     19  O   UNL     1      -1.411  11.670  20.789  0.00  0.00    +0.000 OA
ATOM     20  C   UNL     1      -1.565  12.078  22.164  0.00  0.00    +0.000 C 
ATOM     21  O   UNL     1      -1.151  11.063  23.099  0.00  0.00    +0.000 OA
ENDBRANCH   2  13
TORSDOF 2
ENDMDL
MODEL 9
REMARK VINA RESULT:      -7.8      6.805      8.150
REMARK  Name = 
REMARK  2 active torsions:
REMARK  status: ('A' for Active; 'I' for Inactive)
REMARK    1  A    between atoms: C_7  and  C_8
REMARK    2  A    between atoms: C_9  and  C_10
REMARK                            x       y       z     vdW  Elec       q    Type
REMARK                         _______ _______ _______ _____ _____    ______ ____
ROOT
ATOM      1  C   UNL     1       8.236   9.667  18.018  0.00  0.00    +0.000 C 
ATOM      2  C   UNL     1       8.613   8.445  18.427  0.00  0.00    +0.000 C 
ENDROOT
BRANCH   1   9
ATOM      3  O   UNL     1      11.465  15.355  18.609  0.00  0.00    +0.000 OA
ATOM      4  N   UNL     1      11.329  14.145  18.892  0.00  0.00    +0.000 N 
ATOM      5  O   UNL     1      12.333  13.553  19.723  0.00  0.00    +0.000 OA
ATOM      6  N   UNL     1      12.009  12.216  19.911  0.00  0.00    +0.000 NA
ATOM      7  C   UNL     1      10.875  11.988  19.234  0.00  0.00    +0.000 A 
ATOM      8  C   UNL     1      10.146  10.793  19.101  0.00  0.00    +0.000 A 
ATOM      9  C   UNL     1       8.988  10.900  18.295  0.00  0.00    +0.000 A 
ATOM     10  C   UNL     1       8.599  12.127  17.666  0.00  0.00    +0.000 A 
ATOM     11  C   UNL     1       9.300  13.340  17.794  0.00  0.00    +0.000 A 
ATOM     12  C   UNL     1      10.432  13.201  18.590  0.00  0.00    +0.000 A 
ENDBRANCH   1   9
BRANCH   2  13
ATOM     13  C   UNL     1       7.772   7.265  18.211  0.00  0.00    +0.000 A 
ATOM     14  C   UNL     1       7.941   6.101  18.997  0.00  0.00    +0.000 A 
ATOM     15  C   UNL     1       7.102   4.997  18.839  0.00  0.00    +0.000 A 
ATOM     16  C   UNL     1       6.110   5.090  17.894  0.00  0.00    +0.000 A 
ATOM     17  C   UNL     1       5.972   6.199  17.089  0.00  0.00    +0.000 A 
ATOM     18  C   UNL     1       6.804   7.292  17.199  0.00  0.00    +0.000 A 
ATOM     19  O   UNL     1       4.914   6.088  16.240  0.00  0.00    +0.000 OA
ATOM     20  C   UNL     1       4.276   4.918  16.791  0.00  0.00    +0.000 C 
ATOM     21  O   UNL     1       5.144   4.161  17.657  0.00  0.00    +0.000 OA
ENDBRANCH   2  13
TORSDOF 2
ENDMDL
