MODEL 1
REMARK VINA RESULT:      -6.3      0.000      0.000
REMARK  Name = 
REMARK  13 active torsions:
REMARK  status: ('A' for Active; 'I' for Inactive)
REMARK    1  A    between atoms: C_1  and  O_2
REMARK    2  A    between atoms: O_2  and  C_3
REMARK    3  A    between atoms: C_7  and  O_8
REMARK    4  A    between atoms: O_8  and  C_9
REMARK    5  A    between atoms: C_10  and  O_11
REMARK    6  A    between atoms: O_11  and  C_12
REMARK    7  A    between atoms: C_12  and  C_13
REMARK    8  A    between atoms: C_13  and  O_14
REMARK    9  A    between atoms: O_14  and  C_15
REMARK   10  A    between atoms: C_20  and  O_21
REMARK   11  A    between atoms: O_21  and  C_22
REMARK   12  A    between atoms: C_22  and  C_23
REMARK   13  A    between atoms: C_22  and  C_24
REMARK                            x       y       z     vdW  Elec       q    Type
REMARK                         _______ _______ _______ _____ _____    ______ ____
ROOT
ATOM      1  C   UNL     1       1.840   9.454  18.650  0.00  0.00    +0.000 C 
ENDROOT
BRANCH   1   2
ATOM      2  O   UNL     1       0.760   9.216  19.556  0.00  0.00    +0.000 OA
BRANCH   2   8
ATOM      3  C   UNL     1      -1.117  10.594  18.668  0.00  0.00    +0.000 A 
ATOM      4  C   UNL     1      -2.060  11.604  18.926  0.00  0.00    +0.000 A 
ATOM      5  C   UNL     1      -2.091  12.253  20.152  0.00  0.00    +0.000 A 
ATOM      6  C   UNL     1      -1.211  11.860  21.154  0.00  0.00    +0.000 A 
ATOM      7  C   UNL     1      -0.306  10.808  20.940  0.00  0.00    +0.000 A 
ATOM      8  C   UNL     1      -0.225  10.172  19.683  0.00  0.00    +0.000 A 
BRANCH   3  10
ATOM      9  C   UNL     1      -2.388   9.893  16.788  0.00  0.00    +0.000 C 
ATOM     10  O   UNL     1      -1.123   9.972  17.446  0.00  0.00    +0.000 OA
ENDBRANCH   3  10
BRANCH   7  11
ATOM     11  O   UNL     1       0.501  10.568  22.030  0.00  0.00    +0.000 OA
ATOM     12  C   UNL     1      -0.046   9.710  23.022  0.00  0.00    +0.000 C 
ENDBRANCH   7  11
ENDBRANCH   2   8
ENDBRANCH   1   2
BRANCH   1  13
ATOM     13  C   UNL     1       2.100   8.215  17.786  0.00  0.00    +0.000 C 
BRANCH  13  14
ATOM     14  O   UNL     1       2.928   7.260  18.468  0.00  0.00    +0.000 OA
BRANCH  14  15
ATOM     15  C   UNL     1       3.688   6.387  17.733  0.00  0.00    +0.000 A 
ATOM     16  C   UNL     1       4.733   6.812  16.891  0.00  0.00    +0.000 A 
ATOM     17  C   UNL     1       5.434   5.912  16.084  0.00  0.00    +0.000 A 
ATOM     18  C   UNL     1       5.103   4.567  16.100  0.00  0.00    +0.000 A 
ATOM     19  C   UNL     1       4.084   4.125  16.941  0.00  0.00    +0.000 A 
ATOM     20  C   UNL     1       3.382   5.013  17.775  0.00  0.00    +0.000 A 
BRANCH  20  21
ATOM     21  O   UNL     1       2.407   4.369  18.488  0.00  0.00    +0.000 OA
BRANCH  21  22
ATOM     22  C   UNL     1       2.570   4.114  19.884  0.00  0.00    +0.000 C 
ATOM     23  C   UNL     1       1.249   4.455  20.568  0.00  0.00    +0.000 C 
ATOM     24  C   UNL     1       2.870   2.624  20.057  0.00  0.00    +0.000 C 
ENDBRANCH  21  22
ENDBRANCH  20  21
ENDBRANCH  14  15
ENDBRANCH  13  14
ENDBRANCH   1  13
TORSDOF 9
ENDMDL
MODEL 2
REMARK VINA RESULT:      -6.3      1.431      3.816
REMARK  Name = 
REMARK  13 active torsions:
REMARK  status: ('A' for Active; 'I' for Inactive)
REMARK    1  A    between atoms: C_1  and  O_2
REMARK    2  A    between atoms: O_2  and  C_3
REMARK    3  A    between atoms: C_7  and  O_8
REMARK    4  A    between atoms: O_8  and  C_9
REMARK    5  A    between atoms: C_10  and  O_11
REMARK    6  A    between atoms: O_11  and  C_12
REMARK    7  A    between atoms: C_12  and  C_13
REMARK    8  A    between atoms: C_13  and  O_14
REMARK    9  A    between atoms: O_14  and  C_15
REMARK   10  A    between atoms: C_20  and  O_21
REMARK   11  A    between atoms: O_21  and  C_22
REMARK   12  A    between atoms: C_22  and  C_23
REMARK   13  A    between atoms: C_22  and  C_24
REMARK                            x       y       z     vdW  Elec       q    Type
REMARK                         _______ _______ _______ _____ _____    ______ ____
ROOT
ATOM      1  C   UNL     1       1.586   8.784  19.557  0.00  0.00    +0.000 C 
ENDROOT
BRANCH   1   2
ATOM      2  O   UNL     1       1.391  10.023  18.873  0.00  0.00    +0.000 OA
BRANCH   2   8
ATOM      3  C   UNL     1       0.303  11.756  20.297  0.00  0.00    +0.000 A 
ATOM      4  C   UNL     1      -0.864  12.488  20.574  0.00  0.00    +0.000 A 
ATOM      5  C   UNL     1      -2.032  12.264  19.859  0.00  0.00    +0.000 A 
ATOM      6  C   UNL     1      -2.029  11.339  18.821  0.00  0.00    +0.000 A 
ATOM      7  C   UNL     1      -0.856  10.645  18.484  0.00  0.00    +0.000 A 
ATOM      8  C   UNL     1       0.327  10.822  19.233  0.00  0.00    +0.000 A 
BRANCH   3  10
ATOM      9  C   UNL     1       2.197  13.153  20.620  0.00  0.00    +0.000 C 
ATOM     10  O   UNL     1       1.439  12.011  21.022  0.00  0.00    +0.000 OA
ENDBRANCH   3  10
BRANCH   7  11
ATOM     11  O   UNL     1      -1.041   9.757  17.448  0.00  0.00    +0.000 OA
ATOM     12  C   UNL     1      -2.244   9.917  16.709  0.00  0.00    +0.000 C 
ENDBRANCH   7  11
ENDBRANCH   2   8
ENDBRANCH   1   2
BRANCH   1  13
ATOM     13  C   UNL     1       2.321   7.783  18.660  0.00  0.00    +0.000 C 
BRANCH  13  14
ATOM     14  O   UNL     1       2.905   6.717  19.426  0.00  0.00    +0.000 OA
BRANCH  14  15
ATOM     15  C   UNL     1       2.318   5.477  19.404  0.00  0.00    +0.000 A 
ATOM     16  C   UNL     1       1.445   5.031  20.413  0.00  0.00    +0.000 A 
ATOM     17  C   UNL     1       0.931   3.732  20.414  0.00  0.00    +0.000 A 
ATOM     18  C   UNL     1       1.281   2.850  19.405  0.00  0.00    +0.000 A 
ATOM     19  C   UNL     1       2.129   3.279  18.387  0.00  0.00    +0.000 A 
ATOM     20  C   UNL     1       2.639   4.589  18.359  0.00  0.00    +0.000 A 
BRANCH  20  21
ATOM     21  O   UNL     1       3.473   4.781  17.290  0.00  0.00    +0.000 OA
BRANCH  21  22
ATOM     22  C   UNL     1       4.714   4.082  17.197  0.00  0.00    +0.000 C 
ATOM     23  C   UNL     1       5.236   4.265  15.774  0.00  0.00    +0.000 C 
ATOM     24  C   UNL     1       5.688   4.720  18.189  0.00  0.00    +0.000 C 
ENDBRANCH  21  22
ENDBRANCH  20  21
ENDBRANCH  14  15
ENDBRANCH  13  14
ENDBRANCH   1  13
TORSDOF 9
ENDMDL
MODEL 3
REMARK VINA RESULT:      -6.3      1.696      8.164
REMARK  Name = 
REMARK  13 active torsions:
REMARK  status: ('A' for Active; 'I' for Inactive)
REMARK    1  A    between atoms: C_1  and  O_2
REMARK    2  A    between atoms: O_2  and  C_3
REMARK    3  A    between atoms: C_7  and  O_8
REMARK    4  A    between atoms: O_8  and  C_9
REMARK    5  A    between atoms: C_10  and  O_11
REMARK    6  A    between atoms: O_11  and  C_12
REMARK    7  A    between atoms: C_12  and  C_13
REMARK    8  A    between atoms: C_13  and  O_14
REMARK    9  A    between atoms: O_14  and  C_15
REMARK   10  A    between atoms: C_20  and  O_21
REMARK   11  A    between atoms: O_21  and  C_22
REMARK   12  A    between atoms: C_22  and  C_23
REMARK   13  A    between atoms: C_22  and  C_24
REMARK                            x       y       z     vdW  Elec       q    Type
REMARK                         _______ _______ _______ _____ _____    ______ ____
ROOT
ATOM      1  C   UNL     1       2.387   7.077  19.638  0.00  0.00    +0.000 C 
ENDROOT
BRANCH   1   2
ATOM      2  O   UNL     1       2.811   5.781  20.067  0.00  0.00    +0.000 OA
BRANCH   2   8
ATOM      3  C   UNL     1       3.623   4.647  18.001  0.00  0.00    +0.000 A 
ATOM      4  C   UNL     1       3.500   3.544  17.138  0.00  0.00    +0.000 A 
ATOM      5  C   UNL     1       2.538   2.570  17.361  0.00  0.00    +0.000 A 
ATOM      6  C   UNL     1       1.722   2.661  18.483  0.00  0.00    +0.000 A 
ATOM      7  C   UNL     1       1.873   3.718  19.394  0.00  0.00    +0.000 A 
ATOM      8  C   UNL     1       2.811   4.746  19.156  0.00  0.00    +0.000 A 
BRANCH   3  10
ATOM      9  C   UNL     1       5.138   5.586  16.431  0.00  0.00    +0.000 C 
ATOM     10  O   UNL     1       4.591   5.586  17.750  0.00  0.00    +0.000 OA
ENDBRANCH   3  10
BRANCH   7  11
ATOM     11  O   UNL     1       0.971   3.661  20.432  0.00  0.00    +0.000 OA
ATOM     12  C   UNL     1       1.374   2.886  21.554  0.00  0.00    +0.000 C 
ENDBRANCH   7  11
ENDBRANCH   2   8
ENDBRANCH   1   2
BRANCH   1  13
ATOM     13  C   UNL     1       1.521   7.742  20.713  0.00  0.00    +0.000 C 
BRANCH  13  14
ATOM     14  O   UNL     1       1.018   9.014  20.272  0.00  0.00    +0.000 OA
BRANCH  14  15
ATOM     15  C   UNL     1       0.304   9.791  21.149  0.00  0.00    +0.000 A 
ATOM     16  C   UNL     1       0.016   9.385  22.464  0.00  0.00    +0.000 A 
ATOM     17  C   UNL     1      -0.789  10.154  23.308  0.00  0.00    +0.000 A 
ATOM     18  C   UNL     1      -1.324  11.349  22.853  0.00  0.00    +0.000 A 
ATOM     19  C   UNL     1      -1.033  11.777  21.559  0.00  0.00    +0.000 A 
ATOM     20  C   UNL     1      -0.209  11.025  20.704  0.00  0.00    +0.000 A 
BRANCH  20  21
ATOM     21  O   UNL     1      -0.086  11.617  19.476  0.00  0.00    +0.000 OA
BRANCH  21  22
ATOM     22  C   UNL     1      -1.059  12.557  19.017  0.00  0.00    +0.000 C 
ATOM     23  C   UNL     1      -0.306  13.779  18.499  0.00  0.00    +0.000 C 
ATOM     24  C   UNL     1      -1.836  11.906  17.871  0.00  0.00    +0.000 C 
ENDBRANCH  21  22
ENDBRANCH  20  21
ENDBRANCH  14  15
ENDBRANCH  13  14
ENDBRANCH   1  13
TORSDOF 9
ENDMDL
MODEL 4
REMARK VINA RESULT:      -6.2      3.944      6.082
REMARK  Name = 
REMARK  13 active torsions:
REMARK  status: ('A' for Active; 'I' for Inactive)
REMARK    1  A    between atoms: C_1  and  O_2
REMARK    2  A    between atoms: O_2  and  C_3
REMARK    3  A    between atoms: C_7  and  O_8
REMARK    4  A    between atoms: O_8  and  C_9
REMARK    5  A    between atoms: C_10  and  O_11
REMARK    6  A    between atoms: O_11  and  C_12
REMARK    7  A    between atoms: C_12  and  C_13
REMARK    8  A    between atoms: C_13  and  O_14
REMARK    9  A    between atoms: O_14  and  C_15
REMARK   10  A    between atoms: C_20  and  O_21
REMARK   11  A    between atoms: O_21  and  C_22
REMARK   12  A    between atoms: C_22  and  C_23
REMARK   13  A    between atoms: C_22  and  C_24
REMARK                            x       y       z     vdW  Elec       q    Type
REMARK                         _______ _______ _______ _____ _____    ______ ____
ROOT
ATOM      1  C   UNL     1       2.832   3.079  17.066  0.00  0.00    +0.000 C 
ENDROOT
BRANCH   1   2
ATOM      2  O   UNL     1       1.793   4.043  17.250  0.00  0.00    +0.000 OA
BRANCH   2   8
ATOM      3  C   UNL     1       2.363   6.184  18.393  0.00  0.00    +0.000 A 
ATOM      4  C   UNL     1       2.374   6.909  19.597  0.00  0.00    +0.000 A 
ATOM      5  C   UNL     1       1.938   6.330  20.780  0.00  0.00    +0.000 A 
ATOM      6  C   UNL     1       1.435   5.034  20.760  0.00  0.00    +0.000 A 
ATOM      7  C   UNL     1       1.352   4.316  19.556  0.00  0.00    +0.000 A 
ATOM      8  C   UNL     1       1.839   4.870  18.353  0.00  0.00    +0.000 A 
BRANCH   3  10
ATOM      9  C   UNL     1       3.884   7.709  17.390  0.00  0.00    +0.000 C 
ATOM     10  O   UNL     1       2.797   6.794  17.243  0.00  0.00    +0.000 OA
ENDBRANCH   3  10
BRANCH   7  11
ATOM     11  O   UNL     1       0.850   3.046  19.726  0.00  0.00    +0.000 OA
ATOM     12  C   UNL     1       1.512   2.248  20.699  0.00  0.00    +0.000 C 
ENDBRANCH   7  11
ENDBRANCH   2   8
ENDBRANCH   1   2
BRANCH   1  13
ATOM     13  C   UNL     1       4.074   3.464  17.877  0.00  0.00    +0.000 C 
BRANCH  13  14
ATOM     14  O   UNL     1       5.182   3.789  17.024  0.00  0.00    +0.000 OA
BRANCH  14  15
ATOM     15  C   UNL     1       6.090   4.732  17.435  0.00  0.00    +0.000 A 
ATOM     16  C   UNL     1       6.448   4.906  18.784  0.00  0.00    +0.000 A 
ATOM     17  C   UNL     1       7.306   5.932  19.187  0.00  0.00    +0.000 A 
ATOM     18  C   UNL     1       7.823   6.809  18.248  0.00  0.00    +0.000 A 
ATOM     19  C   UNL     1       7.494   6.642  16.905  0.00  0.00    +0.000 A 
ATOM     20  C   UNL     1       6.649   5.602  16.479  0.00  0.00    +0.000 A 
BRANCH  20  21
ATOM     21  O   UNL     1       6.439   5.648  15.127  0.00  0.00    +0.000 OA
BRANCH  21  22
ATOM     22  C   UNL     1       7.000   4.655  14.266  0.00  0.00    +0.000 C 
ATOM     23  C   UNL     1       5.839   3.903  13.619  0.00  0.00    +0.000 C 
ATOM     24  C   UNL     1       7.813   5.373  13.188  0.00  0.00    +0.000 C 
ENDBRANCH  21  22
ENDBRANCH  20  21
ENDBRANCH  14  15
ENDBRANCH  13  14
ENDBRANCH   1  13
TORSDOF 9
ENDMDL
MODEL 5
REMARK VINA RESULT:      -6.2      1.875      7.921
REMARK  Name = 
REMARK  13 active torsions:
REMARK  status: ('A' for Active; 'I' for Inactive)
REMARK    1  A    between atoms: C_1  and  O_2
REMARK    2  A    between atoms: O_2  and  C_3
REMARK    3  A    between atoms: C_7  and  O_8
REMARK    4  A    between atoms: O_8  and  C_9
REMARK    5  A    between atoms: C_10  and  O_11
REMARK    6  A    between atoms: O_11  and  C_12
REMARK    7  A    between atoms: C_12  and  C_13
REMARK    8  A    between atoms: C_13  and  O_14
REMARK    9  A    between atoms: O_14  and  C_15
REMARK   10  A    between atoms: C_20  and  O_21
REMARK   11  A    between atoms: O_21  and  C_22
REMARK   12  A    between atoms: C_22  and  C_23
REMARK   13  A    between atoms: C_22  and  C_24
REMARK                            x       y       z     vdW  Elec       q    Type
REMARK                         _______ _______ _______ _____ _____    ______ ____
ROOT
ATOM      1  C   UNL     1       2.013   6.617  19.997  0.00  0.00    +0.000 C 
ENDROOT
BRANCH   1   2
ATOM      2  O   UNL     1       2.721   5.453  20.428  0.00  0.00    +0.000 OA
BRANCH   2   8
ATOM      3  C   UNL     1       3.970   4.464  18.511  0.00  0.00    +0.000 A 
ATOM      4  C   UNL     1       4.099   3.382  17.623  0.00  0.00    +0.000 A 
ATOM      5  C   UNL     1       3.212   2.315  17.667  0.00  0.00    +0.000 A 
ATOM      6  C   UNL     1       2.217   2.296  18.637  0.00  0.00    +0.000 A 
ATOM      7  C   UNL     1       2.112   3.334  19.577  0.00  0.00    +0.000 A 
ATOM      8  C   UNL     1       2.972   4.451  19.515  0.00  0.00    +0.000 A 
BRANCH   3  10
ATOM      9  C   UNL     1       6.153   5.252  19.019  0.00  0.00    +0.000 C 
ATOM     10  O   UNL     1       4.871   5.496  18.440  0.00  0.00    +0.000 OA
ENDBRANCH   3  10
BRANCH   7  11
ATOM     11  O   UNL     1       1.060   3.161  20.448  0.00  0.00    +0.000 OA
ATOM     12  C   UNL     1       1.393   2.594  21.708  0.00  0.00    +0.000 C 
ENDBRANCH   7  11
ENDBRANCH   2   8
ENDBRANCH   1   2
BRANCH   1  13
ATOM     13  C   UNL     1       1.212   7.220  21.156  0.00  0.00    +0.000 C 
BRANCH  13  14
ATOM     14  O   UNL     1       1.655   8.549  21.469  0.00  0.00    +0.000 OA
BRANCH  14  15
ATOM     15  C   UNL     1       0.728   9.501  21.809  0.00  0.00    +0.000 A 
ATOM     16  C   UNL     1       0.064   9.508  23.050  0.00  0.00    +0.000 A 
ATOM     17  C   UNL     1      -0.941  10.435  23.337  0.00  0.00    +0.000 A 
ATOM     18  C   UNL     1      -1.305  11.376  22.388  0.00  0.00    +0.000 A 
ATOM     19  C   UNL     1      -0.646  11.397  21.161  0.00  0.00    +0.000 A 
ATOM     20  C   UNL     1       0.382  10.485  20.863  0.00  0.00    +0.000 A 
BRANCH  20  21
ATOM     21  O   UNL     1       0.864  10.668  19.595  0.00  0.00    +0.000 OA
BRANCH  21  22
ATOM     22  C   UNL     1       0.635   9.692  18.577  0.00  0.00    +0.000 C 
ATOM     23  C   UNL     1      -0.543  10.177  17.736  0.00  0.00    +0.000 C 
ATOM     24  C   UNL     1       1.892   9.616  17.708  0.00  0.00    +0.000 C 
ENDBRANCH  21  22
ENDBRANCH  20  21
ENDBRANCH  14  15
ENDBRANCH  13  14
ENDBRANCH   1  13
TORSDOF 9
ENDMDL
MODEL 6
REMARK VINA RESULT:      -6.1      3.570      6.544
REMARK  Name = 
REMARK  13 active torsions:
REMARK  status: ('A' for Active; 'I' for Inactive)
REMARK    1  A    between atoms: C_1  and  O_2
REMARK    2  A    between atoms: O_2  and  C_3
REMARK    3  A    between atoms: C_7  and  O_8
REMARK    4  A    between atoms: O_8  and  C_9
REMARK    5  A    between atoms: C_10  and  O_11
REMARK    6  A    between atoms: O_11  and  C_12
REMARK    7  A    between atoms: C_12  and  C_13
REMARK    8  A    between atoms: C_13  and  O_14
REMARK    9  A    between atoms: O_14  and  C_15
REMARK   10  A    between atoms: C_20  and  O_21
REMARK   11  A    between atoms: O_21  and  C_22
REMARK   12  A    between atoms: C_22  and  C_23
REMARK   13  A    between atoms: C_22  and  C_24
REMARK                            x       y       z     vdW  Elec       q    Type
REMARK                         _______ _______ _______ _____ _____    ______ ____
ROOT
ATOM      1  C   UNL     1       4.096   5.552  17.742  0.00  0.00    +0.000 C 
ENDROOT
BRANCH   1   2
ATOM      2  O   UNL     1       4.233   5.268  19.137  0.00  0.00    +0.000 OA
BRANCH   2   8
ATOM      3  C   UNL     1       1.951   5.058  20.117  0.00  0.00    +0.000 A 
ATOM      4  C   UNL     1       1.033   4.238  20.796  0.00  0.00    +0.000 A 
ATOM      5  C   UNL     1       1.385   2.959  21.203  0.00  0.00    +0.000 A 
ATOM      6  C   UNL     1       2.647   2.467  20.887  0.00  0.00    +0.000 A 
ATOM      7  C   UNL     1       3.556   3.244  20.152  0.00  0.00    +0.000 A 
ATOM      8  C   UNL     1       3.233   4.565  19.774  0.00  0.00    +0.000 A 
BRANCH   3  10
ATOM      9  C   UNL     1       1.747   7.355  20.686  0.00  0.00    +0.000 C 
ATOM     10  O   UNL     1       1.562   6.314  19.726  0.00  0.00    +0.000 OA
ENDBRANCH   3  10
BRANCH   7  11
ATOM     11  O   UNL     1       4.759   2.608  19.949  0.00  0.00    +0.000 OA
ATOM     12  C   UNL     1       5.029   1.512  20.813  0.00  0.00    +0.000 C 
ENDBRANCH   7  11
ENDBRANCH   2   8
ENDBRANCH   1   2
BRANCH   1  13
ATOM     13  C   UNL     1       3.949   4.255  16.940  0.00  0.00    +0.000 C 
BRANCH  13  14
ATOM     14  O   UNL     1       5.227   3.688  16.615  0.00  0.00    +0.000 OA
BRANCH  14  15
ATOM     15  C   UNL     1       5.876   4.106  15.481  0.00  0.00    +0.000 A 
ATOM     16  C   UNL     1       5.402   3.823  14.186  0.00  0.00    +0.000 A 
ATOM     17  C   UNL     1       6.127   4.182  13.047  0.00  0.00    +0.000 A 
ATOM     18  C   UNL     1       7.344   4.831  13.179  0.00  0.00    +0.000 A 
ATOM     19  C   UNL     1       7.820   5.136  14.452  0.00  0.00    +0.000 A 
ATOM     20  C   UNL     1       7.094   4.800  15.608  0.00  0.00    +0.000 A 
BRANCH  20  21
ATOM     21  O   UNL     1       7.763   5.166  16.746  0.00  0.00    +0.000 OA
BRANCH  21  22
ATOM     22  C   UNL     1       7.192   6.101  17.661  0.00  0.00    +0.000 C 
ATOM     23  C   UNL     1       7.724   5.762  19.051  0.00  0.00    +0.000 C 
ATOM     24  C   UNL     1       7.660   7.500  17.257  0.00  0.00    +0.000 C 
ENDBRANCH  21  22
ENDBRANCH  20  21
ENDBRANCH  14  15
ENDBRANCH  13  14
ENDBRANCH   1  13
TORSDOF 9
ENDMDL
MODEL 7
REMARK VINA RESULT:      -6.1      1.242      2.668
REMARK  Name = 
REMARK  13 active torsions:
REMARK  status: ('A' for Active; 'I' for Inactive)
REMARK    1  A    between atoms: C_1  and  O_2
REMARK    2  A    between atoms: O_2  and  C_3
REMARK    3  A    between atoms: C_7  and  O_8
REMARK    4  A    between atoms: O_8  and  C_9
REMARK    5  A    between atoms: C_10  and  O_11
REMARK    6  A    between atoms: O_11  and  C_12
REMARK    7  A    between atoms: C_12  and  C_13
REMARK    8  A    between atoms: C_13  and  O_14
REMARK    9  A    between atoms: O_14  and  C_15
REMARK   10  A    between atoms: C_20  and  O_21
REMARK   11  A    between atoms: O_21  and  C_22
REMARK   12  A    between atoms: C_22  and  C_23
REMARK   13  A    between atoms: C_22  and  C_24
REMARK                            x       y       z     vdW  Elec       q    Type
REMARK                         _______ _______ _______ _____ _____    ______ ____
ROOT
ATOM      1  C   UNL     1       1.880   9.483  18.211  0.00  0.00    +0.000 C 
ENDROOT
BRANCH   1   2
ATOM      2  O   UNL     1       0.927   9.181  19.233  0.00  0.00    +0.000 OA
BRANCH   2   8
ATOM      3  C   UNL     1      -1.065  10.560  18.646  0.00  0.00    +0.000 A 
ATOM      4  C   UNL     1      -1.987  11.534  19.066  0.00  0.00    +0.000 A 
ATOM      5  C   UNL     1      -1.882  12.121  20.319  0.00  0.00    +0.000 A 
ATOM      6  C   UNL     1      -0.882  11.698  21.188  0.00  0.00    +0.000 A 
ATOM      7  C   UNL     1       0.008  10.679  20.814  0.00  0.00    +0.000 A 
ATOM      8  C   UNL     1      -0.051  10.107  19.525  0.00  0.00    +0.000 A 
BRANCH   3  10
ATOM      9  C   UNL     1      -2.531   9.979  16.870  0.00  0.00    +0.000 C 
ATOM     10  O   UNL     1      -1.206  10.000  17.402  0.00  0.00    +0.000 OA
ENDBRANCH   3  10
BRANCH   7  11
ATOM     11  O   UNL     1       0.943  10.403  21.787  0.00  0.00    +0.000 OA
ATOM     12  C   UNL     1       0.534   9.481  22.788  0.00  0.00    +0.000 C 
ENDBRANCH   7  11
ENDBRANCH   2   8
ENDBRANCH   1   2
BRANCH   1  13
ATOM     13  C   UNL     1       2.479   8.196  17.636  0.00  0.00    +0.000 C 
BRANCH  13  14
ATOM     14  O   UNL     1       2.459   7.129  18.597  0.00  0.00    +0.000 OA
BRANCH  14  15
ATOM     15  C   UNL     1       2.726   5.849  18.182  0.00  0.00    +0.000 A 
ATOM     16  C   UNL     1       1.713   4.908  17.922  0.00  0.00    +0.000 A 
ATOM     17  C   UNL     1       2.012   3.585  17.587  0.00  0.00    +0.000 A 
ATOM     18  C   UNL     1       3.333   3.174  17.507  0.00  0.00    +0.000 A 
ATOM     19  C   UNL     1       4.349   4.097  17.743  0.00  0.00    +0.000 A 
ATOM     20  C   UNL     1       4.067   5.437  18.061  0.00  0.00    +0.000 A 
BRANCH  20  21
ATOM     21  O   UNL     1       5.212   6.153  18.282  0.00  0.00    +0.000 OA
BRANCH  21  22
ATOM     22  C   UNL     1       5.840   6.873  17.220  0.00  0.00    +0.000 C 
ATOM     23  C   UNL     1       7.304   6.443  17.180  0.00  0.00    +0.000 C 
ATOM     24  C   UNL     1       5.152   6.478  15.913  0.00  0.00    +0.000 C 
ENDBRANCH  21  22
ENDBRANCH  20  21
ENDBRANCH  14  15
ENDBRANCH  13  14
ENDBRANCH   1  13
TORSDOF 9
ENDMDL
MODEL 8
REMARK VINA RESULT:      -6.1      1.244      2.664
REMARK  Name = 
REMARK  13 active torsions:
REMARK  status: ('A' for Active; 'I' for Inactive)
REMARK    1  A    between atoms: C_1  and  O_2
REMARK    2  A    between atoms: O_2  and  C_3
REMARK    3  A    between atoms: C_7  and  O_8
REMARK    4  A    between atoms: O_8  and  C_9
REMARK    5  A    between atoms: C_10  and  O_11
REMARK    6  A    between atoms: O_11  and  C_12
REMARK    7  A    between atoms: C_12  and  C_13
REMARK    8  A    between atoms: C_13  and  O_14
REMARK    9  A    between atoms: O_14  and  C_15
REMARK   10  A    between atoms: C_20  and  O_21
REMARK   11  A    between atoms: O_21  and  C_22
REMARK   12  A    between atoms: C_22  and  C_23
REMARK   13  A    between atoms: C_22  and  C_24
REMARK                            x       y       z     vdW  Elec       q    Type
REMARK                         _______ _______ _______ _____ _____    ______ ____
ROOT
ATOM      1  C   UNL     1       1.216   9.420  17.916  0.00  0.00    +0.000 C 
ENDROOT
BRANCH   1   2
ATOM      2  O   UNL     1       0.579   9.613  19.182  0.00  0.00    +0.000 OA
BRANCH   2   8
ATOM      3  C   UNL     1       0.263  11.907  20.105  0.00  0.00    +0.000 A 
ATOM      4  C   UNL     1      -0.604  13.001  20.265  0.00  0.00    +0.000 A 
ATOM      5  C   UNL     1      -1.906  12.955  19.787  0.00  0.00    +0.000 A 
ATOM      6  C   UNL     1      -2.338  11.829  19.095  0.00  0.00    +0.000 A 
ATOM      7  C   UNL     1      -1.468  10.752  18.865  0.00  0.00    +0.000 A 
ATOM      8  C   UNL     1      -0.157  10.760  19.388  0.00  0.00    +0.000 A 
BRANCH   3  10
ATOM      9  C   UNL     1       2.079  13.312  20.711  0.00  0.00    +0.000 C 
ATOM     10  O   UNL     1       1.544  11.994  20.587  0.00  0.00    +0.000 OA
ENDBRANCH   3  10
BRANCH   7  11
ATOM     11  O   UNL     1      -2.068   9.717  18.183  0.00  0.00    +0.000 OA
ATOM     12  C   UNL     1      -2.602  10.049  16.909  0.00  0.00    +0.000 C 
ENDBRANCH   7  11
ENDBRANCH   2   8
ENDBRANCH   1   2
BRANCH   1  13
ATOM     13  C   UNL     1       2.539   8.666  18.089  0.00  0.00    +0.000 C 
BRANCH  13  14
ATOM     14  O   UNL     1       2.321   7.267  18.327  0.00  0.00    +0.000 OA
BRANCH  14  15
ATOM     15  C   UNL     1       3.215   6.355  17.824  0.00  0.00    +0.000 A 
ATOM     16  C   UNL     1       4.473   6.725  17.315  0.00  0.00    +0.000 A 
ATOM     17  C   UNL     1       5.327   5.790  16.726  0.00  0.00    +0.000 A 
ATOM     18  C   UNL     1       4.941   4.463  16.632  0.00  0.00    +0.000 A 
ATOM     19  C   UNL     1       3.706   4.074  17.148  0.00  0.00    +0.000 A 
ATOM     20  C   UNL     1       2.842   4.998  17.762  0.00  0.00    +0.000 A 
BRANCH  20  21
ATOM     21  O   UNL     1       1.677   4.405  18.165  0.00  0.00    +0.000 OA
BRANCH  21  22
ATOM     22  C   UNL     1       1.663   3.492  19.264  0.00  0.00    +0.000 C 
ATOM     23  C   UNL     1       1.143   4.251  20.482  0.00  0.00    +0.000 C 
ATOM     24  C   UNL     1       0.702   2.354  18.917  0.00  0.00    +0.000 C 
ENDBRANCH  21  22
ENDBRANCH  20  21
ENDBRANCH  14  15
ENDBRANCH  13  14
ENDBRANCH   1  13
TORSDOF 9
ENDMDL
MODEL 9
REMARK VINA RESULT:      -6.0      1.666      8.094
REMARK  Name = 
REMARK  13 active torsions:
REMARK  status: ('A' for Active; 'I' for Inactive)
REMARK    1  A    between atoms: C_1  and  O_2
REMARK    2  A    between atoms: O_2  and  C_3
REMARK    3  A    between atoms: C_7  and  O_8
REMARK    4  A    between atoms: O_8  and  C_9
REMARK    5  A    between atoms: C_10  and  O_11
REMARK    6  A    between atoms: O_11  and  C_12
REMARK    7  A    between atoms: C_12  and  C_13
REMARK    8  A    between atoms: C_13  and  O_14
REMARK    9  A    between atoms: O_14  and  C_15
REMARK   10  A    between atoms: C_20  and  O_21
REMARK   11  A    between atoms: O_21  and  C_22
REMARK   12  A    between atoms: C_22  and  C_23
REMARK   13  A    between atoms: C_22  and  C_24
REMARK                            x       y       z     vdW  Elec       q    Type
REMARK                         _______ _______ _______ _____ _____    ______ ____
ROOT
ATOM      1  C   UNL     1       3.548   7.721  17.702  0.00  0.00    +0.000 C 
ENDROOT
BRANCH   1   2
ATOM      2  O   UNL     1       4.319   6.627  18.206  0.00  0.00    +0.000 OA
BRANCH   2   8
ATOM      3  C   UNL     1       6.082   6.085  16.529  0.00  0.00    +0.000 A 
ATOM      4  C   UNL     1       6.599   5.136  15.630  0.00  0.00    +0.000 A 
ATOM      5  C   UNL     1       5.965   3.917  15.439  0.00  0.00    +0.000 A 
ATOM      6  C   UNL     1       4.833   3.612  16.188  0.00  0.00    +0.000 A 
ATOM      7  C   UNL     1       4.339   4.517  17.140  0.00  0.00    +0.000 A 
ATOM      8  C   UNL     1       4.941   5.783  17.311  0.00  0.00    +0.000 A 
BRANCH   3  10
ATOM      9  C   UNL     1       7.666   7.337  17.780  0.00  0.00    +0.000 C 
ATOM     10  O   UNL     1       6.741   7.276  16.694  0.00  0.00    +0.000 OA
ENDBRANCH   3  10
BRANCH   7  11
ATOM     11  O   UNL     1       3.205   4.061  17.772  0.00  0.00    +0.000 OA
ATOM     12  C   UNL     1       2.990   2.657  17.711  0.00  0.00    +0.000 C 
ENDBRANCH   7  11
ENDBRANCH   2   8
ENDBRANCH   1   2
BRANCH   1  13
ATOM     13  C   UNL     1       2.071   7.554  18.073  0.00  0.00    +0.000 C 
BRANCH  13  14
ATOM     14  O   UNL     1       1.438   8.823  18.300  0.00  0.00    +0.000 OA
BRANCH  14  15
ATOM     15  C   UNL     1       1.013   9.143  19.565  0.00  0.00    +0.000 A 
ATOM     16  C   UNL     1       1.519   8.515  20.718  0.00  0.00    +0.000 A 
ATOM     17  C   UNL     1       1.006   8.795  21.987  0.00  0.00    +0.000 A 
ATOM     18  C   UNL     1      -0.025   9.709  22.130  0.00  0.00    +0.000 A 
ATOM     19  C   UNL     1      -0.525  10.354  21.002  0.00  0.00    +0.000 A 
ATOM     20  C   UNL     1      -0.008  10.101  19.719  0.00  0.00    +0.000 A 
BRANCH  20  21
ATOM     21  O   UNL     1      -0.668  10.820  18.760  0.00  0.00    +0.000 OA
BRANCH  21  22
ATOM     22  C   UNL     1      -1.968  10.427  18.317  0.00  0.00    +0.000 C 
ATOM     23  C   UNL     1      -2.844  11.677  18.308  0.00  0.00    +0.000 C 
ATOM     24  C   UNL     1      -1.834   9.882  16.894  0.00  0.00    +0.000 C 
ENDBRANCH  21  22
ENDBRANCH  20  21
ENDBRANCH  14  15
ENDBRANCH  13  14
ENDBRANCH   1  13
TORSDOF 9
ENDMDL
