MODEL 1
REMARK VINA RESULT:      -7.6      0.000      0.000
REMARK  Name = 
REMARK  3 active torsions:
REMARK  status: ('A' for Active; 'I' for Inactive)
REMARK    1  A    between atoms: C_2  and  C_10
REMARK    2  A    between atoms: N_3  and  C_4
REMARK    3  A    between atoms: C_13  and  C_14
REMARK                            x       y       z     vdW  Elec       q    Type
REMARK                         _______ _______ _______ _____ _____    ______ ____
ROOT
ATOM      1  C   UNL     1       2.374   7.672  18.846  0.00  0.00    +0.000 A 
ATOM      2  C   UNL     1       1.866   8.820  18.236  0.00  0.00    +0.000 A 
ATOM      3  C   UNL     1       1.018   9.674  18.950  0.00  0.00    +0.000 A 
ATOM      4  C   UNL     1       0.651   9.412  20.283  0.00  0.00    +0.000 A 
ATOM      5  C   UNL     1       1.167   8.244  20.874  0.00  0.00    +0.000 A 
ATOM      6  C   UNL     1       2.027   7.392  20.171  0.00  0.00    +0.000 A 
ENDROOT
BRANCH   4   7
ATOM      7  C   UNL     1      -0.207  10.362  21.032  0.00  0.00    +0.000 A 
ATOM      8  C   UNL     1      -0.424  10.217  22.416  0.00  0.00    +0.000 A 
ATOM      9  C   UNL     1      -1.303  11.051  23.114  0.00  0.00    +0.000 A 
ATOM     10  C   UNL     1      -1.969  12.072  22.445  0.00  0.00    +0.000 A 
ATOM     11  C   UNL     1      -1.749  12.263  21.085  0.00  0.00    +0.000 A 
ATOM     12  C   UNL     1      -0.880  11.416  20.387  0.00  0.00    +0.000 A 
ENDBRANCH   4   7
BRANCH   1  14
ATOM     13  O   UNL     1       3.949   7.154  17.176  0.00  0.00    +0.000 OA
ATOM     14  C   UNL     1       3.314   6.756  18.146  0.00  0.00    +0.000 C 
ATOM     15  N   UNL     1       3.427   5.482  18.664  0.00  0.00    +0.000 N 
ATOM     16  H   UNL     1       2.917   5.236  19.500  0.00  0.00    +0.000 HD
BRANCH  15  17
ATOM     17  C   UNL     1       4.287   4.473  18.057  0.00  0.00    +0.000 C 
ATOM     18  C   UNL     1       4.891   3.562  19.133  0.00  0.00    +0.000 C 
ATOM     19  C   UNL     1       3.867   2.599  19.733  0.00  0.00    +0.000 C 
ATOM     20  C   UNL     1       3.181   1.777  18.649  0.00  0.00    +0.000 C 
ATOM     21  C   UNL     1       2.534   2.668  17.594  0.00  0.00    +0.000 C 
ATOM     22  C   UNL     1       3.528   3.664  16.995  0.00  0.00    +0.000 C 
ENDBRANCH  15  17
ENDBRANCH   1  14
TORSDOF 3
ENDMDL
MODEL 2
REMARK VINA RESULT:      -7.6      0.438      1.550
REMARK  Name = 
REMARK  3 active torsions:
REMARK  status: ('A' for Active; 'I' for Inactive)
REMARK    1  A    between atoms: C_2  and  C_10
REMARK    2  A    between atoms: N_3  and  C_4
REMARK    3  A    between atoms: C_13  and  C_14
REMARK                            x       y       z     vdW  Elec       q    Type
REMARK                         _______ _______ _______ _____ _____    ______ ____
ROOT
ATOM      1  C   UNL     1       2.315   7.702  18.834  0.00  0.00    +0.000 A 
ATOM      2  C   UNL     1       2.002   7.452  20.171  0.00  0.00    +0.000 A 
ATOM      3  C   UNL     1       1.166   8.331  20.869  0.00  0.00    +0.000 A 
ATOM      4  C   UNL     1       0.622   9.478  20.262  0.00  0.00    +0.000 A 
ATOM      5  C   UNL     1       0.960   9.716  18.917  0.00  0.00    +0.000 A 
ATOM      6  C   UNL     1       1.784   8.833  18.208  0.00  0.00    +0.000 A 
ENDROOT
BRANCH   4   7
ATOM      7  C   UNL     1      -0.303  10.364  21.011  0.00  0.00    +0.000 A 
ATOM      8  C   UNL     1      -0.993  11.411  20.369  0.00  0.00    +0.000 A 
ATOM      9  C   UNL     1      -1.795  12.307  21.081  0.00  0.00    +0.000 A 
ATOM     10  C   UNL     1      -1.947  12.162  22.456  0.00  0.00    +0.000 A 
ATOM     11  C   UNL     1      -1.306  11.117  23.113  0.00  0.00    +0.000 A 
ATOM     12  C   UNL     1      -0.491  10.231  22.398  0.00  0.00    +0.000 A 
ENDBRANCH   4   7
BRANCH   1  14
ATOM     13  O   UNL     1       4.033   7.224  17.299  0.00  0.00    +0.000 OA
ATOM     14  C   UNL     1       3.162   6.776  18.035  0.00  0.00    +0.000 C 
ATOM     15  N   UNL     1       2.918   5.427  18.198  0.00  0.00    +0.000 N 
ATOM     16  H   UNL     1       2.223   5.123  18.864  0.00  0.00    +0.000 HD
BRANCH  15  17
ATOM     17  C   UNL     1       3.652   4.412  17.453  0.00  0.00    +0.000 C 
ATOM     18  C   UNL     1       4.836   3.891  18.277  0.00  0.00    +0.000 C 
ATOM     19  C   UNL     1       4.400   2.994  19.435  0.00  0.00    +0.000 C 
ATOM     20  C   UNL     1       3.532   1.842  18.944  0.00  0.00    +0.000 C 
ATOM     21  C   UNL     1       2.322   2.344  18.161  0.00  0.00    +0.000 C 
ATOM     22  C   UNL     1       2.727   3.269  17.012  0.00  0.00    +0.000 C 
ENDBRANCH  15  17
ENDBRANCH   1  14
TORSDOF 3
ENDMDL
MODEL 3
REMARK VINA RESULT:      -7.6      5.074      7.240
REMARK  Name = 
REMARK  3 active torsions:
REMARK  status: ('A' for Active; 'I' for Inactive)
REMARK    1  A    between atoms: C_2  and  C_10
REMARK    2  A    between atoms: N_3  and  C_4
REMARK    3  A    between atoms: C_13  and  C_14
REMARK                            x       y       z     vdW  Elec       q    Type
REMARK                         _______ _______ _______ _____ _____    ______ ____
ROOT
ATOM      1  C   UNL     1       6.952   6.156  17.876  0.00  0.00    +0.000 A 
ATOM      2  C   UNL     1       7.911   6.220  18.888  0.00  0.00    +0.000 A 
ATOM      3  C   UNL     1       8.578   7.424  19.143  0.00  0.00    +0.000 A 
ATOM      4  C   UNL     1       8.314   8.591  18.403  0.00  0.00    +0.000 A 
ATOM      5  C   UNL     1       7.352   8.501  17.381  0.00  0.00    +0.000 A 
ATOM      6  C   UNL     1       6.670   7.304  17.129  0.00  0.00    +0.000 A 
ENDROOT
BRANCH   4   7
ATOM      7  C   UNL     1       8.999   9.866  18.731  0.00  0.00    +0.000 A 
ATOM      8  C   UNL     1       9.490  10.713  17.718  0.00  0.00    +0.000 A 
ATOM      9  C   UNL     1      10.216  11.870  18.017  0.00  0.00    +0.000 A 
ATOM     10  C   UNL     1      10.449  12.221  19.342  0.00  0.00    +0.000 A 
ATOM     11  C   UNL     1       9.947  11.423  20.365  0.00  0.00    +0.000 A 
ATOM     12  C   UNL     1       9.234  10.257  20.061  0.00  0.00    +0.000 A 
ENDBRANCH   4   7
BRANCH   1  14
ATOM     13  O   UNL     1       6.523   4.179  16.674  0.00  0.00    +0.000 OA
ATOM     14  C   UNL     1       6.183   4.914  17.594  0.00  0.00    +0.000 C 
ATOM     15  N   UNL     1       5.115   4.652  18.427  0.00  0.00    +0.000 N 
ATOM     16  H   UNL     1       4.923   5.270  19.202  0.00  0.00    +0.000 HD
BRANCH  15  17
ATOM     17  C   UNL     1       4.258   3.488  18.244  0.00  0.00    +0.000 C 
ATOM     18  C   UNL     1       3.789   2.945  19.600  0.00  0.00    +0.000 C 
ATOM     19  C   UNL     1       2.745   3.842  20.265  0.00  0.00    +0.000 C 
ATOM     20  C   UNL     1       1.560   4.090  19.340  0.00  0.00    +0.000 C 
ATOM     21  C   UNL     1       2.004   4.673  18.002  0.00  0.00    +0.000 C 
ATOM     22  C   UNL     1       3.070   3.811  17.325  0.00  0.00    +0.000 C 
ENDBRANCH  15  17
ENDBRANCH   1  14
TORSDOF 3
ENDMDL
MODEL 4
REMARK VINA RESULT:      -7.6      0.082      1.052
REMARK  Name = 
REMARK  3 active torsions:
REMARK  status: ('A' for Active; 'I' for Inactive)
REMARK    1  A    between atoms: C_2  and  C_10
REMARK    2  A    between atoms: N_3  and  C_4
REMARK    3  A    between atoms: C_13  and  C_14
REMARK                            x       y       z     vdW  Elec       q    Type
REMARK                         _______ _______ _______ _____ _____    ______ ____
ROOT
ATOM      1  C   UNL     1       2.349   7.691  18.857  0.00  0.00    +0.000 A 
ATOM      2  C   UNL     1       1.812   8.816  18.229  0.00  0.00    +0.000 A 
ATOM      3  C   UNL     1       0.940   9.658  18.929  0.00  0.00    +0.000 A 
ATOM      4  C   UNL     1       0.578   9.406  20.265  0.00  0.00    +0.000 A 
ATOM      5  C   UNL     1       1.122   8.261  20.874  0.00  0.00    +0.000 A 
ATOM      6  C   UNL     1       2.006   7.422  20.185  0.00  0.00    +0.000 A 
ENDROOT
BRANCH   4   7
ATOM      7  C   UNL     1      -0.308  10.344  20.998  0.00  0.00    +0.000 A 
ATOM      8  C   UNL     1      -0.958  11.404  20.336  0.00  0.00    +0.000 A 
ATOM      9  C   UNL     1      -1.721  12.346  21.032  0.00  0.00    +0.000 A 
ATOM     10  C   UNL     1      -1.871  12.237  22.410  0.00  0.00    +0.000 A 
ATOM     11  C   UNL     1      -1.270  11.182  23.088  0.00  0.00    +0.000 A 
ATOM     12  C   UNL     1      -0.495  10.249  22.389  0.00  0.00    +0.000 A 
ENDBRANCH   4   7
BRANCH   1  14
ATOM     13  O   UNL     1       3.980   7.206  17.232  0.00  0.00    +0.000 OA
ATOM     14  C   UNL     1       3.314   6.790  18.172  0.00  0.00    +0.000 C 
ATOM     15  N   UNL     1       3.414   5.507  18.672  0.00  0.00    +0.000 N 
ATOM     16  H   UNL     1       2.878   5.245  19.486  0.00  0.00    +0.000 HD
BRANCH  15  17
ATOM     17  C   UNL     1       4.296   4.511  18.076  0.00  0.00    +0.000 C 
ATOM     18  C   UNL     1       4.878   3.592  19.157  0.00  0.00    +0.000 C 
ATOM     19  C   UNL     1       3.846   2.615  19.718  0.00  0.00    +0.000 C 
ATOM     20  C   UNL     1       3.194   1.801  18.607  0.00  0.00    +0.000 C 
ATOM     21  C   UNL     1       2.569   2.700  17.545  0.00  0.00    +0.000 C 
ATOM     22  C   UNL     1       3.572   3.709  16.985  0.00  0.00    +0.000 C 
ENDBRANCH  15  17
ENDBRANCH   1  14
TORSDOF 3
ENDMDL
MODEL 5
REMARK VINA RESULT:      -7.6      5.408      6.860
REMARK  Name = 
REMARK  3 active torsions:
REMARK  status: ('A' for Active; 'I' for Inactive)
REMARK    1  A    between atoms: C_2  and  C_10
REMARK    2  A    between atoms: N_3  and  C_4
REMARK    3  A    between atoms: C_13  and  C_14
REMARK                            x       y       z     vdW  Elec       q    Type
REMARK                         _______ _______ _______ _____ _____    ______ ____
ROOT
ATOM      1  C   UNL     1       6.452   5.751  17.499  0.00  0.00    +0.000 A 
ATOM      2  C   UNL     1       7.529   5.804  18.387  0.00  0.00    +0.000 A 
ATOM      3  C   UNL     1       8.182   7.019  18.621  0.00  0.00    +0.000 A 
ATOM      4  C   UNL     1       7.789   8.209  17.981  0.00  0.00    +0.000 A 
ATOM      5  C   UNL     1       6.710   8.130  17.083  0.00  0.00    +0.000 A 
ATOM      6  C   UNL     1       6.041   6.921  16.854  0.00  0.00    +0.000 A 
ENDROOT
BRANCH   4   7
ATOM      7  C   UNL     1       8.468   9.492  18.288  0.00  0.00    +0.000 A 
ATOM      8  C   UNL     1       9.302   9.626  19.414  0.00  0.00    +0.000 A 
ATOM      9  C   UNL     1       9.873  10.854  19.763  0.00  0.00    +0.000 A 
ATOM     10  C   UNL     1       9.641  11.977  18.976  0.00  0.00    +0.000 A 
ATOM     11  C   UNL     1       8.850  11.868  17.837  0.00  0.00    +0.000 A 
ATOM     12  C   UNL     1       8.268  10.640  17.500  0.00  0.00    +0.000 A 
ENDBRANCH   4   7
BRANCH   1  14
ATOM     13  O   UNL     1       5.953   3.811  16.265  0.00  0.00    +0.000 OA
ATOM     14  C   UNL     1       5.696   4.495  17.249  0.00  0.00    +0.000 C 
ATOM     15  N   UNL     1       4.737   4.161  18.184  0.00  0.00    +0.000 N 
ATOM     16  H   UNL     1       4.615   4.739  19.002  0.00  0.00    +0.000 HD
BRANCH  15  17
ATOM     17  C   UNL     1       3.901   2.975  18.045  0.00  0.00    +0.000 C 
ATOM     18  C   UNL     1       3.579   2.379  19.422  0.00  0.00    +0.000 C 
ATOM     19  C   UNL     1       2.577   3.223  20.209  0.00  0.00    +0.000 C 
ATOM     20  C   UNL     1       1.303   3.457  19.407  0.00  0.00    +0.000 C 
ATOM     21  C   UNL     1       1.601   4.093  18.052  0.00  0.00    +0.000 C 
ATOM     22  C   UNL     1       2.623   3.285  17.253  0.00  0.00    +0.000 C 
ENDBRANCH  15  17
ENDBRANCH   1  14
TORSDOF 3
ENDMDL
MODEL 6
REMARK VINA RESULT:      -7.6      0.435      1.136
REMARK  Name = 
REMARK  3 active torsions:
REMARK  status: ('A' for Active; 'I' for Inactive)
REMARK    1  A    between atoms: C_2  and  C_10
REMARK    2  A    between atoms: N_3  and  C_4
REMARK    3  A    between atoms: C_13  and  C_14
REMARK                            x       y       z     vdW  Elec       q    Type
REMARK                         _______ _______ _______ _____ _____    ______ ____
ROOT
ATOM      1  C   UNL     1       2.326   7.771  18.849  0.00  0.00    +0.000 A 
ATOM      2  C   UNL     1       1.979   7.504  20.175  0.00  0.00    +0.000 A 
ATOM      3  C   UNL     1       1.163   8.398  20.877  0.00  0.00    +0.000 A 
ATOM      4  C   UNL     1       0.674   9.578  20.286  0.00  0.00    +0.000 A 
ATOM      5  C   UNL     1       1.046   9.832  18.954  0.00  0.00    +0.000 A 
ATOM      6  C   UNL     1       1.850   8.935  18.240  0.00  0.00    +0.000 A 
ENDROOT
BRANCH   4   7
ATOM      7  C   UNL     1      -0.231  10.482  21.039  0.00  0.00    +0.000 A 
ATOM      8  C   UNL     1      -0.421  10.336  22.426  0.00  0.00    +0.000 A 
ATOM      9  C   UNL     1      -1.340  11.123  23.128  0.00  0.00    +0.000 A 
ATOM     10  C   UNL     1      -2.076  12.095  22.459  0.00  0.00    +0.000 A 
ATOM     11  C   UNL     1      -1.885  12.286  21.095  0.00  0.00    +0.000 A 
ATOM     12  C   UNL     1      -0.975  11.486  20.393  0.00  0.00    +0.000 A 
ENDBRANCH   4   7
BRANCH   1  14
ATOM     13  O   UNL     1       3.982   7.268  17.255  0.00  0.00    +0.000 OA
ATOM     14  C   UNL     1       3.153   6.831  18.045  0.00  0.00    +0.000 C 
ATOM     15  N   UNL     1       2.941   5.486  18.265  0.00  0.00    +0.000 N 
ATOM     16  H   UNL     1       2.282   5.194  18.973  0.00  0.00    +0.000 HD
BRANCH  15  17
ATOM     17  C   UNL     1       3.659   4.457  17.523  0.00  0.00    +0.000 C 
ATOM     18  C   UNL     1       4.817   3.899  18.360  0.00  0.00    +0.000 C 
ATOM     19  C   UNL     1       4.340   3.005  19.504  0.00  0.00    +0.000 C 
ATOM     20  C   UNL     1       3.450   1.880  18.992  0.00  0.00    +0.000 C 
ATOM     21  C   UNL     1       2.265   2.420  18.196  0.00  0.00    +0.000 C 
ATOM     22  C   UNL     1       2.710   3.342  17.060  0.00  0.00    +0.000 C 
ENDBRANCH  15  17
ENDBRANCH   1  14
TORSDOF 3
ENDMDL
MODEL 7
REMARK VINA RESULT:      -7.5      5.274      7.058
REMARK  Name = 
REMARK  3 active torsions:
REMARK  status: ('A' for Active; 'I' for Inactive)
REMARK    1  A    between atoms: C_2  and  C_10
REMARK    2  A    between atoms: N_3  and  C_4
REMARK    3  A    between atoms: C_13  and  C_14
REMARK                            x       y       z     vdW  Elec       q    Type
REMARK                         _______ _______ _______ _____ _____    ______ ____
ROOT
ATOM      1  C   UNL     1       6.791   6.142  17.808  0.00  0.00    +0.000 A 
ATOM      2  C   UNL     1       6.513   7.325  17.122  0.00  0.00    +0.000 A 
ATOM      3  C   UNL     1       7.224   8.492  17.425  0.00  0.00    +0.000 A 
ATOM      4  C   UNL     1       8.224   8.516  18.414  0.00  0.00    +0.000 A 
ATOM      5  C   UNL     1       8.480   7.316  19.100  0.00  0.00    +0.000 A 
ATOM      6  C   UNL     1       7.783   6.141  18.793  0.00  0.00    +0.000 A 
ENDROOT
BRANCH   4   7
ATOM      7  C   UNL     1       8.998   9.755  18.677  0.00  0.00    +0.000 A 
ATOM      8  C   UNL     1       9.285  10.172  19.991  0.00  0.00    +0.000 A 
ATOM      9  C   UNL     1       9.933  11.383  20.252  0.00  0.00    +0.000 A 
ATOM     10  C   UNL     1      10.333  12.198  19.199  0.00  0.00    +0.000 A 
ATOM     11  C   UNL     1      10.095  11.797  17.889  0.00  0.00    +0.000 A 
ATOM     12  C   UNL     1       9.432  10.591  17.632  0.00  0.00    +0.000 A 
ENDBRANCH   4   7
BRANCH   1  14
ATOM     13  O   UNL     1       6.517   4.142  16.599  0.00  0.00    +0.000 OA
ATOM     14  C   UNL     1       6.095   4.865  17.494  0.00  0.00    +0.000 C 
ATOM     15  N   UNL     1       4.997   4.559  18.271  0.00  0.00    +0.000 N 
ATOM     16  H   UNL     1       4.736   5.172  19.030  0.00  0.00    +0.000 HD
BRANCH  15  17
ATOM     17  C   UNL     1       4.204   3.356  18.051  0.00  0.00    +0.000 C 
ATOM     18  C   UNL     1       3.795   2.728  19.389  0.00  0.00    +0.000 C 
ATOM     19  C   UNL     1       2.716   3.532  20.113  0.00  0.00    +0.000 C 
ATOM     20  C   UNL     1       1.499   3.751  19.222  0.00  0.00    +0.000 C 
ATOM     21  C   UNL     1       1.881   4.419  17.904  0.00  0.00    +0.000 C 
ATOM     22  C   UNL     1       2.981   3.651  17.170  0.00  0.00    +0.000 C 
ENDBRANCH  15  17
ENDBRANCH   1  14
TORSDOF 3
ENDMDL
MODEL 8
REMARK VINA RESULT:      -7.5      5.320      7.225
REMARK  Name = 
REMARK  3 active torsions:
REMARK  status: ('A' for Active; 'I' for Inactive)
REMARK    1  A    between atoms: C_2  and  C_10
REMARK    2  A    between atoms: N_3  and  C_4
REMARK    3  A    between atoms: C_13  and  C_14
REMARK                            x       y       z     vdW  Elec       q    Type
REMARK                         _______ _______ _______ _____ _____    ______ ____
ROOT
ATOM      1  C   UNL     1       7.018   6.271  17.901  0.00  0.00    +0.000 A 
ATOM      2  C   UNL     1       6.736   7.413  17.151  0.00  0.00    +0.000 A 
ATOM      3  C   UNL     1       7.395   8.615  17.435  0.00  0.00    +0.000 A 
ATOM      4  C   UNL     1       8.344   8.716  18.468  0.00  0.00    +0.000 A 
ATOM      5  C   UNL     1       8.604   7.555  19.218  0.00  0.00    +0.000 A 
ATOM      6  C   UNL     1       7.960   6.345  18.931  0.00  0.00    +0.000 A 
ENDROOT
BRANCH   4   7
ATOM      7  C   UNL     1       9.064   9.990  18.713  0.00  0.00    +0.000 A 
ATOM      8  C   UNL     1       9.430  10.839  17.650  0.00  0.00    +0.000 A 
ATOM      9  C   UNL     1      10.187  11.995  17.860  0.00  0.00    +0.000 A 
ATOM     10  C   UNL     1      10.578  12.345  19.148  0.00  0.00    +0.000 A 
ATOM     11  C   UNL     1      10.203  11.545  20.223  0.00  0.00    +0.000 A 
ATOM     12  C   UNL     1       9.457  10.380  20.006  0.00  0.00    +0.000 A 
ENDBRANCH   4   7
BRANCH   1  14
ATOM     13  O   UNL     1       6.900   4.186  16.816  0.00  0.00    +0.000 OA
ATOM     14  C   UNL     1       6.379   4.959  17.612  0.00  0.00    +0.000 C 
ATOM     15  N   UNL     1       5.215   4.680  18.298  0.00  0.00    +0.000 N 
ATOM     16  H   UNL     1       4.869   5.337  18.983  0.00  0.00    +0.000 HD
BRANCH  15  17
ATOM     17  C   UNL     1       4.468   3.446  18.087  0.00  0.00    +0.000 C 
ATOM     18  C   UNL     1       4.076   2.817  19.429  0.00  0.00    +0.000 C 
ATOM     19  C   UNL     1       2.963   3.589  20.139  0.00  0.00    +0.000 C 
ATOM     20  C   UNL     1       1.744   3.752  19.239  0.00  0.00    +0.000 C 
ATOM     21  C   UNL     1       2.109   4.419  17.916  0.00  0.00    +0.000 C 
ATOM     22  C   UNL     1       3.240   3.685  17.196  0.00  0.00    +0.000 C 
ENDBRANCH  15  17
ENDBRANCH   1  14
TORSDOF 3
ENDMDL
MODEL 9
REMARK VINA RESULT:      -7.3      2.156      3.181
REMARK  Name = 
REMARK  3 active torsions:
REMARK  status: ('A' for Active; 'I' for Inactive)
REMARK    1  A    between atoms: C_2  and  C_10
REMARK    2  A    between atoms: N_3  and  C_4
REMARK    3  A    between atoms: C_13  and  C_14
REMARK                            x       y       z     vdW  Elec       q    Type
REMARK                         _______ _______ _______ _____ _____    ______ ____
ROOT
ATOM      1  C   UNL     1       2.617   7.085  19.075  0.00  0.00    +0.000 A 
ATOM      2  C   UNL     1       1.940   7.538  20.209  0.00  0.00    +0.000 A 
ATOM      3  C   UNL     1       1.228   8.742  20.163  0.00  0.00    +0.000 A 
ATOM      4  C   UNL     1       1.171   9.527  18.996  0.00  0.00    +0.000 A 
ATOM      5  C   UNL     1       1.870   9.057  17.870  0.00  0.00    +0.000 A 
ATOM      6  C   UNL     1       2.573   7.846  17.904  0.00  0.00    +0.000 A 
ENDROOT
BRANCH   4   7
ATOM      7  C   UNL     1       0.365  10.772  18.962  0.00  0.00    +0.000 A 
ATOM      8  C   UNL     1       0.979  12.039  18.915  0.00  0.00    +0.000 A 
ATOM      9  C   UNL     1       0.232  13.219  18.974  0.00  0.00    +0.000 A 
ATOM     10  C   UNL     1      -1.154  13.161  19.056  0.00  0.00    +0.000 A 
ATOM     11  C   UNL     1      -1.792  11.925  19.069  0.00  0.00    +0.000 A 
ATOM     12  C   UNL     1      -1.040  10.745  19.025  0.00  0.00    +0.000 A 
ENDBRANCH   4   7
BRANCH   1  14
ATOM     13  O   UNL     1       3.045   4.903  19.844  0.00  0.00    +0.000 OA
ATOM     14  C   UNL     1       3.352   5.792  19.058  0.00  0.00    +0.000 C 
ATOM     15  N   UNL     1       4.349   5.666  18.113  0.00  0.00    +0.000 N 
ATOM     16  H   UNL     1       4.513   6.416  17.457  0.00  0.00    +0.000 HD
BRANCH  15  17
ATOM     17  C   UNL     1       5.169   4.465  18.007  0.00  0.00    +0.000 C 
ATOM     18  C   UNL     1       4.834   3.696  16.723  0.00  0.00    +0.000 C 
ATOM     19  C   UNL     1       5.358   4.390  15.466  0.00  0.00    +0.000 C 
ATOM     20  C   UNL     1       6.855   4.656  15.565  0.00  0.00    +0.000 C 
ATOM     21  C   UNL     1       7.201   5.461  16.814  0.00  0.00    +0.000 C 
ATOM     22  C   UNL     1       6.664   4.804  18.087  0.00  0.00    +0.000 C 
ENDBRANCH  15  17
ENDBRANCH   1  14
TORSDOF 3
ENDMDL
