MODEL 1
REMARK VINA RESULT:      -8.0      0.000      0.000
REMARK  Name = 
REMARK  6 active torsions:
REMARK  status: ('A' for Active; 'I' for Inactive)
REMARK    1  A    between atoms: C_1  and  C_2
REMARK    2  A    between atoms: C_7  and  C_8
REMARK    3  A    between atoms: C_9  and  C_10
REMARK    4  A    between atoms: C_10  and  C_12
REMARK    5  A    between atoms: C_13  and  C_14
REMARK    6  A    between atoms: C_17  and  C_18
REMARK                            x       y       z     vdW  Elec       q    Type
REMARK                         _______ _______ _______ _____ _____    ______ ____
ROOT
ATOM      1  C   UNL     1      -1.363  12.730  23.000  0.00  0.00    +0.000 C 
ATOM      2  C   UNL     1      -0.754  11.448  22.516  0.00  0.00    +0.000 A 
ATOM      3  C   UNL     1      -0.702  10.313  23.327  0.00  0.00    +0.000 A 
ATOM      4  C   UNL     1      -0.127   9.136  22.845  0.00  0.00    +0.000 A 
ATOM      5  C   UNL     1       0.418   9.089  21.549  0.00  0.00    +0.000 A 
ATOM      6  C   UNL     1       1.041   7.939  21.039  0.00  0.00    +0.000 A 
ATOM      7  C   UNL     1       1.628   7.941  19.765  0.00  0.00    +0.000 A 
ATOM      8  C   UNL     1       1.531   9.143  19.058  0.00  0.00    +0.000 A 
ATOM      9 CL   UNL     1       2.268   9.429  17.525  0.00  0.00    +0.000 Cl
ATOM     10  N   UNL     1       0.899  10.253  19.499  0.00  0.00    +0.000 NA
ATOM     11  C   UNL     1       0.369  10.229  20.726  0.00  0.00    +0.000 A 
ATOM     12  C   UNL     1      -0.229  11.380  21.218  0.00  0.00    +0.000 A 
ENDROOT
BRANCH   7  13
ATOM     13  C   UNL     1       2.333   6.713  19.353  0.00  0.00    +0.000 C 
ATOM     14  C   UNL     1       2.143   6.064  18.196  0.00  0.00    +0.000 C 
BRANCH  14  15
ATOM     15  C   UNL     1       2.853   4.790  17.921  0.00  0.00    +0.000 C 
ATOM     16  O   UNL     1       2.266   3.796  17.501  0.00  0.00    +0.000 OA
BRANCH  15  17
ATOM     17  C   UNL     1       4.271   4.826  18.231  0.00  0.00    +0.000 A 
ATOM     18  C   UNL     1       5.334   5.682  17.754  0.00  0.00    +0.000 A 
ATOM     19  C   UNL     1       5.309   6.790  16.761  0.00  0.00    +0.000 C 
ATOM     20  C   UNL     1       6.479   5.239  18.391  0.00  0.00    +0.000 A 
ATOM     21  O   UNL     1       6.212   4.192  19.202  0.00  0.00    +0.000 OA
ATOM     22  C   UNL     1       4.885   3.935  19.099  0.00  0.00    +0.000 A 
ATOM     23  C   UNL     1       4.380   2.808  19.921  0.00  0.00    +0.000 C 
ENDBRANCH  15  17
ENDBRANCH  14  15
ENDBRANCH   7  13
TORSDOF 3
ENDMDL
MODEL 2
REMARK VINA RESULT:      -7.9      2.537      3.541
REMARK  Name = 
REMARK  6 active torsions:
REMARK  status: ('A' for Active; 'I' for Inactive)
REMARK    1  A    between atoms: C_1  and  C_2
REMARK    2  A    between atoms: C_7  and  C_8
REMARK    3  A    between atoms: C_9  and  C_10
REMARK    4  A    between atoms: C_10  and  C_12
REMARK    5  A    between atoms: C_13  and  C_14
REMARK    6  A    between atoms: C_17  and  C_18
REMARK                            x       y       z     vdW  Elec       q    Type
REMARK                         _______ _______ _______ _____ _____    ______ ____
ROOT
ATOM      1  C   UNL     1      -0.250  11.811  21.185  0.00  0.00    +0.000 C 
ATOM      2  C   UNL     1       0.433  10.753  20.371  0.00  0.00    +0.000 A 
ATOM      3  C   UNL     1       0.811  10.981  19.047  0.00  0.00    +0.000 A 
ATOM      4  C   UNL     1       1.445   9.974  18.318  0.00  0.00    +0.000 A 
ATOM      5  C   UNL     1       1.692   8.719  18.904  0.00  0.00    +0.000 A 
ATOM      6  C   UNL     1       2.290   7.665  18.195  0.00  0.00    +0.000 A 
ATOM      7  C   UNL     1       2.470   6.407  18.789  0.00  0.00    +0.000 A 
ATOM      8  C   UNL     1       2.032   6.295  20.111  0.00  0.00    +0.000 A 
ATOM      9 CL   UNL     1       2.042   4.827  21.016  0.00  0.00    +0.000 Cl
ATOM     10  N   UNL     1       1.496   7.301  20.838  0.00  0.00    +0.000 NA
ATOM     11  C   UNL     1       1.314   8.483  20.238  0.00  0.00    +0.000 A 
ATOM     12  C   UNL     1       0.708   9.506  20.951  0.00  0.00    +0.000 A 
ENDROOT
BRANCH   7  13
ATOM     13  C   UNL     1       3.028   5.341  17.936  0.00  0.00    +0.000 C 
ATOM     14  C   UNL     1       4.301   5.269  17.522  0.00  0.00    +0.000 C 
BRANCH  14  15
ATOM     15  C   UNL     1       4.734   4.191  16.599  0.00  0.00    +0.000 C 
ATOM     16  O   UNL     1       4.247   3.065  16.640  0.00  0.00    +0.000 OA
BRANCH  15  17
ATOM     17  C   UNL     1       5.798   4.584  15.691  0.00  0.00    +0.000 A 
ATOM     18  C   UNL     1       5.978   4.363  14.274  0.00  0.00    +0.000 A 
ATOM     19  C   UNL     1       5.129   3.630  13.297  0.00  0.00    +0.000 C 
ATOM     20  C   UNL     1       7.187   4.956  13.958  0.00  0.00    +0.000 A 
ATOM     21  O   UNL     1       7.759   5.507  15.051  0.00  0.00    +0.000 OA
ATOM     22  C   UNL     1       6.930   5.275  16.098  0.00  0.00    +0.000 A 
ATOM     23  C   UNL     1       7.380   5.806  17.406  0.00  0.00    +0.000 C 
ENDBRANCH  15  17
ENDBRANCH  14  15
ENDBRANCH   7  13
TORSDOF 3
ENDMDL
MODEL 3
REMARK VINA RESULT:      -7.8      1.725      2.850
REMARK  Name = 
REMARK  6 active torsions:
REMARK  status: ('A' for Active; 'I' for Inactive)
REMARK    1  A    between atoms: C_1  and  C_2
REMARK    2  A    between atoms: C_7  and  C_8
REMARK    3  A    between atoms: C_9  and  C_10
REMARK    4  A    between atoms: C_10  and  C_12
REMARK    5  A    between atoms: C_13  and  C_14
REMARK    6  A    between atoms: C_17  and  C_18
REMARK                            x       y       z     vdW  Elec       q    Type
REMARK                         _______ _______ _______ _____ _____    ______ ____
ROOT
ATOM      1  C   UNL     1      -2.841  13.179  22.333  0.00  0.00    +0.000 C 
ATOM      2  C   UNL     1      -1.931  12.001  22.154  0.00  0.00    +0.000 A 
ATOM      3  C   UNL     1      -1.641  11.135  23.209  0.00  0.00    +0.000 A 
ATOM      4  C   UNL     1      -0.789  10.048  23.008  0.00  0.00    +0.000 A 
ATOM      5  C   UNL     1      -0.205   9.827  21.747  0.00  0.00    +0.000 A 
ATOM      6  C   UNL     1       0.689   8.769  21.511  0.00  0.00    +0.000 A 
ATOM      7  C   UNL     1       1.302   8.609  20.259  0.00  0.00    +0.000 A 
ATOM      8  C   UNL     1       0.949   9.551  19.289  0.00  0.00    +0.000 A 
ATOM      9 CL   UNL     1       1.649   9.633  17.715  0.00  0.00    +0.000 Cl
ATOM     10  N   UNL     1       0.058  10.552  19.469  0.00  0.00    +0.000 NA
ATOM     11  C   UNL     1      -0.492  10.695  20.679  0.00  0.00    +0.000 A 
ATOM     12  C   UNL     1      -1.360  11.754  20.897  0.00  0.00    +0.000 A 
ENDROOT
BRANCH   7  13
ATOM     13  C   UNL     1       2.289   7.521  20.135  0.00  0.00    +0.000 C 
ATOM     14  C   UNL     1       2.041   6.306  19.626  0.00  0.00    +0.000 C 
BRANCH  14  15
ATOM     15  C   UNL     1       3.094   5.260  19.623  0.00  0.00    +0.000 C 
ATOM     16  O   UNL     1       4.264   5.515  19.894  0.00  0.00    +0.000 OA
BRANCH  15  17
ATOM     17  C   UNL     1       2.617   3.944  19.236  0.00  0.00    +0.000 A 
ATOM     18  C   UNL     1       1.849   2.954  19.957  0.00  0.00    +0.000 A 
ATOM     19  C   UNL     1       1.325   2.966  21.350  0.00  0.00    +0.000 C 
ATOM     20  C   UNL     1       1.705   1.890  19.085  0.00  0.00    +0.000 A 
ATOM     21  O   UNL     1       2.320   2.140  17.908  0.00  0.00    +0.000 OA
ATOM     22  C   UNL     1       2.879   3.371  18.000  0.00  0.00    +0.000 A 
ATOM     23  C   UNL     1       3.610   3.840  16.799  0.00  0.00    +0.000 C 
ENDBRANCH  15  17
ENDBRANCH  14  15
ENDBRANCH   7  13
TORSDOF 3
ENDMDL
MODEL 4
REMARK VINA RESULT:      -7.7      1.688      2.470
REMARK  Name = 
REMARK  6 active torsions:
REMARK  status: ('A' for Active; 'I' for Inactive)
REMARK    1  A    between atoms: C_1  and  C_2
REMARK    2  A    between atoms: C_7  and  C_8
REMARK    3  A    between atoms: C_9  and  C_10
REMARK    4  A    between atoms: C_10  and  C_12
REMARK    5  A    between atoms: C_13  and  C_14
REMARK    6  A    between atoms: C_17  and  C_18
REMARK                            x       y       z     vdW  Elec       q    Type
REMARK                         _______ _______ _______ _____ _____    ______ ____
ROOT
ATOM      1  C   UNL     1      -2.590  13.222  22.108  0.00  0.00    +0.000 C 
ATOM      2  C   UNL     1      -1.725  12.002  22.013  0.00  0.00    +0.000 A 
ATOM      3  C   UNL     1      -1.484  11.188  23.121  0.00  0.00    +0.000 A 
ATOM      4  C   UNL     1      -0.673  10.060  22.997  0.00  0.00    +0.000 A 
ATOM      5  C   UNL     1      -0.080   9.743  21.761  0.00  0.00    +0.000 A 
ATOM      6  C   UNL     1       0.776   8.640  21.601  0.00  0.00    +0.000 A 
ATOM      7  C   UNL     1       1.399   8.385  20.371  0.00  0.00    +0.000 A 
ATOM      8  C   UNL     1       1.098   9.281  19.342  0.00  0.00    +0.000 A 
ATOM      9 CL   UNL     1       1.823   9.244  17.778  0.00  0.00    +0.000 Cl
ATOM     10  N   UNL     1       0.244  10.324  19.449  0.00  0.00    +0.000 NA
ATOM     11  C   UNL     1      -0.318  10.558  20.640  0.00  0.00    +0.000 A 
ATOM     12  C   UNL     1      -1.146  11.661  20.782  0.00  0.00    +0.000 A 
ENDROOT
BRANCH   7  13
ATOM     13  C   UNL     1       2.345   7.254  20.325  0.00  0.00    +0.000 C 
ATOM     14  C   UNL     1       2.493   6.411  19.294  0.00  0.00    +0.000 C 
BRANCH  14  15
ATOM     15  C   UNL     1       3.423   5.258  19.391  0.00  0.00    +0.000 C 
ATOM     16  O   UNL     1       4.630   5.408  19.551  0.00  0.00    +0.000 OA
BRANCH  15  17
ATOM     17  C   UNL     1       2.777   3.965  19.237  0.00  0.00    +0.000 A 
ATOM     18  C   UNL     1       2.537   3.148  18.069  0.00  0.00    +0.000 A 
ATOM     19  C   UNL     1       2.858   3.393  16.637  0.00  0.00    +0.000 C 
ATOM     20  C   UNL     1       1.869   2.029  18.532  0.00  0.00    +0.000 A 
ATOM     21  O   UNL     1       1.674   2.096  19.868  0.00  0.00    +0.000 OA
ATOM     22  C   UNL     1       2.211   3.266  20.293  0.00  0.00    +0.000 A 
ATOM     23  C   UNL     1       2.102   3.535  21.746  0.00  0.00    +0.000 C 
ENDBRANCH  15  17
ENDBRANCH  14  15
ENDBRANCH   7  13
TORSDOF 3
ENDMDL
MODEL 5
REMARK VINA RESULT:      -7.6      1.640      2.225
REMARK  Name = 
REMARK  6 active torsions:
REMARK  status: ('A' for Active; 'I' for Inactive)
REMARK    1  A    between atoms: C_1  and  C_2
REMARK    2  A    between atoms: C_7  and  C_8
REMARK    3  A    between atoms: C_9  and  C_10
REMARK    4  A    between atoms: C_10  and  C_12
REMARK    5  A    between atoms: C_13  and  C_14
REMARK    6  A    between atoms: C_17  and  C_18
REMARK                            x       y       z     vdW  Elec       q    Type
REMARK                         _______ _______ _______ _____ _____    ______ ____
ROOT
ATOM      1  C   UNL     1      -2.015  13.949  21.730  0.00  0.00    +0.000 C 
ATOM      2  C   UNL     1      -1.403  12.584  21.826  0.00  0.00    +0.000 A 
ATOM      3  C   UNL     1      -1.428  11.854  23.016  0.00  0.00    +0.000 A 
ATOM      4  C   UNL     1      -0.849  10.586  23.070  0.00  0.00    +0.000 A 
ATOM      5  C   UNL     1      -0.222  10.042  21.934  0.00  0.00    +0.000 A 
ATOM      6  C   UNL     1       0.409   8.787  21.956  0.00  0.00    +0.000 A 
ATOM      7  C   UNL     1       1.077   8.296  20.824  0.00  0.00    +0.000 A 
ATOM      8  C   UNL     1       1.052   9.127  19.700  0.00  0.00    +0.000 A 
ATOM      9 CL   UNL     1       1.892   8.798  18.231  0.00  0.00    +0.000 Cl
ATOM     10  N   UNL     1       0.416  10.318  19.631  0.00  0.00    +0.000 NA
ATOM     11  C   UNL     1      -0.193  10.771  20.732  0.00  0.00    +0.000 A 
ATOM     12  C   UNL     1      -0.796  12.019  20.695  0.00  0.00    +0.000 A 
ENDROOT
BRANCH   7  13
ATOM     13  C   UNL     1       1.781   7.009  20.971  0.00  0.00    +0.000 C 
ATOM     14  C   UNL     1       1.504   5.893  20.282  0.00  0.00    +0.000 C 
BRANCH  14  15
ATOM     15  C   UNL     1       2.227   4.630  20.570  0.00  0.00    +0.000 C 
ATOM     16  O   UNL     1       2.293   4.162  21.703  0.00  0.00    +0.000 OA
BRANCH  15  17
ATOM     17  C   UNL     1       2.868   4.039  19.408  0.00  0.00    +0.000 A 
ATOM     18  C   UNL     1       4.148   4.294  18.789  0.00  0.00    +0.000 A 
ATOM     19  C   UNL     1       5.212   5.273  19.138  0.00  0.00    +0.000 C 
ATOM     20  C   UNL     1       4.211   3.437  17.704  0.00  0.00    +0.000 A 
ATOM     21  O   UNL     1       3.086   2.695  17.604  0.00  0.00    +0.000 OA
ATOM     22  C   UNL     1       2.271   3.063  18.623  0.00  0.00    +0.000 A 
ATOM     23  C   UNL     1       0.970   2.358  18.694  0.00  0.00    +0.000 C 
ENDBRANCH  15  17
ENDBRANCH  14  15
ENDBRANCH   7  13
TORSDOF 3
ENDMDL
MODEL 6
REMARK VINA RESULT:      -7.6      4.238      8.498
REMARK  Name = 
REMARK  6 active torsions:
REMARK  status: ('A' for Active; 'I' for Inactive)
REMARK    1  A    between atoms: C_1  and  C_2
REMARK    2  A    between atoms: C_7  and  C_8
REMARK    3  A    between atoms: C_9  and  C_10
REMARK    4  A    between atoms: C_10  and  C_12
REMARK    5  A    between atoms: C_13  and  C_14
REMARK    6  A    between atoms: C_17  and  C_18
REMARK                            x       y       z     vdW  Elec       q    Type
REMARK                         _______ _______ _______ _____ _____    ______ ____
ROOT
ATOM      1  C   UNL     1       5.350   4.073  18.962  0.00  0.00    +0.000 C 
ATOM      2  C   UNL     1       4.499   5.259  18.624  0.00  0.00    +0.000 A 
ATOM      3  C   UNL     1       4.587   5.891  17.382  0.00  0.00    +0.000 A 
ATOM      4  C   UNL     1       3.779   6.994  17.101  0.00  0.00    +0.000 A 
ATOM      5  C   UNL     1       2.885   7.486  18.069  0.00  0.00    +0.000 A 
ATOM      6  C   UNL     1       2.084   8.617  17.842  0.00  0.00    +0.000 A 
ATOM      7  C   UNL     1       1.245   9.120  18.848  0.00  0.00    +0.000 A 
ATOM      8  C   UNL     1       1.259   8.415  20.055  0.00  0.00    +0.000 A 
ATOM      9 CL   UNL     1       0.404   8.899  21.472  0.00  0.00    +0.000 Cl
ATOM     10  N   UNL     1       1.983   7.297  20.291  0.00  0.00    +0.000 NA
ATOM     11  C   UNL     1       2.791   6.855  19.322  0.00  0.00    +0.000 A 
ATOM     12  C   UNL     1       3.586   5.746  19.570  0.00  0.00    +0.000 A 
ENDROOT
BRANCH   7  13
ATOM     13  C   UNL     1       0.508  10.360  18.544  0.00  0.00    +0.000 C 
ATOM     14  C   UNL     1      -0.827  10.482  18.526  0.00  0.00    +0.000 C 
BRANCH  14  15
ATOM     15  C   UNL     1      -1.462  11.762  18.127  0.00  0.00    +0.000 C 
ATOM     16  O   UNL     1      -0.828  12.812  18.068  0.00  0.00    +0.000 OA
BRANCH  15  17
ATOM     17  C   UNL     1      -2.886  11.656  17.861  0.00  0.00    +0.000 A 
ATOM     18  C   UNL     1      -4.038  11.999  18.664  0.00  0.00    +0.000 A 
ATOM     19  C   UNL     1      -4.123  12.551  20.044  0.00  0.00    +0.000 C 
ATOM     20  C   UNL     1      -5.138  11.665  17.895  0.00  0.00    +0.000 A 
ATOM     21  O   UNL     1      -4.761  11.145  16.706  0.00  0.00    +0.000 OA
ATOM     22  C   UNL     1      -3.405  11.129  16.688  0.00  0.00    +0.000 A 
ATOM     23  C   UNL     1      -2.783  10.588  15.456  0.00  0.00    +0.000 C 
ENDBRANCH  15  17
ENDBRANCH  14  15
ENDBRANCH   7  13
TORSDOF 3
ENDMDL
MODEL 7
REMARK VINA RESULT:      -7.6      4.295      8.449
REMARK  Name = 
REMARK  6 active torsions:
REMARK  status: ('A' for Active; 'I' for Inactive)
REMARK    1  A    between atoms: C_1  and  C_2
REMARK    2  A    between atoms: C_7  and  C_8
REMARK    3  A    between atoms: C_9  and  C_10
REMARK    4  A    between atoms: C_10  and  C_12
REMARK    5  A    between atoms: C_13  and  C_14
REMARK    6  A    between atoms: C_17  and  C_18
REMARK                            x       y       z     vdW  Elec       q    Type
REMARK                         _______ _______ _______ _____ _____    ______ ____
ROOT
ATOM      1  C   UNL     1       5.401   3.988  18.958  0.00  0.00    +0.000 C 
ATOM      2  C   UNL     1       4.567   5.189  18.628  0.00  0.00    +0.000 A 
ATOM      3  C   UNL     1       4.701   5.859  17.410  0.00  0.00    +0.000 A 
ATOM      4  C   UNL     1       3.908   6.974  17.136  0.00  0.00    +0.000 A 
ATOM      5  C   UNL     1       2.983   7.441  18.087  0.00  0.00    +0.000 A 
ATOM      6  C   UNL     1       2.195   8.583  17.868  0.00  0.00    +0.000 A 
ATOM      7  C   UNL     1       1.324   9.058  18.860  0.00  0.00    +0.000 A 
ATOM      8  C   UNL     1       1.293   8.316  20.044  0.00  0.00    +0.000 A 
ATOM      9 CL   UNL     1       0.391   8.760  21.445  0.00  0.00    +0.000 Cl
ATOM     10  N   UNL     1       2.003   7.188  20.269  0.00  0.00    +0.000 NA
ATOM     11  C   UNL     1       2.843   6.771  19.316  0.00  0.00    +0.000 A 
ATOM     12  C   UNL     1       3.624   5.651  19.557  0.00  0.00    +0.000 A 
ENDROOT
BRANCH   7  13
ATOM     13  C   UNL     1       0.603  10.311  18.569  0.00  0.00    +0.000 C 
ATOM     14  C   UNL     1      -0.728  10.468  18.621  0.00  0.00    +0.000 C 
BRANCH  14  15
ATOM     15  C   UNL     1      -1.351  11.756  18.230  0.00  0.00    +0.000 C 
ATOM     16  O   UNL     1      -0.718  12.808  18.217  0.00  0.00    +0.000 OA
BRANCH  15  17
ATOM     17  C   UNL     1      -2.765  11.655  17.911  0.00  0.00    +0.000 A 
ATOM     18  C   UNL     1      -3.447  11.209  16.717  0.00  0.00    +0.000 A 
ATOM     19  C   UNL     1      -2.904  10.734  15.416  0.00  0.00    +0.000 C 
ATOM     20  C   UNL     1      -4.796  11.346  16.989  0.00  0.00    +0.000 A 
ATOM     21  O   UNL     1      -4.994  11.841  18.231  0.00  0.00    +0.000 OA
ATOM     22  C   UNL     1      -3.772  12.037  18.784  0.00  0.00    +0.000 A 
ATOM     23  C   UNL     1      -3.768  12.582  20.163  0.00  0.00    +0.000 C 
ENDBRANCH  15  17
ENDBRANCH  14  15
ENDBRANCH   7  13
TORSDOF 3
ENDMDL
MODEL 8
REMARK VINA RESULT:      -7.4      1.259      1.860
REMARK  Name = 
REMARK  6 active torsions:
REMARK  status: ('A' for Active; 'I' for Inactive)
REMARK    1  A    between atoms: C_1  and  C_2
REMARK    2  A    between atoms: C_7  and  C_8
REMARK    3  A    between atoms: C_9  and  C_10
REMARK    4  A    between atoms: C_10  and  C_12
REMARK    5  A    between atoms: C_13  and  C_14
REMARK    6  A    between atoms: C_17  and  C_18
REMARK                            x       y       z     vdW  Elec       q    Type
REMARK                         _______ _______ _______ _____ _____    ______ ____
ROOT
ATOM      1  C   UNL     1      -1.031  12.652  22.657  0.00  0.00    +0.000 C 
ATOM      2  C   UNL     1      -0.519  11.297  22.272  0.00  0.00    +0.000 A 
ATOM      3  C   UNL     1      -0.603  10.210  23.144  0.00  0.00    +0.000 A 
ATOM      4  C   UNL     1      -0.116   8.962  22.753  0.00  0.00    +0.000 A 
ATOM      5  C   UNL     1       0.476   8.794  21.488  0.00  0.00    +0.000 A 
ATOM      6  C   UNL     1       1.015   7.566  21.070  0.00  0.00    +0.000 A 
ATOM      7  C   UNL     1       1.653   7.444  19.826  0.00  0.00    +0.000 A 
ATOM      8  C   UNL     1       1.693   8.607  19.051  0.00  0.00    +0.000 A 
ATOM      9 CL   UNL     1       2.515   8.740  17.541  0.00  0.00    +0.000 Cl
ATOM     10  N   UNL     1       1.144   9.792  19.403  0.00  0.00    +0.000 NA
ATOM     11  C   UNL     1       0.564   9.884  20.604  0.00  0.00    +0.000 A 
ATOM     12  C   UNL     1       0.052  11.109  21.005  0.00  0.00    +0.000 A 
ENDROOT
BRANCH   7  13
ATOM     13  C   UNL     1       2.262   6.138  19.514  0.00  0.00    +0.000 C 
ATOM     14  C   UNL     1       2.958   5.384  20.376  0.00  0.00    +0.000 C 
BRANCH  14  15
ATOM     15  C   UNL     1       3.595   4.120  19.929  0.00  0.00    +0.000 C 
ATOM     16  O   UNL     1       3.606   3.114  20.631  0.00  0.00    +0.000 OA
BRANCH  15  17
ATOM     17  C   UNL     1       4.225   4.207  18.623  0.00  0.00    +0.000 A 
ATOM     18  C   UNL     1       3.785   3.771  17.317  0.00  0.00    +0.000 A 
ATOM     19  C   UNL     1       2.544   3.062  16.904  0.00  0.00    +0.000 C 
ATOM     20  C   UNL     1       4.808   4.109  16.450  0.00  0.00    +0.000 A 
ATOM     21  O   UNL     1       5.829   4.701  17.109  0.00  0.00    +0.000 OA
ATOM     22  C   UNL     1       5.485   4.752  18.419  0.00  0.00    +0.000 A 
ATOM     23  C   UNL     1       6.480   5.373  19.324  0.00  0.00    +0.000 C 
ENDBRANCH  15  17
ENDBRANCH  14  15
ENDBRANCH   7  13
TORSDOF 3
ENDMDL
MODEL 9
REMARK VINA RESULT:      -7.4      3.577      8.214
REMARK  Name = 
REMARK  6 active torsions:
REMARK  status: ('A' for Active; 'I' for Inactive)
REMARK    1  A    between atoms: C_1  and  C_2
REMARK    2  A    between atoms: C_7  and  C_8
REMARK    3  A    between atoms: C_9  and  C_10
REMARK    4  A    between atoms: C_10  and  C_12
REMARK    5  A    between atoms: C_13  and  C_14
REMARK    6  A    between atoms: C_17  and  C_18
REMARK                            x       y       z     vdW  Elec       q    Type
REMARK                         _______ _______ _______ _____ _____    ______ ____
ROOT
ATOM      1  C   UNL     1       6.308   3.593  15.140  0.00  0.00    +0.000 C 
ATOM      2  C   UNL     1       5.497   4.642  15.841  0.00  0.00    +0.000 A 
ATOM      3  C   UNL     1       5.510   5.974  15.425  0.00  0.00    +0.000 A 
ATOM      4  C   UNL     1       4.744   6.925  16.101  0.00  0.00    +0.000 A 
ATOM      5  C   UNL     1       3.967   6.552  17.213  0.00  0.00    +0.000 A 
ATOM      6  C   UNL     1       3.213   7.483  17.946  0.00  0.00    +0.000 A 
ATOM      7  C   UNL     1       2.496   7.091  19.086  0.00  0.00    +0.000 A 
ATOM      8  C   UNL     1       2.577   5.735  19.416  0.00  0.00    +0.000 A 
ATOM      9 CL   UNL     1       1.879   5.035  20.828  0.00  0.00    +0.000 Cl
ATOM     10  N   UNL     1       3.255   4.805  18.706  0.00  0.00    +0.000 NA
ATOM     11  C   UNL     1       3.949   5.211  17.638  0.00  0.00    +0.000 A 
ATOM     12  C   UNL     1       4.700   4.280  16.936  0.00  0.00    +0.000 A 
ENDROOT
BRANCH   7  13
ATOM     13  C   UNL     1       1.805   8.155  19.838  0.00  0.00    +0.000 C 
ATOM     14  C   UNL     1       1.182   9.208  19.290  0.00  0.00    +0.000 C 
BRANCH  14  15
ATOM     15  C   UNL     1       0.587  10.263  20.148  0.00  0.00    +0.000 C 
ATOM     16  O   UNL     1       0.499  10.137  21.366  0.00  0.00    +0.000 OA
BRANCH  15  17
ATOM     17  C   UNL     1       0.094  11.414  19.412  0.00  0.00    +0.000 A 
ATOM     18  C   UNL     1       0.568  12.777  19.338  0.00  0.00    +0.000 A 
ATOM     19  C   UNL     1       1.709  13.441  20.025  0.00  0.00    +0.000 C 
ATOM     20  C   UNL     1      -0.309  13.428  18.488  0.00  0.00    +0.000 A 
ATOM     21  O   UNL     1      -1.273  12.589  18.048  0.00  0.00    +0.000 OA
ATOM     22  C   UNL     1      -1.038  11.379  18.611  0.00  0.00    +0.000 A 
ATOM     23  C   UNL     1      -1.994  10.304  18.252  0.00  0.00    +0.000 C 
ENDBRANCH  15  17
ENDBRANCH  14  15
ENDBRANCH   7  13
TORSDOF 3
ENDMDL
