MODEL 1
REMARK VINA RESULT:      -8.1      0.000      0.000
REMARK  Name = 
REMARK  4 active torsions:
REMARK  status: ('A' for Active; 'I' for Inactive)
REMARK    1  A    between atoms: C_1  and  N_2
REMARK    2  A    between atoms: C_7  and  C_8
REMARK    3  A    between atoms: C_11  and  C_12
REMARK    4  A    between atoms: C_20  and  C_21
REMARK                            x       y       z     vdW  Elec       q    Type
REMARK                         _______ _______ _______ _____ _____    ______ ____
ROOT
ATOM      1  C   UNL     1       2.145   3.726  20.877  0.00  0.00    +0.000 C 
ATOM      2  N   UNL     1       2.341   2.865  19.730  0.00  0.00    +0.000 NA
ATOM      3  C   UNL     1       3.646   2.214  19.633  0.00  0.00    +0.000 C 
ATOM      4  C   UNL     1       3.381   1.338  18.407  0.00  0.00    +0.000 C 
ATOM      5  C   UNL     1       2.348   2.129  17.588  0.00  0.00    +0.000 C 
ATOM      6  C   UNL     1       2.114   3.424  18.394  0.00  0.00    +0.000 C 
ATOM      7  C   UNL     1       3.101   4.543  17.936  0.00  0.00    +0.000 C 
ATOM      8  C   UNL     1       4.592   4.120  18.149  0.00  0.00    +0.000 C 
ATOM      9  C   UNL     1       4.793   3.219  19.396  0.00  0.00    +0.000 C 
ENDROOT
BRANCH   8  10
ATOM     10  C   UNL     1       5.609   5.257  18.022  0.00  0.00    +0.000 A 
ATOM     11  C   UNL     1       6.702   5.369  18.898  0.00  0.00    +0.000 A 
ATOM     12  C   UNL     1       7.560   6.470  18.857  0.00  0.00    +0.000 A 
ATOM     13  C   UNL     1       7.354   7.465  17.912  0.00  0.00    +0.000 A 
ATOM     14 CL   UNL     1       8.390   8.838  17.884  0.00  0.00    +0.000 Cl
ATOM     15  C   UNL     1       6.304   7.360  17.003  0.00  0.00    +0.000 A 
ATOM     16  C   UNL     1       5.431   6.266  17.061  0.00  0.00    +0.000 A 
ENDBRANCH   8  10
BRANCH   7  17
ATOM     17  C   UNL     1       2.721   5.874  18.553  0.00  0.00    +0.000 A 
ATOM     18  N   UNL     1       2.780   6.151  19.836  0.00  0.00    +0.000 NA
ATOM     19  C   UNL     1       2.386   7.446  20.065  0.00  0.00    +0.000 A 
ATOM     20  C   UNL     1       1.969   8.160  18.961  0.00  0.00    +0.000 A 
ATOM     21  S   UNL     1       2.145   7.168  17.567  0.00  0.00    +0.000 S 
BRANCH  20  22
ATOM     22  C   UNL     1       1.461   9.534  18.906  0.00  0.00    +0.000 A 
ATOM     23  C   UNL     1       2.165  10.503  18.172  0.00  0.00    +0.000 A 
ATOM     24  C   UNL     1       1.757  11.839  18.165  0.00  0.00    +0.000 A 
ATOM     25  C   UNL     1       0.630  12.217  18.891  0.00  0.00    +0.000 A 
ATOM     26 BR   UNL     1       0.088  14.026  18.902  0.00  0.00    +0.000 Br
ATOM     27  C   UNL     1      -0.091  11.271  19.614  0.00  0.00    +0.000 A 
ATOM     28  C   UNL     1       0.324   9.935  19.623  0.00  0.00    +0.000 A 
ENDBRANCH  20  22
ENDBRANCH   7  17
TORSDOF 3
ENDMDL
MODEL 2
REMARK VINA RESULT:      -8.0      0.449      1.347
REMARK  Name = 
REMARK  4 active torsions:
REMARK  status: ('A' for Active; 'I' for Inactive)
REMARK    1  A    between atoms: C_1  and  N_2
REMARK    2  A    between atoms: C_7  and  C_8
REMARK    3  A    between atoms: C_11  and  C_12
REMARK    4  A    between atoms: C_20  and  C_21
REMARK                            x       y       z     vdW  Elec       q    Type
REMARK                         _______ _______ _______ _____ _____    ______ ____
ROOT
ATOM      1  C   UNL     1       2.173   3.483  20.983  0.00  0.00    +0.000 C 
ATOM      2  N   UNL     1       2.379   2.715  19.774  0.00  0.00    +0.000 NA
ATOM      3  C   UNL     1       3.711   2.138  19.600  0.00  0.00    +0.000 C 
ATOM      4  C   UNL     1       3.455   1.338  18.321  0.00  0.00    +0.000 C 
ATOM      5  C   UNL     1       2.363   2.132  17.585  0.00  0.00    +0.000 C 
ATOM      6  C   UNL     1       2.089   3.354  18.486  0.00  0.00    +0.000 C 
ATOM      7  C   UNL     1       3.008   4.550  18.085  0.00  0.00    +0.000 C 
ATOM      8  C   UNL     1       4.523   4.188  18.232  0.00  0.00    +0.000 C 
ATOM      9  C   UNL     1       4.801   3.213  19.407  0.00  0.00    +0.000 C 
ENDROOT
BRANCH   8  10
ATOM     10  C   UNL     1       5.480   5.380  18.163  0.00  0.00    +0.000 A 
ATOM     11  C   UNL     1       5.297   6.419  17.233  0.00  0.00    +0.000 A 
ATOM     12  C   UNL     1       6.235   7.443  17.090  0.00  0.00    +0.000 A 
ATOM     13  C   UNL     1       7.361   7.461  17.901  0.00  0.00    +0.000 A 
ATOM     14 CL   UNL     1       8.533   8.704  17.701  0.00  0.00    +0.000 Cl
ATOM     15  C   UNL     1       7.548   6.469  18.860  0.00  0.00    +0.000 A 
ATOM     16  C   UNL     1       6.617   5.429  18.986  0.00  0.00    +0.000 A 
ENDBRANCH   8  10
BRANCH   7  17
ATOM     17  C   UNL     1       2.581   5.814  18.804  0.00  0.00    +0.000 A 
ATOM     18  N   UNL     1       2.547   5.960  20.110  0.00  0.00    +0.000 NA
ATOM     19  C   UNL     1       2.135   7.227  20.439  0.00  0.00    +0.000 A 
ATOM     20  C   UNL     1       1.795   8.051  19.385  0.00  0.00    +0.000 A 
ATOM     21  S   UNL     1       2.074   7.203  17.915  0.00  0.00    +0.000 S 
BRANCH  20  22
ATOM     22  C   UNL     1       1.289   9.425  19.433  0.00  0.00    +0.000 A 
ATOM     23  C   UNL     1       0.387   9.796  20.444  0.00  0.00    +0.000 A 
ATOM     24  C   UNL     1      -0.180  11.073  20.471  0.00  0.00    +0.000 A 
ATOM     25  C   UNL     1       0.160  11.996  19.487  0.00  0.00    +0.000 A 
ATOM     26 BR   UNL     1      -0.621  13.716  19.508  0.00  0.00    +0.000 Br
ATOM     27  C   UNL     1       1.063  11.656  18.483  0.00  0.00    +0.000 A 
ATOM     28  C   UNL     1       1.624  10.375  18.456  0.00  0.00    +0.000 A 
ENDBRANCH  20  22
ENDBRANCH   7  17
TORSDOF 3
ENDMDL
MODEL 3
REMARK VINA RESULT:      -7.3      4.596      9.419
REMARK  Name = 
REMARK  4 active torsions:
REMARK  status: ('A' for Active; 'I' for Inactive)
REMARK    1  A    between atoms: C_1  and  N_2
REMARK    2  A    between atoms: C_7  and  C_8
REMARK    3  A    between atoms: C_11  and  C_12
REMARK    4  A    between atoms: C_20  and  C_21
REMARK                            x       y       z     vdW  Elec       q    Type
REMARK                         _______ _______ _______ _____ _____    ______ ____
ROOT
ATOM      1  C   UNL     1       2.614  13.170  21.176  0.00  0.00    +0.000 C 
ATOM      2  N   UNL     1       2.605  14.040  20.018  0.00  0.00    +0.000 NA
ATOM      3  C   UNL     1       1.547  15.047  19.982  0.00  0.00    +0.000 C 
ATOM      4  C   UNL     1       1.976  15.793  18.717  0.00  0.00    +0.000 C 
ATOM      5  C   UNL     1       2.673  14.723  17.860  0.00  0.00    +0.000 C 
ATOM      6  C   UNL     1       2.568  13.425  18.687  0.00  0.00    +0.000 C 
ATOM      7  C   UNL     1       1.266  12.644  18.322  0.00  0.00    +0.000 C 
ATOM      8  C   UNL     1      -0.016  13.493  18.613  0.00  0.00    +0.000 C 
ATOM      9  C   UNL     1       0.141  14.424  19.844  0.00  0.00    +0.000 C 
ENDROOT
BRANCH   8  10
ATOM     10  C   UNL     1      -1.329  12.706  18.582  0.00  0.00    +0.000 A 
ATOM     11  C   UNL     1      -1.688  11.915  17.477  0.00  0.00    +0.000 A 
ATOM     12  C   UNL     1      -2.937  11.296  17.398  0.00  0.00    +0.000 A 
ATOM     13  C   UNL     1      -3.838  11.433  18.444  0.00  0.00    +0.000 A 
ATOM     14 CL   UNL     1      -5.389  10.699  18.332  0.00  0.00    +0.000 Cl
ATOM     15  C   UNL     1      -3.494  12.176  19.571  0.00  0.00    +0.000 A 
ATOM     16  C   UNL     1      -2.249  12.816  19.637  0.00  0.00    +0.000 A 
ENDBRANCH   8  10
BRANCH   7  17
ATOM     17  C   UNL     1       1.277  11.266  18.954  0.00  0.00    +0.000 A 
ATOM     18  N   UNL     1       0.796  10.982  20.143  0.00  0.00    +0.000 NA
ATOM     19  C   UNL     1       0.943   9.643  20.411  0.00  0.00    +0.000 A 
ATOM     20  C   UNL     1       1.589   8.897  19.447  0.00  0.00    +0.000 A 
ATOM     21  S   UNL     1       1.968   9.923  18.120  0.00  0.00    +0.000 S 
BRANCH  20  22
ATOM     22  C   UNL     1       1.921   7.470  19.475  0.00  0.00    +0.000 A 
ATOM     23  C   UNL     1       2.435   6.856  18.320  0.00  0.00    +0.000 A 
ATOM     24  C   UNL     1       2.684   5.482  18.284  0.00  0.00    +0.000 A 
ATOM     25  C   UNL     1       2.428   4.707  19.412  0.00  0.00    +0.000 A 
ATOM     26 BR   UNL     1       2.743   2.846  19.361  0.00  0.00    +0.000 Br
ATOM     27  C   UNL     1       1.932   5.296  20.573  0.00  0.00    +0.000 A 
ATOM     28  C   UNL     1       1.678   6.672  20.603  0.00  0.00    +0.000 A 
ENDBRANCH  20  22
ENDBRANCH   7  17
TORSDOF 3
ENDMDL
MODEL 4
REMARK VINA RESULT:      -7.2      1.466      1.892
REMARK  Name = 
REMARK  4 active torsions:
REMARK  status: ('A' for Active; 'I' for Inactive)
REMARK    1  A    between atoms: C_1  and  N_2
REMARK    2  A    between atoms: C_7  and  C_8
REMARK    3  A    between atoms: C_11  and  C_12
REMARK    4  A    between atoms: C_20  and  C_21
REMARK                            x       y       z     vdW  Elec       q    Type
REMARK                         _______ _______ _______ _____ _____    ______ ____
ROOT
ATOM      1  C   UNL     1       2.058   4.000  20.571  0.00  0.00    +0.000 C 
ATOM      2  N   UNL     1       2.398   3.022  19.559  0.00  0.00    +0.000 NA
ATOM      3  C   UNL     1       3.697   2.370  19.709  0.00  0.00    +0.000 C 
ATOM      4  C   UNL     1       3.590   1.366  18.559  0.00  0.00    +0.000 C 
ATOM      5  C   UNL     1       2.685   2.061  17.528  0.00  0.00    +0.000 C 
ATOM      6  C   UNL     1       2.357   3.433  18.152  0.00  0.00    +0.000 C 
ATOM      7  C   UNL     1       3.409   4.501  17.714  0.00  0.00    +0.000 C 
ATOM      8  C   UNL     1       4.853   4.110  18.171  0.00  0.00    +0.000 C 
ATOM      9  C   UNL     1       4.875   3.349  19.522  0.00  0.00    +0.000 C 
ENDROOT
BRANCH   8  10
ATOM     10  C   UNL     1       5.890   5.231  18.061  0.00  0.00    +0.000 A 
ATOM     11  C   UNL     1       6.786   5.510  19.107  0.00  0.00    +0.000 A 
ATOM     12  C   UNL     1       7.649   6.607  19.055  0.00  0.00    +0.000 A 
ATOM     13  C   UNL     1       7.650   7.427  17.935  0.00  0.00    +0.000 A 
ATOM     14 CL   UNL     1       8.687   8.798  17.885  0.00  0.00    +0.000 Cl
ATOM     15  C   UNL     1       6.802   7.150  16.865  0.00  0.00    +0.000 A 
ATOM     16  C   UNL     1       5.921   6.062  16.930  0.00  0.00    +0.000 A 
ENDBRANCH   8  10
BRANCH   7  17
ATOM     17  C   UNL     1       2.962   5.889  18.129  0.00  0.00    +0.000 A 
ATOM     18  N   UNL     1       3.287   7.000  17.505  0.00  0.00    +0.000 NA
ATOM     19  C   UNL     1       2.707   8.081  18.121  0.00  0.00    +0.000 A 
ATOM     20  C   UNL     1       1.973   7.814  19.258  0.00  0.00    +0.000 A 
ATOM     21  S   UNL     1       1.965   6.114  19.519  0.00  0.00    +0.000 S 
BRANCH  20  22
ATOM     22  C   UNL     1       1.281   8.761  20.137  0.00  0.00    +0.000 A 
ATOM     23  C   UNL     1       1.071   8.427  21.485  0.00  0.00    +0.000 A 
ATOM     24  C   UNL     1       0.343   9.268  22.331  0.00  0.00    +0.000 A 
ATOM     25  C   UNL     1      -0.176  10.460  21.833  0.00  0.00    +0.000 A 
ATOM     26 BR   UNL     1      -1.179  11.590  22.967  0.00  0.00    +0.000 Br
ATOM     27  C   UNL     1       0.032  10.819  20.504  0.00  0.00    +0.000 A 
ATOM     28  C   UNL     1       0.757   9.971  19.659  0.00  0.00    +0.000 A 
ENDBRANCH  20  22
ENDBRANCH   7  17
TORSDOF 3
ENDMDL
MODEL 5
REMARK VINA RESULT:      -7.1      4.646      9.457
REMARK  Name = 
REMARK  4 active torsions:
REMARK  status: ('A' for Active; 'I' for Inactive)
REMARK    1  A    between atoms: C_1  and  N_2
REMARK    2  A    between atoms: C_7  and  C_8
REMARK    3  A    between atoms: C_11  and  C_12
REMARK    4  A    between atoms: C_20  and  C_21
REMARK                            x       y       z     vdW  Elec       q    Type
REMARK                         _______ _______ _______ _____ _____    ______ ____
ROOT
ATOM      1  C   UNL     1      -1.506  11.421  23.271  0.00  0.00    +0.000 C 
ATOM      2  N   UNL     1      -1.509  12.815  22.882  0.00  0.00    +0.000 NA
ATOM      3  C   UNL     1      -2.796  13.358  22.453  0.00  0.00    +0.000 C 
ATOM      4  C   UNL     1      -2.385  14.821  22.273  0.00  0.00    +0.000 C 
ATOM      5  C   UNL     1      -0.899  14.755  21.886  0.00  0.00    +0.000 C 
ATOM      6  C   UNL     1      -0.567  13.250  21.845  0.00  0.00    +0.000 C 
ATOM      7  C   UNL     1      -0.803  12.674  20.413  0.00  0.00    +0.000 C 
ATOM      8  C   UNL     1      -2.292  12.840  19.962  0.00  0.00    +0.000 C 
ATOM      9  C   UNL     1      -3.297  12.725  21.137  0.00  0.00    +0.000 C 
ENDROOT
BRANCH   8  10
ATOM     10  C   UNL     1      -2.681  12.037  18.718  0.00  0.00    +0.000 A 
ATOM     11  C   UNL     1      -1.777  11.828  17.663  0.00  0.00    +0.000 A 
ATOM     12  C   UNL     1      -2.169  11.199  16.479  0.00  0.00    +0.000 A 
ATOM     13  C   UNL     1      -3.472  10.739  16.346  0.00  0.00    +0.000 A 
ATOM     14 CL   UNL     1      -3.966   9.996  14.876  0.00  0.00    +0.000 Cl
ATOM     15  C   UNL     1      -4.379  10.895  17.392  0.00  0.00    +0.000 A 
ATOM     16  C   UNL     1      -3.989  11.547  18.569  0.00  0.00    +0.000 A 
ENDBRANCH   8  10
BRANCH   7  17
ATOM     17  C   UNL     1      -0.258  11.263  20.310  0.00  0.00    +0.000 A 
ATOM     18  N   UNL     1      -0.712  10.232  20.988  0.00  0.00    +0.000 NA
ATOM     19  C   UNL     1      -0.018   9.096  20.652  0.00  0.00    +0.000 A 
ATOM     20  C   UNL     1       1.014   9.257  19.751  0.00  0.00    +0.000 A 
ATOM     21  S   UNL     1       1.063  10.904  19.260  0.00  0.00    +0.000 S 
BRANCH  20  22
ATOM     22  C   UNL     1       1.943   8.243  19.243  0.00  0.00    +0.000 A 
ATOM     23  C   UNL     1       2.586   8.449  18.011  0.00  0.00    +0.000 A 
ATOM     24  C   UNL     1       3.414   7.468  17.457  0.00  0.00    +0.000 A 
ATOM     25  C   UNL     1       3.611   6.271  18.139  0.00  0.00    +0.000 A 
ATOM     26 BR   UNL     1       4.711   4.934  17.383  0.00  0.00    +0.000 Br
ATOM     27  C   UNL     1       2.995   6.050  19.368  0.00  0.00    +0.000 A 
ATOM     28  C   UNL     1       2.163   7.032  19.917  0.00  0.00    +0.000 A 
ENDBRANCH  20  22
ENDBRANCH   7  17
TORSDOF 3
ENDMDL
MODEL 6
REMARK VINA RESULT:      -7.0      3.727      6.411
REMARK  Name = 
REMARK  4 active torsions:
REMARK  status: ('A' for Active; 'I' for Inactive)
REMARK    1  A    between atoms: C_1  and  N_2
REMARK    2  A    between atoms: C_7  and  C_8
REMARK    3  A    between atoms: C_11  and  C_12
REMARK    4  A    between atoms: C_20  and  C_21
REMARK                            x       y       z     vdW  Elec       q    Type
REMARK                         _______ _______ _______ _____ _____    ______ ____
ROOT
ATOM      1  C   UNL     1       2.777   1.996  18.330  0.00  0.00    +0.000 C 
ATOM      2  N   UNL     1       2.394   2.120  19.721  0.00  0.00    +0.000 NA
ATOM      3  C   UNL     1       1.074   2.695  19.973  0.00  0.00    +0.000 C 
ATOM      4  C   UNL     1       1.030   2.523  21.493  0.00  0.00    +0.000 C 
ATOM      5  C   UNL     1       2.502   2.607  21.930  0.00  0.00    +0.000 C 
ATOM      6  C   UNL     1       3.288   2.851  20.625  0.00  0.00    +0.000 C 
ATOM      7  C   UNL     1       3.444   4.381  20.355  0.00  0.00    +0.000 C 
ATOM      8  C   UNL     1       2.055   5.085  20.206  0.00  0.00    +0.000 C 
ATOM      9  C   UNL     1       0.983   4.177  19.550  0.00  0.00    +0.000 C 
ENDROOT
BRANCH   8  10
ATOM     10  C   UNL     1       2.111   6.506  19.638  0.00  0.00    +0.000 A 
ATOM     11  C   UNL     1       1.787   7.626  20.423  0.00  0.00    +0.000 A 
ATOM     12  C   UNL     1       1.722   8.908  19.872  0.00  0.00    +0.000 A 
ATOM     13  C   UNL     1       2.014   9.093  18.528  0.00  0.00    +0.000 A 
ATOM     14 CL   UNL     1       1.901  10.666  17.842  0.00  0.00    +0.000 Cl
ATOM     15  C   UNL     1       2.379   8.007  17.735  0.00  0.00    +0.000 A 
ATOM     16  C   UNL     1       2.421   6.719  18.285  0.00  0.00    +0.000 A 
ENDBRANCH   8  10
BRANCH   7  17
ATOM     17  C   UNL     1       4.409   4.624  19.212  0.00  0.00    +0.000 A 
ATOM     18  N   UNL     1       5.550   5.269  19.316  0.00  0.00    +0.000 NA
ATOM     19  C   UNL     1       6.195   5.299  18.105  0.00  0.00    +0.000 A 
ATOM     20  C   UNL     1       5.527   4.722  17.044  0.00  0.00    +0.000 A 
ATOM     21  S   UNL     1       4.050   4.057  17.622  0.00  0.00    +0.000 S 
BRANCH  20  22
ATOM     22  C   UNL     1       5.946   4.641  15.642  0.00  0.00    +0.000 A 
ATOM     23  C   UNL     1       5.169   3.908  14.729  0.00  0.00    +0.000 A 
ATOM     24  C   UNL     1       5.582   3.740  13.405  0.00  0.00    +0.000 A 
ATOM     25  C   UNL     1       6.777   4.314  12.979  0.00  0.00    +0.000 A 
ATOM     26 BR   UNL     1       7.348   4.071  11.195  0.00  0.00    +0.000 Br
ATOM     27  C   UNL     1       7.555   5.057  13.862  0.00  0.00    +0.000 A 
ATOM     28  C   UNL     1       7.142   5.218  15.190  0.00  0.00    +0.000 A 
ENDBRANCH  20  22
ENDBRANCH   7  17
TORSDOF 3
ENDMDL
MODEL 7
REMARK VINA RESULT:      -7.0      4.063      8.853
REMARK  Name = 
REMARK  4 active torsions:
REMARK  status: ('A' for Active; 'I' for Inactive)
REMARK    1  A    between atoms: C_1  and  N_2
REMARK    2  A    between atoms: C_7  and  C_8
REMARK    3  A    between atoms: C_11  and  C_12
REMARK    4  A    between atoms: C_20  and  C_21
REMARK                            x       y       z     vdW  Elec       q    Type
REMARK                         _______ _______ _______ _____ _____    ______ ____
ROOT
ATOM      1  C   UNL     1      -2.592  11.884  19.489  0.00  0.00    +0.000 C 
ATOM      2  N   UNL     1      -2.589  12.606  20.744  0.00  0.00    +0.000 NA
ATOM      3  C   UNL     1      -2.451  14.058  20.648  0.00  0.00    +0.000 C 
ATOM      4  C   UNL     1      -2.625  14.408  22.127  0.00  0.00    +0.000 C 
ATOM      5  C   UNL     1      -2.088  13.178  22.878  0.00  0.00    +0.000 C 
ATOM      6  C   UNL     1      -1.616  12.215  21.770  0.00  0.00    +0.000 C 
ATOM      7  C   UNL     1      -0.113  12.465  21.427  0.00  0.00    +0.000 C 
ATOM      8  C   UNL     1       0.127  13.924  20.916  0.00  0.00    +0.000 C 
ATOM      9  C   UNL     1      -1.070  14.486  20.105  0.00  0.00    +0.000 C 
ENDROOT
BRANCH   8  10
ATOM     10  C   UNL     1       1.494  14.164  20.269  0.00  0.00    +0.000 A 
ATOM     11  C   UNL     1       2.684  14.083  21.012  0.00  0.00    +0.000 A 
ATOM     12  C   UNL     1       3.918  14.418  20.451  0.00  0.00    +0.000 A 
ATOM     13  C   UNL     1       3.983  14.810  19.121  0.00  0.00    +0.000 A 
ATOM     14 CL   UNL     1       5.498  15.256  18.440  0.00  0.00    +0.000 Cl
ATOM     15  C   UNL     1       2.825  14.858  18.349  0.00  0.00    +0.000 A 
ATOM     16  C   UNL     1       1.585  14.544  18.921  0.00  0.00    +0.000 A 
ENDBRANCH   8  10
BRANCH   7  17
ATOM     17  C   UNL     1       0.414  11.374  20.516  0.00  0.00    +0.000 A 
ATOM     18  N   UNL     1       0.459  11.449  19.205  0.00  0.00    +0.000 NA
ATOM     19  C   UNL     1       1.008  10.305  18.680  0.00  0.00    +0.000 A 
ATOM     20  C   UNL     1       1.340   9.317  19.584  0.00  0.00    +0.000 A 
ATOM     21  S   UNL     1       1.003   9.890  21.170  0.00  0.00    +0.000 S 
BRANCH  20  22
ATOM     22  C   UNL     1       1.899   7.990  19.316  0.00  0.00    +0.000 A 
ATOM     23  C   UNL     1       1.798   6.985  20.293  0.00  0.00    +0.000 A 
ATOM     24  C   UNL     1       2.391   5.734  20.105  0.00  0.00    +0.000 A 
ATOM     25  C   UNL     1       3.088   5.474  18.928  0.00  0.00    +0.000 A 
ATOM     26 BR   UNL     1       3.910   3.792  18.680  0.00  0.00    +0.000 Br
ATOM     27  C   UNL     1       3.189   6.449  17.940  0.00  0.00    +0.000 A 
ATOM     28  C   UNL     1       2.598   7.703  18.134  0.00  0.00    +0.000 A 
ENDBRANCH  20  22
ENDBRANCH   7  17
TORSDOF 3
ENDMDL
MODEL 8
REMARK VINA RESULT:      -6.9      1.778      2.150
REMARK  Name = 
REMARK  4 active torsions:
REMARK  status: ('A' for Active; 'I' for Inactive)
REMARK    1  A    between atoms: C_1  and  N_2
REMARK    2  A    between atoms: C_7  and  C_8
REMARK    3  A    between atoms: C_11  and  C_12
REMARK    4  A    between atoms: C_20  and  C_21
REMARK                            x       y       z     vdW  Elec       q    Type
REMARK                         _______ _______ _______ _____ _____    ______ ____
ROOT
ATOM      1  C   UNL     1       2.558   4.948  20.890  0.00  0.00    +0.000 C 
ATOM      2  N   UNL     1       2.073   3.754  20.231  0.00  0.00    +0.000 NA
ATOM      3  C   UNL     1       3.048   2.682  20.047  0.00  0.00    +0.000 C 
ATOM      4  C   UNL     1       2.118   1.617  19.462  0.00  0.00    +0.000 C 
ATOM      5  C   UNL     1       1.033   2.419  18.726  0.00  0.00    +0.000 C 
ATOM      6  C   UNL     1       1.435   3.895  18.918  0.00  0.00    +0.000 C 
ATOM      7  C   UNL     1       2.356   4.371  17.750  0.00  0.00    +0.000 C 
ATOM      8  C   UNL     1       3.673   3.530  17.676  0.00  0.00    +0.000 C 
ATOM      9  C   UNL     1       4.178   3.071  19.069  0.00  0.00    +0.000 C 
ENDROOT
BRANCH   8  10
ATOM     10  C   UNL     1       4.762   4.117  16.773  0.00  0.00    +0.000 A 
ATOM     11  C   UNL     1       4.571   4.263  15.388  0.00  0.00    +0.000 A 
ATOM     12  C   UNL     1       5.604   4.686  14.550  0.00  0.00    +0.000 A 
ATOM     13  C   UNL     1       6.842   5.002  15.093  0.00  0.00    +0.000 A 
ATOM     14 CL   UNL     1       8.126   5.489  14.057  0.00  0.00    +0.000 Cl
ATOM     15  C   UNL     1       7.048   4.907  16.467  0.00  0.00    +0.000 A 
ATOM     16  C   UNL     1       6.016   4.461  17.303  0.00  0.00    +0.000 A 
ENDBRANCH   8  10
BRANCH   7  17
ATOM     17  C   UNL     1       2.558   5.872  17.808  0.00  0.00    +0.000 A 
ATOM     18  N   UNL     1       3.721   6.477  17.710  0.00  0.00    +0.000 NA
ATOM     19  C   UNL     1       3.559   7.838  17.782  0.00  0.00    +0.000 A 
ATOM     20  C   UNL     1       2.272   8.289  17.992  0.00  0.00    +0.000 A 
ATOM     21  S   UNL     1       1.216   6.932  18.034  0.00  0.00    +0.000 S 
BRANCH  20  22
ATOM     22  C   UNL     1       1.807   9.669  18.151  0.00  0.00    +0.000 A 
ATOM     23  C   UNL     1       2.678  10.731  17.850  0.00  0.00    +0.000 A 
ATOM     24  C   UNL     1       2.297  12.058  18.068  0.00  0.00    +0.000 A 
ATOM     25  C   UNL     1       1.034  12.335  18.584  0.00  0.00    +0.000 A 
ATOM     26 BR   UNL     1       0.524  14.126  18.900  0.00  0.00    +0.000 Br
ATOM     27  C   UNL     1       0.150  11.300  18.875  0.00  0.00    +0.000 A 
ATOM     28  C   UNL     1       0.536   9.972  18.661  0.00  0.00    +0.000 A 
ENDBRANCH  20  22
ENDBRANCH   7  17
TORSDOF 3
ENDMDL
MODEL 9
REMARK VINA RESULT:      -6.9      8.303     11.164
REMARK  Name = 
REMARK  4 active torsions:
REMARK  status: ('A' for Active; 'I' for Inactive)
REMARK    1  A    between atoms: C_1  and  N_2
REMARK    2  A    between atoms: C_7  and  C_8
REMARK    3  A    between atoms: C_11  and  C_12
REMARK    4  A    between atoms: C_20  and  C_21
REMARK                            x       y       z     vdW  Elec       q    Type
REMARK                         _______ _______ _______ _____ _____    ______ ____
ROOT
ATOM      1  C   UNL     1       8.400  17.583  19.304  0.00  0.00    +0.000 C 
ATOM      2  N   UNL     1       9.837  17.563  19.129  0.00  0.00    +0.000 NA
ATOM      3  C   UNL     1      10.318  17.137  17.817  0.00  0.00    +0.000 C 
ATOM      4  C   UNL     1      11.814  17.384  18.023  0.00  0.00    +0.000 C 
ATOM      5  C   UNL     1      12.032  17.172  19.530  0.00  0.00    +0.000 C 
ATOM      6  C   UNL     1      10.643  16.789  20.080  0.00  0.00    +0.000 C 
ATOM      7  C   UNL     1      10.448  15.241  20.051  0.00  0.00    +0.000 C 
ATOM      8  C   UNL     1      10.550  14.673  18.597  0.00  0.00    +0.000 C 
ATOM      9  C   UNL     1      10.005  15.653  17.525  0.00  0.00    +0.000 C 
ENDROOT
BRANCH   8  10
ATOM     10  C   UNL     1      10.069  13.229  18.433  0.00  0.00    +0.000 A 
ATOM     11  C   UNL     1       8.899  12.919  17.718  0.00  0.00    +0.000 A 
ATOM     12  C   UNL     1       8.397  11.617  17.671  0.00  0.00    +0.000 A 
ATOM     13  C   UNL     1       9.079  10.594  18.315  0.00  0.00    +0.000 A 
ATOM     14 CL   UNL     1       8.442   8.997  18.287  0.00  0.00    +0.000 Cl
ATOM     15  C   UNL     1      10.264  10.865  18.997  0.00  0.00    +0.000 A 
ATOM     16  C   UNL     1      10.753  12.176  19.062  0.00  0.00    +0.000 A 
ENDBRANCH   8  10
BRANCH   7  17
ATOM     17  C   UNL     1       9.191  14.848  20.803  0.00  0.00    +0.000 A 
ATOM     18  N   UNL     1       7.969  15.174  20.444  0.00  0.00    +0.000 NA
ATOM     19  C   UNL     1       7.056  14.649  21.325  0.00  0.00    +0.000 A 
ATOM     20  C   UNL     1       7.575  13.958  22.400  0.00  0.00    +0.000 A 
ATOM     21  S   UNL     1       9.288  13.918  22.253  0.00  0.00    +0.000 S 
BRANCH  20  22
ATOM     22  C   UNL     1       6.853  13.329  23.510  0.00  0.00    +0.000 A 
ATOM     23  C   UNL     1       6.244  14.137  24.485  0.00  0.00    +0.000 A 
ATOM     24  C   UNL     1       5.619  13.573  25.600  0.00  0.00    +0.000 A 
ATOM     25  C   UNL     1       5.591  12.188  25.745  0.00  0.00    +0.000 A 
ATOM     26 BR   UNL     1       4.766  11.422  27.262  0.00  0.00    +0.000 Br
ATOM     27  C   UNL     1       6.175  11.368  24.784  0.00  0.00    +0.000 A 
ATOM     28  C   UNL     1       6.805  11.937  23.672  0.00  0.00    +0.000 A 
ENDBRANCH  20  22
ENDBRANCH   7  17
TORSDOF 3
ENDMDL
