MODEL 1
REMARK VINA RESULT:      -7.9      0.000      0.000
REMARK  Name = 
REMARK  5 active torsions:
REMARK  status: ('A' for Active; 'I' for Inactive)
REMARK    1  A    between atoms: C_2  and  C_12
REMARK    2  A    between atoms: N_3  and  S_4
REMARK    3  A    between atoms: S_4  and  C_7
REMARK    4  A    between atoms: N_20  and  S_21
REMARK    5  A    between atoms: S_21  and  C_24
REMARK                            x       y       z     vdW  Elec       q    Type
REMARK                         _______ _______ _______ _____ _____    ______ ____
ROOT
ATOM      1  C   UNL     1      -1.686  12.662  20.622  0.00  0.00    +0.000 C 
ATOM      2  C   UNL     1      -3.100  12.669  19.973  0.00  0.00    +0.000 C 
ATOM      3  C   UNL     1      -2.961  11.712  18.832  0.00  0.00    +0.000 A 
ATOM      4  C   UNL     1      -3.964  11.315  17.956  0.00  0.00    +0.000 A 
ATOM      5  C   UNL     1      -3.656  10.360  16.986  0.00  0.00    +0.000 A 
ATOM      6  C   UNL     1      -2.371   9.808  16.921  0.00  0.00    +0.000 A 
ATOM      7  C   UNL     1      -1.374  10.220  17.810  0.00  0.00    +0.000 A 
ATOM      8  C   UNL     1      -1.668  11.206  18.738  0.00  0.00    +0.000 A 
ATOM      9  N   UNL     1      -0.856  11.714  19.798  0.00  0.00    +0.000 N 
ENDROOT
BRANCH   1  11
ATOM     10  O   UNL     1      -0.855  14.562  21.885  0.00  0.00    +0.000 OA
ATOM     11  C   UNL     1      -1.182  14.092  20.805  0.00  0.00    +0.000 C 
ATOM     12  N   UNL     1      -1.108  14.823  19.607  0.00  0.00    +0.000 N 
ATOM     13  H   UNL     1      -1.450  14.450  18.728  0.00  0.00    +0.000 HD
BRANCH  12  14
ATOM     14  S   UNL     1      -0.640  16.410  19.459  0.00  0.00    +0.000 S 
ATOM     15  O   UNL     1      -0.621  16.780  18.063  0.00  0.00    +0.000 OA
ATOM     16  O   UNL     1      -1.487  17.107  20.407  0.00  0.00    +0.000 OA
BRANCH  14  17
ATOM     17  C   UNL     1       1.034  16.581  20.042  0.00  0.00    +0.000 A 
ATOM     18  C   UNL     1       2.124  15.730  19.989  0.00  0.00    +0.000 A 
ATOM     19  C   UNL     1       3.273  16.266  20.642  0.00  0.00    +0.000 A 
ATOM     20  C   UNL     1       3.035  17.524  21.146  0.00  0.00    +0.000 A 
ATOM     21  S   UNL     1       1.438  18.046  20.835  0.00  0.00    +0.000 S 
ENDBRANCH  14  17
ENDBRANCH  12  14
ENDBRANCH   1  11
BRANCH   9  22
ATOM     22  S   UNL     1       0.820  11.886  19.639  0.00  0.00    +0.000 S 
ATOM     23  O   UNL     1       1.166  12.661  18.468  0.00  0.00    +0.000 OA
ATOM     24  O   UNL     1       1.373  12.215  20.930  0.00  0.00    +0.000 OA
BRANCH  22  25
ATOM     25  C   UNL     1       1.325  10.218  19.260  0.00  0.00    +0.000 A 
ATOM     26  C   UNL     1       1.927   9.979  18.025  0.00  0.00    +0.000 A 
ATOM     27  C   UNL     1       2.369   8.694  17.711  0.00  0.00    +0.000 A 
ATOM     28  C   UNL     1       2.214   7.638  18.622  0.00  0.00    +0.000 A 
ATOM     29  C   UNL     1       2.640   6.339  18.299  0.00  0.00    +0.000 A 
ATOM     30  C   UNL     1       2.498   5.295  19.212  0.00  0.00    +0.000 A 
ATOM     31  C   UNL     1       1.940   5.537  20.463  0.00  0.00    +0.000 A 
ATOM     32  C   UNL     1       1.511   6.824  20.800  0.00  0.00    +0.000 A 
ATOM     33  C   UNL     1       1.632   7.887  19.887  0.00  0.00    +0.000 A 
ATOM     34  C   UNL     1       1.199   9.190  20.202  0.00  0.00    +0.000 A 
ENDBRANCH  22  25
ENDBRANCH   9  22
TORSDOF 5
ENDMDL
MODEL 2
REMARK VINA RESULT:      -7.9      1.481      1.728
REMARK  Name = 
REMARK  5 active torsions:
REMARK  status: ('A' for Active; 'I' for Inactive)
REMARK    1  A    between atoms: C_2  and  C_12
REMARK    2  A    between atoms: N_3  and  S_4
REMARK    3  A    between atoms: S_4  and  C_7
REMARK    4  A    between atoms: N_20  and  S_21
REMARK    5  A    between atoms: S_21  and  C_24
REMARK                            x       y       z     vdW  Elec       q    Type
REMARK                         _______ _______ _______ _____ _____    ______ ____
ROOT
ATOM      1  C   UNL     1      -2.256  12.459  21.053  0.00  0.00    +0.000 C 
ATOM      2  C   UNL     1      -3.644  12.561  20.358  0.00  0.00    +0.000 C 
ATOM      3  C   UNL     1      -3.406  11.942  19.018  0.00  0.00    +0.000 A 
ATOM      4  C   UNL     1      -4.351  11.735  18.020  0.00  0.00    +0.000 A 
ATOM      5  C   UNL     1      -3.950  11.083  16.853  0.00  0.00    +0.000 A 
ATOM      6  C   UNL     1      -2.631  10.635  16.712  0.00  0.00    +0.000 A 
ATOM      7  C   UNL     1      -1.693  10.852  17.726  0.00  0.00    +0.000 A 
ATOM      8  C   UNL     1      -2.080  11.546  18.861  0.00  0.00    +0.000 A 
ATOM      9  N   UNL     1      -1.339  11.803  20.055  0.00  0.00    +0.000 N 
ENDROOT
BRANCH   1  11
ATOM     10  O   UNL     1      -1.953  14.113  22.804  0.00  0.00    +0.000 OA
ATOM     11  C   UNL     1      -1.849  13.816  21.623  0.00  0.00    +0.000 C 
ATOM     12  N   UNL     1      -1.324  14.699  20.663  0.00  0.00    +0.000 N 
ATOM     13  H   UNL     1      -1.311  14.471  19.675  0.00  0.00    +0.000 HD
BRANCH  12  14
ATOM     14  S   UNL     1      -0.826  16.258  20.940  0.00  0.00    +0.000 S 
ATOM     15  O   UNL     1      -1.942  17.045  21.410  0.00  0.00    +0.000 OA
ATOM     16  O   UNL     1       0.370  16.099  21.744  0.00  0.00    +0.000 OA
BRANCH  14  17
ATOM     17  C   UNL     1      -0.316  16.989  19.398  0.00  0.00    +0.000 A 
ATOM     18  C   UNL     1      -1.036  17.455  18.312  0.00  0.00    +0.000 A 
ATOM     19  C   UNL     1      -0.199  17.916  17.254  0.00  0.00    +0.000 A 
ATOM     20  C   UNL     1       1.136  17.818  17.576  0.00  0.00    +0.000 A 
ATOM     21  S   UNL     1       1.369  17.171  19.140  0.00  0.00    +0.000 S 
ENDBRANCH  14  17
ENDBRANCH  12  14
ENDBRANCH   1  11
BRANCH   9  22
ATOM     22  S   UNL     1       0.327  12.098  20.029  0.00  0.00    +0.000 S 
ATOM     23  O   UNL     1       0.689  13.005  18.963  0.00  0.00    +0.000 OA
ATOM     24  O   UNL     1       0.773  12.331  21.381  0.00  0.00    +0.000 OA
BRANCH  22  25
ATOM     25  C   UNL     1       0.971  10.511  19.529  0.00  0.00    +0.000 A 
ATOM     26  C   UNL     1       1.587  10.417  18.281  0.00  0.00    +0.000 A 
ATOM     27  C   UNL     1       2.136   9.201  17.874  0.00  0.00    +0.000 A 
ATOM     28  C   UNL     1       2.076   8.071  18.705  0.00  0.00    +0.000 A 
ATOM     29  C   UNL     1       2.611   6.841  18.287  0.00  0.00    +0.000 A 
ATOM     30  C   UNL     1       2.563   5.724  19.120  0.00  0.00    +0.000 A 
ATOM     31  C   UNL     1       1.991   5.825  20.385  0.00  0.00    +0.000 A 
ATOM     32  C   UNL     1       1.455   7.042  20.815  0.00  0.00    +0.000 A 
ATOM     33  C   UNL     1       1.481   8.175  19.984  0.00  0.00    +0.000 A 
ATOM     34  C   UNL     1       0.938   9.410  20.393  0.00  0.00    +0.000 A 
ENDBRANCH  22  25
ENDBRANCH   9  22
TORSDOF 5
ENDMDL
MODEL 3
REMARK VINA RESULT:      -7.7      2.181      2.860
REMARK  Name = 
REMARK  5 active torsions:
REMARK  status: ('A' for Active; 'I' for Inactive)
REMARK    1  A    between atoms: C_2  and  C_12
REMARK    2  A    between atoms: N_3  and  S_4
REMARK    3  A    between atoms: S_4  and  C_7
REMARK    4  A    between atoms: N_20  and  S_21
REMARK    5  A    between atoms: S_21  and  C_24
REMARK                            x       y       z     vdW  Elec       q    Type
REMARK                         _______ _______ _______ _____ _____    ______ ____
ROOT
ATOM      1  C   UNL     1      -2.105  12.353  20.651  0.00  0.00    +0.000 C 
ATOM      2  C   UNL     1      -3.446  12.414  19.866  0.00  0.00    +0.000 C 
ATOM      3  C   UNL     1      -3.158  11.627  18.627  0.00  0.00    +0.000 A 
ATOM      4  C   UNL     1      -4.052  11.330  17.606  0.00  0.00    +0.000 A 
ATOM      5  C   UNL     1      -3.613  10.527  16.553  0.00  0.00    +0.000 A 
ATOM      6  C   UNL     1      -2.307  10.022  16.547  0.00  0.00    +0.000 A 
ATOM      7  C   UNL     1      -1.420  10.331  17.583  0.00  0.00    +0.000 A 
ATOM      8  C   UNL     1      -1.842  11.172  18.600  0.00  0.00    +0.000 A 
ATOM      9  N   UNL     1      -1.160  11.549  19.797  0.00  0.00    +0.000 N 
ENDROOT
BRANCH   1  11
ATOM     10  O   UNL     1      -1.632  14.711  20.315  0.00  0.00    +0.000 OA
ATOM     11  C   UNL     1      -1.677  13.755  21.077  0.00  0.00    +0.000 C 
ATOM     12  N   UNL     1      -1.351  13.858  22.440  0.00  0.00    +0.000 N 
ATOM     13  H   UNL     1      -1.320  13.045  23.047  0.00  0.00    +0.000 HD
BRANCH  12  14
ATOM     14  S   UNL     1      -0.813  15.223  23.216  0.00  0.00    +0.000 S 
ATOM     15  O   UNL     1      -0.770  14.986  24.639  0.00  0.00    +0.000 OA
ATOM     16  O   UNL     1       0.383  15.586  22.481  0.00  0.00    +0.000 OA
BRANCH  14  17
ATOM     17  C   UNL     1      -1.989  16.538  22.966  0.00  0.00    +0.000 A 
ATOM     18  C   UNL     1      -1.848  17.825  22.478  0.00  0.00    +0.000 A 
ATOM     19  C   UNL     1      -3.070  18.560  22.506  0.00  0.00    +0.000 A 
ATOM     20  C   UNL     1      -4.114  17.802  22.984  0.00  0.00    +0.000 A 
ATOM     21  S   UNL     1      -3.618  16.220  23.397  0.00  0.00    +0.000 S 
ENDBRANCH  14  17
ENDBRANCH  12  14
ENDBRANCH   1  11
BRANCH   9  22
ATOM     22  S   UNL     1       0.515  11.783  19.837  0.00  0.00    +0.000 S 
ATOM     23  O   UNL     1       0.955  12.660  18.775  0.00  0.00    +0.000 OA
ATOM     24  O   UNL     1       0.913  12.022  21.203  0.00  0.00    +0.000 OA
BRANCH  22  25
ATOM     25  C   UNL     1       1.122  10.167  19.388  0.00  0.00    +0.000 A 
ATOM     26  C   UNL     1       1.731  10.018  18.141  0.00  0.00    +0.000 A 
ATOM     27  C   UNL     1       2.251   8.778  17.773  0.00  0.00    +0.000 A 
ATOM     28  C   UNL     1       2.168   7.677  18.640  0.00  0.00    +0.000 A 
ATOM     29  C   UNL     1       2.673   6.422  18.262  0.00  0.00    +0.000 A 
ATOM     30  C   UNL     1       2.602   5.334  19.130  0.00  0.00    +0.000 A 
ATOM     31  C   UNL     1       2.037   5.489  20.392  0.00  0.00    +0.000 A 
ATOM     32  C   UNL     1       1.529   6.731  20.784  0.00  0.00    +0.000 A 
ATOM     33  C   UNL     1       1.579   7.836  19.916  0.00  0.00    +0.000 A 
ATOM     34  C   UNL     1       1.066   9.095  20.287  0.00  0.00    +0.000 A 
ENDBRANCH  22  25
ENDBRANCH   9  22
TORSDOF 5
ENDMDL
MODEL 4
REMARK VINA RESULT:      -7.7      1.139      1.348
REMARK  Name = 
REMARK  5 active torsions:
REMARK  status: ('A' for Active; 'I' for Inactive)
REMARK    1  A    between atoms: C_2  and  C_12
REMARK    2  A    between atoms: N_3  and  S_4
REMARK    3  A    between atoms: S_4  and  C_7
REMARK    4  A    between atoms: N_20  and  S_21
REMARK    5  A    between atoms: S_21  and  C_24
REMARK                            x       y       z     vdW  Elec       q    Type
REMARK                         _______ _______ _______ _____ _____    ______ ____
ROOT
ATOM      1  C   UNL     1      -1.573  12.279  20.851  0.00  0.00    +0.000 C 
ATOM      2  C   UNL     1      -2.985  12.461  20.225  0.00  0.00    +0.000 C 
ATOM      3  C   UNL     1      -2.877  11.749  18.914  0.00  0.00    +0.000 A 
ATOM      4  C   UNL     1      -3.892  11.568  17.982  0.00  0.00    +0.000 A 
ATOM      5  C   UNL     1      -3.615  10.819  16.838  0.00  0.00    +0.000 A 
ATOM      6  C   UNL     1      -2.348  10.250  16.656  0.00  0.00    +0.000 A 
ATOM      7  C   UNL     1      -1.339  10.443  17.604  0.00  0.00    +0.000 A 
ATOM      8  C   UNL     1      -1.601  11.231  18.713  0.00  0.00    +0.000 A 
ATOM      9  N   UNL     1      -0.774  11.489  19.848  0.00  0.00    +0.000 N 
ENDROOT
BRANCH   1  11
ATOM     10  O   UNL     1      -1.104  14.031  22.465  0.00  0.00    +0.000 OA
ATOM     11  C   UNL     1      -1.022  13.625  21.315  0.00  0.00    +0.000 C 
ATOM     12  N   UNL     1      -0.390  14.359  20.295  0.00  0.00    +0.000 N 
ATOM     13  H   UNL     1      -0.393  14.049  19.330  0.00  0.00    +0.000 HD
BRANCH  12  14
ATOM     14  S   UNL     1       0.277  15.871  20.452  0.00  0.00    +0.000 S 
ATOM     15  O   UNL     1      -0.694  16.870  20.070  0.00  0.00    +0.000 OA
ATOM     16  O   UNL     1       0.852  15.857  21.782  0.00  0.00    +0.000 OA
BRANCH  14  17
ATOM     17  C   UNL     1       1.632  16.031  19.306  0.00  0.00    +0.000 A 
ATOM     18  C   UNL     1       1.760  16.727  18.117  0.00  0.00    +0.000 A 
ATOM     19  C   UNL     1       3.027  16.523  17.495  0.00  0.00    +0.000 A 
ATOM     20  C   UNL     1       3.840  15.703  18.244  0.00  0.00    +0.000 A 
ATOM     21  S   UNL     1       3.075  15.184  19.681  0.00  0.00    +0.000 S 
ENDBRANCH  14  17
ENDBRANCH  12  14
ENDBRANCH   1  11
BRANCH   9  22
ATOM     22  S   UNL     1       0.907  11.636  19.717  0.00  0.00    +0.000 S 
ATOM     23  O   UNL     1       1.283  12.437  18.573  0.00  0.00    +0.000 OA
ATOM     24  O   UNL     1       1.447  11.919  21.025  0.00  0.00    +0.000 OA
BRANCH  22  25
ATOM     25  C   UNL     1       1.389   9.971  19.298  0.00  0.00    +0.000 A 
ATOM     26  C   UNL     1       1.953   9.747  18.042  0.00  0.00    +0.000 A 
ATOM     27  C   UNL     1       2.375   8.464  17.695  0.00  0.00    +0.000 A 
ATOM     28  C   UNL     1       2.240   7.395  18.595  0.00  0.00    +0.000 A 
ATOM     29  C   UNL     1       2.646   6.099  18.239  0.00  0.00    +0.000 A 
ATOM     30  C   UNL     1       2.524   5.041  19.139  0.00  0.00    +0.000 A 
ATOM     31  C   UNL     1       2.005   5.268  20.410  0.00  0.00    +0.000 A 
ATOM     32  C   UNL     1       1.595   6.552  20.780  0.00  0.00    +0.000 A 
ATOM     33  C   UNL     1       1.698   7.628  19.880  0.00  0.00    +0.000 A 
ATOM     34  C   UNL     1       1.283   8.929  20.228  0.00  0.00    +0.000 A 
ENDBRANCH  22  25
ENDBRANCH   9  22
TORSDOF 5
ENDMDL
MODEL 5
REMARK VINA RESULT:      -7.7      1.215      1.860
REMARK  Name = 
REMARK  5 active torsions:
REMARK  status: ('A' for Active; 'I' for Inactive)
REMARK    1  A    between atoms: C_2  and  C_12
REMARK    2  A    between atoms: N_3  and  S_4
REMARK    3  A    between atoms: S_4  and  C_7
REMARK    4  A    between atoms: N_20  and  S_21
REMARK    5  A    between atoms: S_21  and  C_24
REMARK                            x       y       z     vdW  Elec       q    Type
REMARK                         _______ _______ _______ _____ _____    ______ ____
ROOT
ATOM      1  C   UNL     1      -1.879  12.328  20.753  0.00  0.00    +0.000 C 
ATOM      2  C   UNL     1      -3.204  12.482  19.952  0.00  0.00    +0.000 C 
ATOM      3  C   UNL     1      -2.970  11.648  18.733  0.00  0.00    +0.000 A 
ATOM      4  C   UNL     1      -3.877  11.403  17.709  0.00  0.00    +0.000 A 
ATOM      5  C   UNL     1      -3.495  10.544  16.678  0.00  0.00    +0.000 A 
ATOM      6  C   UNL     1      -2.235   9.933  16.697  0.00  0.00    +0.000 A 
ATOM      7  C   UNL     1      -1.335  10.191  17.736  0.00  0.00    +0.000 A 
ATOM      8  C   UNL     1      -1.696  11.086  18.730  0.00  0.00    +0.000 A 
ATOM      9  N   UNL     1      -0.997  11.431  19.927  0.00  0.00    +0.000 N 
ENDROOT
BRANCH   1  11
ATOM     10  O   UNL     1      -1.598  14.244  22.218  0.00  0.00    +0.000 OA
ATOM     11  C   UNL     1      -1.341  13.700  21.154  0.00  0.00    +0.000 C 
ATOM     12  N   UNL     1      -0.501  14.282  20.189  0.00  0.00    +0.000 N 
ATOM     13  H   UNL     1      -0.354  13.858  19.279  0.00  0.00    +0.000 HD
BRANCH  12  14
ATOM     14  S   UNL     1       0.214  15.777  20.291  0.00  0.00    +0.000 S 
ATOM     15  O   UNL     1      -0.679  16.778  19.756  0.00  0.00    +0.000 OA
ATOM     16  O   UNL     1       0.676  15.843  21.664  0.00  0.00    +0.000 OA
BRANCH  14  17
ATOM     17  C   UNL     1       1.665  15.801  19.258  0.00  0.00    +0.000 A 
ATOM     18  C   UNL     1       1.953  16.473  18.084  0.00  0.00    +0.000 A 
ATOM     19  C   UNL     1       3.240  16.146  17.565  0.00  0.00    +0.000 A 
ATOM     20  C   UNL     1       3.909  15.258  18.375  0.00  0.00    +0.000 A 
ATOM     21  S   UNL     1       2.986  14.823  19.746  0.00  0.00    +0.000 S 
ENDBRANCH  14  17
ENDBRANCH  12  14
ENDBRANCH   1  11
BRANCH   9  22
ATOM     22  S   UNL     1       0.692  11.528  19.980  0.00  0.00    +0.000 S 
ATOM     23  O   UNL     1       1.235  12.030  18.738  0.00  0.00    +0.000 OA
ATOM     24  O   UNL     1       1.079  12.109  21.243  0.00  0.00    +0.000 OA
BRANCH  22  25
ATOM     25  C   UNL     1       1.156   9.806  20.029  0.00  0.00    +0.000 A 
ATOM     26  C   UNL     1       0.794   9.060  21.152  0.00  0.00    +0.000 A 
ATOM     27  C   UNL     1       1.107   7.703  21.207  0.00  0.00    +0.000 A 
ATOM     28  C   UNL     1       1.782   7.077  20.147  0.00  0.00    +0.000 A 
ATOM     29  C   UNL     1       2.116   5.714  20.210  0.00  0.00    +0.000 A 
ATOM     30  C   UNL     1       2.774   5.092  19.150  0.00  0.00    +0.000 A 
ATOM     31  C   UNL     1       3.096   5.820  18.009  0.00  0.00    +0.000 A 
ATOM     32  C   UNL     1       2.771   7.177  17.930  0.00  0.00    +0.000 A 
ATOM     33  C   UNL     1       2.120   7.826  18.995  0.00  0.00    +0.000 A 
ATOM     34  C   UNL     1       1.791   9.195  18.942  0.00  0.00    +0.000 A 
ENDBRANCH  22  25
ENDBRANCH   9  22
TORSDOF 5
ENDMDL
MODEL 6
REMARK VINA RESULT:      -7.7      1.860      2.414
REMARK  Name = 
REMARK  5 active torsions:
REMARK  status: ('A' for Active; 'I' for Inactive)
REMARK    1  A    between atoms: C_2  and  C_12
REMARK    2  A    between atoms: N_3  and  S_4
REMARK    3  A    between atoms: S_4  and  C_7
REMARK    4  A    between atoms: N_20  and  S_21
REMARK    5  A    between atoms: S_21  and  C_24
REMARK                            x       y       z     vdW  Elec       q    Type
REMARK                         _______ _______ _______ _____ _____    ______ ____
ROOT
ATOM      1  C   UNL     1      -2.724  12.387  20.706  0.00  0.00    +0.000 C 
ATOM      2  C   UNL     1      -4.065  12.458  19.923  0.00  0.00    +0.000 C 
ATOM      3  C   UNL     1      -3.711  11.907  18.579  0.00  0.00    +0.000 A 
ATOM      4  C   UNL     1      -4.577  11.701  17.512  0.00  0.00    +0.000 A 
ATOM      5  C   UNL     1      -4.070  11.116  16.351  0.00  0.00    +0.000 A 
ATOM      6  C   UNL     1      -2.725  10.731  16.283  0.00  0.00    +0.000 A 
ATOM      7  C   UNL     1      -1.868  10.946  17.366  0.00  0.00    +0.000 A 
ATOM      8  C   UNL     1      -2.361  11.575  18.498  0.00  0.00    +0.000 A 
ATOM      9  N   UNL     1      -1.714  11.813  19.749  0.00  0.00    +0.000 N 
ENDROOT
BRANCH   1  11
ATOM     10  O   UNL     1      -2.462  13.933  22.561  0.00  0.00    +0.000 OA
ATOM     11  C   UNL     1      -2.418  13.736  21.355  0.00  0.00    +0.000 C 
ATOM     12  N   UNL     1      -2.061  14.738  20.436  0.00  0.00    +0.000 N 
ATOM     13  H   UNL     1      -2.100  14.585  19.434  0.00  0.00    +0.000 HD
BRANCH  12  14
ATOM     14  S   UNL     1      -1.708  16.318  20.803  0.00  0.00    +0.000 S 
ATOM     15  O   UNL     1      -2.908  16.992  21.242  0.00  0.00    +0.000 OA
ATOM     16  O   UNL     1      -0.547  16.219  21.665  0.00  0.00    +0.000 OA
BRANCH  14  17
ATOM     17  C   UNL     1      -1.181  17.156  19.322  0.00  0.00    +0.000 A 
ATOM     18  C   UNL     1      -1.798  18.107  18.528  0.00  0.00    +0.000 A 
ATOM     19  C   UNL     1      -1.016  18.463  17.390  0.00  0.00    +0.000 A 
ATOM     20  C   UNL     1       0.188  17.797  17.366  0.00  0.00    +0.000 A 
ATOM     21  S   UNL     1       0.366  16.750  18.705  0.00  0.00    +0.000 S 
ENDBRANCH  14  17
ENDBRANCH  12  14
ENDBRANCH   1  11
BRANCH   9  22
ATOM     22  S   UNL     1      -0.065  12.180  19.848  0.00  0.00    +0.000 S 
ATOM     23  O   UNL     1       0.417  12.794  18.631  0.00  0.00    +0.000 OA
ATOM     24  O   UNL     1       0.195  12.784  21.132  0.00  0.00    +0.000 OA
BRANCH  22  25
ATOM     25  C   UNL     1       0.671  10.555  19.873  0.00  0.00    +0.000 A 
ATOM     26  C   UNL     1       0.486   9.768  21.010  0.00  0.00    +0.000 A 
ATOM     27  C   UNL     1       1.015   8.478  21.048  0.00  0.00    +0.000 A 
ATOM     28  C   UNL     1       1.731   7.962  19.957  0.00  0.00    +0.000 A 
ATOM     29  C   UNL     1       2.282   6.671  20.003  0.00  0.00    +0.000 A 
ATOM     30  C   UNL     1       2.981   6.156  18.912  0.00  0.00    +0.000 A 
ATOM     31  C   UNL     1       3.129   6.919  17.758  0.00  0.00    +0.000 A 
ATOM     32  C   UNL     1       2.588   8.206  17.697  0.00  0.00    +0.000 A 
ATOM     33  C   UNL     1       1.891   8.748  18.792  0.00  0.00    +0.000 A 
ATOM     34  C   UNL     1       1.345  10.047  18.756  0.00  0.00    +0.000 A 
ENDBRANCH  22  25
ENDBRANCH   9  22
TORSDOF 5
ENDMDL
MODEL 7
REMARK VINA RESULT:      -7.6      1.560      2.317
REMARK  Name = 
REMARK  5 active torsions:
REMARK  status: ('A' for Active; 'I' for Inactive)
REMARK    1  A    between atoms: C_2  and  C_12
REMARK    2  A    between atoms: N_3  and  S_4
REMARK    3  A    between atoms: S_4  and  C_7
REMARK    4  A    between atoms: N_20  and  S_21
REMARK    5  A    between atoms: S_21  and  C_24
REMARK                            x       y       z     vdW  Elec       q    Type
REMARK                         _______ _______ _______ _____ _____    ______ ____
ROOT
ATOM      1  C   UNL     1      -1.545  12.162  21.028  0.00  0.00    +0.000 C 
ATOM      2  C   UNL     1      -2.897  12.464  20.321  0.00  0.00    +0.000 C 
ATOM      3  C   UNL     1      -2.775  11.740  19.019  0.00  0.00    +0.000 A 
ATOM      4  C   UNL     1      -3.746  11.644  18.029  0.00  0.00    +0.000 A 
ATOM      5  C   UNL     1      -3.469  10.869  16.902  0.00  0.00    +0.000 A 
ATOM      6  C   UNL     1      -2.249  10.191  16.794  0.00  0.00    +0.000 A 
ATOM      7  C   UNL     1      -1.283  10.298  17.800  0.00  0.00    +0.000 A 
ATOM      8  C   UNL     1      -1.539  11.111  18.892  0.00  0.00    +0.000 A 
ATOM      9  N   UNL     1      -0.761  11.301  20.074  0.00  0.00    +0.000 N 
ENDROOT
BRANCH   1  11
ATOM     10  O   UNL     1      -0.682  13.694  22.703  0.00  0.00    +0.000 OA
ATOM     11  C   UNL     1      -0.906  13.457  21.525  0.00  0.00    +0.000 C 
ATOM     12  N   UNL     1      -0.578  14.356  20.495  0.00  0.00    +0.000 N 
ATOM     13  H   UNL     1      -0.835  14.183  19.529  0.00  0.00    +0.000 HD
BRANCH  12  14
ATOM     14  S   UNL     1       0.089  15.864  20.692  0.00  0.00    +0.000 S 
ATOM     15  O   UNL     1      -0.511  16.512  21.834  0.00  0.00    +0.000 OA
ATOM     16  O   UNL     1       1.517  15.617  20.636  0.00  0.00    +0.000 OA
BRANCH  14  17
ATOM     17  C   UNL     1      -0.317  16.869  19.279  0.00  0.00    +0.000 A 
ATOM     18  C   UNL     1       0.362  17.126  18.101  0.00  0.00    +0.000 A 
ATOM     19  C   UNL     1      -0.325  18.052  17.261  0.00  0.00    +0.000 A 
ATOM     20  C   UNL     1      -1.523  18.450  17.809  0.00  0.00    +0.000 A 
ATOM     21  S   UNL     1      -1.808  17.714  19.325  0.00  0.00    +0.000 S 
ENDBRANCH  14  17
ENDBRANCH  12  14
ENDBRANCH   1  11
BRANCH   9  22
ATOM     22  S   UNL     1       0.931  11.300  20.041  0.00  0.00    +0.000 S 
ATOM     23  O   UNL     1       1.439  11.756  18.766  0.00  0.00    +0.000 OA
ATOM     24  O   UNL     1       1.415  11.870  21.275  0.00  0.00    +0.000 OA
BRANCH  22  25
ATOM     25  C   UNL     1       1.297   9.554  20.090  0.00  0.00    +0.000 A 
ATOM     26  C   UNL     1       0.883   8.827  21.206  0.00  0.00    +0.000 A 
ATOM     27  C   UNL     1       1.118   7.454  21.260  0.00  0.00    +0.000 A 
ATOM     28  C   UNL     1       1.767   6.794  20.205  0.00  0.00    +0.000 A 
ATOM     29  C   UNL     1       2.023   5.414  20.267  0.00  0.00    +0.000 A 
ATOM     30  C   UNL     1       2.655   4.759  19.212  0.00  0.00    +0.000 A 
ATOM     31  C   UNL     1       3.029   5.470  18.076  0.00  0.00    +0.000 A 
ATOM     32  C   UNL     1       2.782   6.844  17.999  0.00  0.00    +0.000 A 
ATOM     33  C   UNL     1       2.158   7.525  19.059  0.00  0.00    +0.000 A 
ATOM     34  C   UNL     1       1.907   8.911  19.007  0.00  0.00    +0.000 A 
ENDBRANCH  22  25
ENDBRANCH   9  22
TORSDOF 5
ENDMDL
MODEL 8
REMARK VINA RESULT:      -7.6      0.748      1.466
REMARK  Name = 
REMARK  5 active torsions:
REMARK  status: ('A' for Active; 'I' for Inactive)
REMARK    1  A    between atoms: C_2  and  C_12
REMARK    2  A    between atoms: N_3  and  S_4
REMARK    3  A    between atoms: S_4  and  C_7
REMARK    4  A    between atoms: N_20  and  S_21
REMARK    5  A    between atoms: S_21  and  C_24
REMARK                            x       y       z     vdW  Elec       q    Type
REMARK                         _______ _______ _______ _____ _____    ______ ____
ROOT
ATOM      1  C   UNL     1      -1.817  12.709  20.727  0.00  0.00    +0.000 C 
ATOM      2  C   UNL     1      -3.202  12.764  20.022  0.00  0.00    +0.000 C 
ATOM      3  C   UNL     1      -3.063  11.777  18.908  0.00  0.00    +0.000 A 
ATOM      4  C   UNL     1      -4.048  11.405  18.000  0.00  0.00    +0.000 A 
ATOM      5  C   UNL     1      -3.747  10.416  17.063  0.00  0.00    +0.000 A 
ATOM      6  C   UNL     1      -2.486   9.806  17.061  0.00  0.00    +0.000 A 
ATOM      7  C   UNL     1      -1.507  10.192  17.982  0.00  0.00    +0.000 A 
ATOM      8  C   UNL     1      -1.791  11.211  18.876  0.00  0.00    +0.000 A 
ATOM      9  N   UNL     1      -1.000  11.706  19.957  0.00  0.00    +0.000 N 
ENDROOT
BRANCH   1  11
ATOM     10  O   UNL     1      -0.885  14.572  21.973  0.00  0.00    +0.000 OA
ATOM     11  C   UNL     1      -1.255  14.118  20.901  0.00  0.00    +0.000 C 
ATOM     12  N   UNL     1      -1.184  14.850  19.703  0.00  0.00    +0.000 N 
ATOM     13  H   UNL     1      -1.563  14.493  18.832  0.00  0.00    +0.000 HD
BRANCH  12  14
ATOM     14  S   UNL     1      -0.662  16.418  19.547  0.00  0.00    +0.000 S 
ATOM     15  O   UNL     1      -0.717  16.810  18.158  0.00  0.00    +0.000 OA
ATOM     16  O   UNL     1      -1.418  17.134  20.556  0.00  0.00    +0.000 OA
BRANCH  14  17
ATOM     17  C   UNL     1       1.052  16.512  20.023  0.00  0.00    +0.000 A 
ATOM     18  C   UNL     1       1.685  17.142  21.080  0.00  0.00    +0.000 A 
ATOM     19  C   UNL     1       3.103  16.994  21.039  0.00  0.00    +0.000 A 
ATOM     20  C   UNL     1       3.507  16.230  19.968  0.00  0.00    +0.000 A 
ATOM     21  S   UNL     1       2.185  15.701  19.024  0.00  0.00    +0.000 S 
ENDBRANCH  14  17
ENDBRANCH  12  14
ENDBRANCH   1  11
BRANCH   9  22
ATOM     22  S   UNL     1       0.687  11.799  19.862  0.00  0.00    +0.000 S 
ATOM     23  O   UNL     1       1.122  12.249  18.558  0.00  0.00    +0.000 OA
ATOM     24  O   UNL     1       1.181  12.428  21.062  0.00  0.00    +0.000 OA
BRANCH  22  25
ATOM     25  C   UNL     1       1.154  10.079  19.940  0.00  0.00    +0.000 A 
ATOM     26  C   UNL     1       0.800   9.353  21.078  0.00  0.00    +0.000 A 
ATOM     27  C   UNL     1       1.115   7.997  21.156  0.00  0.00    +0.000 A 
ATOM     28  C   UNL     1       1.784   7.353  20.103  0.00  0.00    +0.000 A 
ATOM     29  C   UNL     1       2.120   5.992  20.189  0.00  0.00    +0.000 A 
ATOM     30  C   UNL     1       2.772   5.351  19.137  0.00  0.00    +0.000 A 
ATOM     31  C   UNL     1       3.086   6.059  17.981  0.00  0.00    +0.000 A 
ATOM     32  C   UNL     1       2.759   7.414  17.879  0.00  0.00    +0.000 A 
ATOM     33  C   UNL     1       2.114   8.081  18.936  0.00  0.00    +0.000 A 
ATOM     34  C   UNL     1       1.782   9.448  18.860  0.00  0.00    +0.000 A 
ENDBRANCH  22  25
ENDBRANCH   9  22
TORSDOF 5
ENDMDL
MODEL 9
REMARK VINA RESULT:      -7.6      0.910      1.504
REMARK  Name = 
REMARK  5 active torsions:
REMARK  status: ('A' for Active; 'I' for Inactive)
REMARK    1  A    between atoms: C_2  and  C_12
REMARK    2  A    between atoms: N_3  and  S_4
REMARK    3  A    between atoms: S_4  and  C_7
REMARK    4  A    between atoms: N_20  and  S_21
REMARK    5  A    between atoms: S_21  and  C_24
REMARK                            x       y       z     vdW  Elec       q    Type
REMARK                         _______ _______ _______ _____ _____    ______ ____
ROOT
ATOM      1  C   UNL     1      -2.338  12.429  20.448  0.00  0.00    +0.000 C 
ATOM      2  C   UNL     1      -3.655  12.425  19.621  0.00  0.00    +0.000 C 
ATOM      3  C   UNL     1      -3.322  11.566  18.444  0.00  0.00    +0.000 A 
ATOM      4  C   UNL     1      -4.182  11.195  17.417  0.00  0.00    +0.000 A 
ATOM      5  C   UNL     1      -3.703  10.333  16.430  0.00  0.00    +0.000 A 
ATOM      6  C   UNL     1      -2.393   9.844  16.495  0.00  0.00    +0.000 A 
ATOM      7  C   UNL     1      -1.540  10.228  17.535  0.00  0.00    +0.000 A 
ATOM      8  C   UNL     1      -2.002  11.125  18.484  0.00  0.00    +0.000 A 
ATOM      9  N   UNL     1      -1.360  11.584  19.675  0.00  0.00    +0.000 N 
ENDROOT
BRANCH   1  11
ATOM     10  O   UNL     1      -2.039  14.339  21.918  0.00  0.00    +0.000 OA
ATOM     11  C   UNL     1      -1.937  13.861  20.797  0.00  0.00    +0.000 C 
ATOM     12  N   UNL     1      -1.418  14.584  19.709  0.00  0.00    +0.000 N 
ATOM     13  H   UNL     1      -1.406  14.204  18.769  0.00  0.00    +0.000 HD
BRANCH  12  14
ATOM     14  S   UNL     1      -0.927  16.170  19.736  0.00  0.00    +0.000 S 
ATOM     15  O   UNL     1      -0.429  16.544  18.434  0.00  0.00    +0.000 OA
ATOM     16  O   UNL     1      -2.049  16.866  20.336  0.00  0.00    +0.000 OA
BRANCH  14  17
ATOM     17  C   UNL     1       0.444  16.337  20.861  0.00  0.00    +0.000 A 
ATOM     18  C   UNL     1       1.726  15.817  20.839  0.00  0.00    +0.000 A 
ATOM     19  C   UNL     1       2.484  16.175  21.994  0.00  0.00    +0.000 A 
ATOM     20  C   UNL     1       1.767  16.983  22.847  0.00  0.00    +0.000 A 
ATOM     21  S   UNL     1       0.195  17.301  22.257  0.00  0.00    +0.000 S 
ENDBRANCH  14  17
ENDBRANCH  12  14
ENDBRANCH   1  11
BRANCH   9  22
ATOM     22  S   UNL     1       0.311  11.841  19.750  0.00  0.00    +0.000 S 
ATOM     23  O   UNL     1       0.824  12.366  18.504  0.00  0.00    +0.000 OA
ATOM     24  O   UNL     1       0.622  12.481  21.004  0.00  0.00    +0.000 OA
BRANCH  22  25
ATOM     25  C   UNL     1       0.933  10.172  19.843  0.00  0.00    +0.000 A 
ATOM     26  C   UNL     1       0.642   9.425  20.985  0.00  0.00    +0.000 A 
ATOM     27  C   UNL     1       1.080   8.104  21.075  0.00  0.00    +0.000 A 
ATOM     28  C   UNL     1       1.811   7.517  20.031  0.00  0.00    +0.000 A 
ATOM     29  C   UNL     1       2.270   6.193  20.129  0.00  0.00    +0.000 A 
ATOM     30  C   UNL     1       2.984   5.607  19.085  0.00  0.00    +0.000 A 
ATOM     31  C   UNL     1       3.238   6.332  17.925  0.00  0.00    +0.000 A 
ATOM     32  C   UNL     1       2.788   7.651  17.811  0.00  0.00    +0.000 A 
ATOM     33  C   UNL     1       2.079   8.263  18.860  0.00  0.00    +0.000 A 
ATOM     34  C   UNL     1       1.623   9.594  18.771  0.00  0.00    +0.000 A 
ENDBRANCH  22  25
ENDBRANCH   9  22
TORSDOF 5
ENDMDL
