MODEL 1
REMARK VINA RESULT:      -7.2      0.000      0.000
REMARK  Name = 
REMARK  2 active torsions:
REMARK  status: ('A' for Active; 'I' for Inactive)
REMARK    1  A    between atoms: C_4  and  C_5
REMARK    2  A    between atoms: C_5  and  N_6
REMARK                            x       y       z     vdW  Elec       q    Type
REMARK                         _______ _______ _______ _____ _____    ______ ____
ROOT
ATOM      1  N   UNL     1       3.335   4.619  18.079  0.00  0.00    +0.000 NA
ATOM      2  C   UNL     1       2.994   3.567  17.114  0.00  0.00    +0.000 C 
ATOM      3  C   UNL     1       2.459   2.292  17.792  0.00  0.00    +0.000 C 
ATOM      4  C   UNL     1       3.547   1.516  18.544  0.00  0.00    +0.000 C 
ATOM      5  S   UNL     1       4.161   2.193  20.118  0.00  0.00    +0.000 S 
ATOM      6  C   UNL     1       2.732   3.156  20.724  0.00  0.00    +0.000 C 
ATOM      7  C   UNL     1       1.711   3.695  19.712  0.00  0.00    +0.000 C 
ATOM      8  C   UNL     1       1.287   2.626  18.708  0.00  0.00    +0.000 C 
ATOM      9  C   UNL     1       2.219   4.942  18.962  0.00  0.00    +0.000 C 
ENDROOT
BRANCH   1  10
ATOM     10  C   UNL     1       3.895   5.811  17.434  0.00  0.00    +0.000 C 
BRANCH  10  14
ATOM     11  C   UNL     1       7.979   6.558  18.612  0.00  0.00    +0.000 A 
ATOM     12  C   UNL     1       7.222   5.609  19.295  0.00  0.00    +0.000 A 
ATOM     13  C   UNL     1       5.908   5.348  18.912  0.00  0.00    +0.000 A 
ATOM     14  C   UNL     1       5.335   6.043  17.838  0.00  0.00    +0.000 A 
ATOM     15  C   UNL     1       6.108   6.995  17.154  0.00  0.00    +0.000 A 
ATOM     16  C   UNL     1       7.418   7.255  17.541  0.00  0.00    +0.000 A 
ENDBRANCH  10  14
ENDBRANCH   1  10
TORSDOF 2
ENDMDL
MODEL 2
REMARK VINA RESULT:      -7.2      0.230      1.228
REMARK  Name = 
REMARK  2 active torsions:
REMARK  status: ('A' for Active; 'I' for Inactive)
REMARK    1  A    between atoms: C_4  and  C_5
REMARK    2  A    between atoms: C_5  and  N_6
REMARK                            x       y       z     vdW  Elec       q    Type
REMARK                         _______ _______ _______ _____ _____    ______ ____
ROOT
ATOM      1  N   UNL     1       3.154   4.599  18.257  0.00  0.00    +0.000 NA
ATOM      2  C   UNL     1       2.866   3.588  17.232  0.00  0.00    +0.000 C 
ATOM      3  C   UNL     1       2.418   2.244  17.836  0.00  0.00    +0.000 C 
ATOM      4  C   UNL     1       3.561   1.492  18.529  0.00  0.00    +0.000 C 
ATOM      5  S   UNL     1       4.151   2.109  20.137  0.00  0.00    +0.000 S 
ATOM      6  C   UNL     1       2.674   2.944  20.812  0.00  0.00    +0.000 C 
ATOM      7  C   UNL     1       1.610   3.479  19.844  0.00  0.00    +0.000 C 
ATOM      8  C   UNL     1       1.240   2.448  18.780  0.00  0.00    +0.000 C 
ATOM      9  C   UNL     1       2.031   4.797  19.168  0.00  0.00    +0.000 C 
ENDROOT
BRANCH   1  10
ATOM     10  C   UNL     1       3.632   5.860  17.682  0.00  0.00    +0.000 C 
BRANCH  10  14
ATOM     11  C   UNL     1       7.827   6.437  18.510  0.00  0.00    +0.000 A 
ATOM     12  C   UNL     1       7.228   7.120  17.454  0.00  0.00    +0.000 A 
ATOM     13  C   UNL     1       5.870   6.953  17.189  0.00  0.00    +0.000 A 
ATOM     14  C   UNL     1       5.097   6.093  17.980  0.00  0.00    +0.000 A 
ATOM     15  C   UNL     1       5.710   5.413  19.045  0.00  0.00    +0.000 A 
ATOM     16  C   UNL     1       7.066   5.579  19.305  0.00  0.00    +0.000 A 
ENDBRANCH  10  14
ENDBRANCH   1  10
TORSDOF 2
ENDMDL
MODEL 3
REMARK VINA RESULT:      -7.0      1.763      5.481
REMARK  Name = 
REMARK  2 active torsions:
REMARK  status: ('A' for Active; 'I' for Inactive)
REMARK    1  A    between atoms: C_4  and  C_5
REMARK    2  A    between atoms: C_5  and  N_6
REMARK                            x       y       z     vdW  Elec       q    Type
REMARK                         _______ _______ _______ _____ _____    ______ ____
ROOT
ATOM      1  N   UNL     1       4.870   5.524  18.645  0.00  0.00    +0.000 NA
ATOM      2  C   UNL     1       6.244   5.549  19.163  0.00  0.00    +0.000 C 
ATOM      3  C   UNL     1       7.294   5.718  18.050  0.00  0.00    +0.000 C 
ATOM      4  C   UNL     1       7.443   4.467  17.176  0.00  0.00    +0.000 C 
ATOM      5  S   UNL     1       6.123   4.083  15.983  0.00  0.00    +0.000 S 
ATOM      6  C   UNL     1       5.421   5.729  15.620  0.00  0.00    +0.000 C 
ATOM      7  C   UNL     1       5.559   6.848  16.662  0.00  0.00    +0.000 C 
ATOM      8  C   UNL     1       6.983   6.947  17.204  0.00  0.00    +0.000 C 
ATOM      9  C   UNL     1       4.566   6.696  17.831  0.00  0.00    +0.000 C 
ENDROOT
BRANCH   1  10
ATOM     10  C   UNL     1       3.877   5.308  19.701  0.00  0.00    +0.000 C 
BRANCH  10  14
ATOM     11  C   UNL     1       1.046   2.226  18.650  0.00  0.00    +0.000 A 
ATOM     12  C   UNL     1       2.221   2.367  17.917  0.00  0.00    +0.000 A 
ATOM     13  C   UNL     1       3.150   3.348  18.259  0.00  0.00    +0.000 A 
ATOM     14  C   UNL     1       2.905   4.205  19.341  0.00  0.00    +0.000 A 
ATOM     15  C   UNL     1       1.719   4.052  20.076  0.00  0.00    +0.000 A 
ATOM     16  C   UNL     1       0.793   3.073  19.730  0.00  0.00    +0.000 A 
ENDBRANCH  10  14
ENDBRANCH   1  10
TORSDOF 2
ENDMDL
MODEL 4
REMARK VINA RESULT:      -7.0      1.771      5.428
REMARK  Name = 
REMARK  2 active torsions:
REMARK  status: ('A' for Active; 'I' for Inactive)
REMARK    1  A    between atoms: C_4  and  C_5
REMARK    2  A    between atoms: C_5  and  N_6
REMARK                            x       y       z     vdW  Elec       q    Type
REMARK                         _______ _______ _______ _____ _____    ______ ____
ROOT
ATOM      1  N   UNL     1       4.889   5.499  18.659  0.00  0.00    +0.000 NA
ATOM      2  C   UNL     1       6.270   5.536  19.156  0.00  0.00    +0.000 C 
ATOM      3  C   UNL     1       7.302   5.719  18.028  0.00  0.00    +0.000 C 
ATOM      4  C   UNL     1       7.450   4.471  17.149  0.00  0.00    +0.000 C 
ATOM      5  S   UNL     1       6.116   4.077  15.974  0.00  0.00    +0.000 S 
ATOM      6  C   UNL     1       5.393   5.717  15.626  0.00  0.00    +0.000 C 
ATOM      7  C   UNL     1       5.535   6.834  16.669  0.00  0.00    +0.000 C 
ATOM      8  C   UNL     1       6.966   6.947  17.190  0.00  0.00    +0.000 C 
ATOM      9  C   UNL     1       4.562   6.670  17.852  0.00  0.00    +0.000 C 
ENDROOT
BRANCH   1  10
ATOM     10  C   UNL     1       3.914   5.271  19.729  0.00  0.00    +0.000 C 
BRANCH  10  14
ATOM     11  C   UNL     1       1.045   2.235  18.645  0.00  0.00    +0.000 A 
ATOM     12  C   UNL     1       0.756   3.126  19.676  0.00  0.00    +0.000 A 
ATOM     13  C   UNL     1       1.669   4.121  20.022  0.00  0.00    +0.000 A 
ATOM     14  C   UNL     1       2.887   4.229  19.339  0.00  0.00    +0.000 A 
ATOM     15  C   UNL     1       3.167   3.328  18.299  0.00  0.00    +0.000 A 
ATOM     16  C   UNL     1       2.255   2.335  17.958  0.00  0.00    +0.000 A 
ENDBRANCH  10  14
ENDBRANCH   1  10
TORSDOF 2
ENDMDL
MODEL 5
REMARK VINA RESULT:      -6.8      2.468      3.901
REMARK  Name = 
REMARK  2 active torsions:
REMARK  status: ('A' for Active; 'I' for Inactive)
REMARK    1  A    between atoms: C_4  and  C_5
REMARK    2  A    between atoms: C_5  and  N_6
REMARK                            x       y       z     vdW  Elec       q    Type
REMARK                         _______ _______ _______ _____ _____    ______ ____
ROOT
ATOM      1  N   UNL     1       3.004   4.998  18.418  0.00  0.00    +0.000 NA
ATOM      2  C   UNL     1       4.095   4.026  18.267  0.00  0.00    +0.000 C 
ATOM      3  C   UNL     1       3.722   2.629  18.797  0.00  0.00    +0.000 C 
ATOM      4  C   UNL     1       3.632   2.578  20.327  0.00  0.00    +0.000 C 
ATOM      5  S   UNL     1       2.198   3.355  21.135  0.00  0.00    +0.000 S 
ATOM      6  C   UNL     1       0.907   3.249  19.848  0.00  0.00    +0.000 C 
ATOM      7  C   UNL     1       1.326   3.169  18.373  0.00  0.00    +0.000 C 
ATOM      8  C   UNL     1       2.431   2.140  18.151  0.00  0.00    +0.000 C 
ATOM      9  C   UNL     1       1.763   4.533  17.805  0.00  0.00    +0.000 C 
ENDROOT
BRANCH   1  10
ATOM     10  C   UNL     1       3.380   6.339  17.962  0.00  0.00    +0.000 C 
BRANCH  10  14
ATOM     11  C   UNL     1       0.948   9.410  19.773  0.00  0.00    +0.000 A 
ATOM     12  C   UNL     1       1.271   9.488  18.420  0.00  0.00    +0.000 A 
ATOM     13  C   UNL     1       2.042   8.493  17.822  0.00  0.00    +0.000 A 
ATOM     14  C   UNL     1       2.503   7.407  18.579  0.00  0.00    +0.000 A 
ATOM     15  C   UNL     1       2.168   7.336  19.941  0.00  0.00    +0.000 A 
ATOM     16  C   UNL     1       1.401   8.332  20.535  0.00  0.00    +0.000 A 
ENDBRANCH  10  14
ENDBRANCH   1  10
TORSDOF 2
ENDMDL
MODEL 6
REMARK VINA RESULT:      -6.8      2.459      3.709
REMARK  Name = 
REMARK  2 active torsions:
REMARK  status: ('A' for Active; 'I' for Inactive)
REMARK    1  A    between atoms: C_4  and  C_5
REMARK    2  A    between atoms: C_5  and  N_6
REMARK                            x       y       z     vdW  Elec       q    Type
REMARK                         _______ _______ _______ _____ _____    ______ ____
ROOT
ATOM      1  N   UNL     1       2.978   4.990  18.400  0.00  0.00    +0.000 NA
ATOM      2  C   UNL     1       4.060   4.009  18.248  0.00  0.00    +0.000 C 
ATOM      3  C   UNL     1       3.683   2.621  18.798  0.00  0.00    +0.000 C 
ATOM      4  C   UNL     1       3.609   2.587  20.329  0.00  0.00    +0.000 C 
ATOM      5  S   UNL     1       2.190   3.384  21.144  0.00  0.00    +0.000 S 
ATOM      6  C   UNL     1       0.884   3.274  19.873  0.00  0.00    +0.000 C 
ATOM      7  C   UNL     1       1.286   3.175  18.395  0.00  0.00    +0.000 C 
ATOM      8  C   UNL     1       2.381   2.135  18.172  0.00  0.00    +0.000 C 
ATOM      9  C   UNL     1       1.727   4.529  17.807  0.00  0.00    +0.000 C 
ENDROOT
BRANCH   1  10
ATOM     10  C   UNL     1       3.359   6.324  17.925  0.00  0.00    +0.000 C 
BRANCH  10  14
ATOM     11  C   UNL     1       0.938   9.398  19.746  0.00  0.00    +0.000 A 
ATOM     12  C   UNL     1       1.380   8.319  20.509  0.00  0.00    +0.000 A 
ATOM     13  C   UNL     1       2.177   7.330  19.934  0.00  0.00    +0.000 A 
ATOM     14  C   UNL     1       2.535   7.410  18.582  0.00  0.00    +0.000 A 
ATOM     15  C   UNL     1       2.088   8.503  17.823  0.00  0.00    +0.000 A 
ATOM     16  C   UNL     1       1.291   9.487  18.399  0.00  0.00    +0.000 A 
ENDBRANCH  10  14
ENDBRANCH   1  10
TORSDOF 2
ENDMDL
MODEL 7
REMARK VINA RESULT:      -6.6      0.779      1.453
REMARK  Name = 
REMARK  2 active torsions:
REMARK  status: ('A' for Active; 'I' for Inactive)
REMARK    1  A    between atoms: C_4  and  C_5
REMARK    2  A    between atoms: C_5  and  N_6
REMARK                            x       y       z     vdW  Elec       q    Type
REMARK                         _______ _______ _______ _____ _____    ______ ____
ROOT
ATOM      1  N   UNL     1       3.860   4.597  17.497  0.00  0.00    +0.000 NA
ATOM      2  C   UNL     1       3.163   3.492  16.828  0.00  0.00    +0.000 C 
ATOM      3  C   UNL     1       2.236   2.713  17.779  0.00  0.00    +0.000 C 
ATOM      4  C   UNL     1       3.005   1.864  18.798  0.00  0.00    +0.000 C 
ATOM      5  S   UNL     1       3.840   2.712  20.175  0.00  0.00    +0.000 S 
ATOM      6  C   UNL     1       2.837   4.224  20.381  0.00  0.00    +0.000 C 
ATOM      7  C   UNL     1       2.045   4.764  19.182  0.00  0.00    +0.000 C 
ATOM      8  C   UNL     1       1.264   3.661  18.472  0.00  0.00    +0.000 C 
ATOM      9  C   UNL     1       2.935   5.507  18.167  0.00  0.00    +0.000 C 
ENDROOT
BRANCH   1  10
ATOM     10  C   UNL     1       4.782   5.303  16.602  0.00  0.00    +0.000 C 
BRANCH  10  14
ATOM     11  C   UNL     1       8.190   6.896  18.717  0.00  0.00    +0.000 A 
ATOM     12  C   UNL     1       7.599   7.636  17.696  0.00  0.00    +0.000 A 
ATOM     13  C   UNL     1       6.487   7.138  17.019  0.00  0.00    +0.000 A 
ATOM     14  C   UNL     1       5.959   5.885  17.355  0.00  0.00    +0.000 A 
ATOM     15  C   UNL     1       6.559   5.148  18.389  0.00  0.00    +0.000 A 
ATOM     16  C   UNL     1       7.670   5.647  19.062  0.00  0.00    +0.000 A 
ENDBRANCH  10  14
ENDBRANCH   1  10
TORSDOF 2
ENDMDL
MODEL 8
REMARK VINA RESULT:      -6.6      1.385      1.908
REMARK  Name = 
REMARK  2 active torsions:
REMARK  status: ('A' for Active; 'I' for Inactive)
REMARK    1  A    between atoms: C_4  and  C_5
REMARK    2  A    between atoms: C_5  and  N_6
REMARK                            x       y       z     vdW  Elec       q    Type
REMARK                         _______ _______ _______ _____ _____    ______ ____
ROOT
ATOM      1  N   UNL     1       2.960   5.080  18.783  0.00  0.00    +0.000 NA
ATOM      2  C   UNL     1       2.231   4.226  17.837  0.00  0.00    +0.000 C 
ATOM      3  C   UNL     1       1.536   3.038  18.525  0.00  0.00    +0.000 C 
ATOM      4  C   UNL     1       2.524   1.974  19.020  0.00  0.00    +0.000 C 
ATOM      5  S   UNL     1       3.528   2.344  20.493  0.00  0.00    +0.000 S 
ATOM      6  C   UNL     1       2.479   3.531  21.403  0.00  0.00    +0.000 C 
ATOM      7  C   UNL     1       1.458   4.374  20.628  0.00  0.00    +0.000 C 
ATOM      8  C   UNL     1       0.640   3.526  19.657  0.00  0.00    +0.000 C 
ATOM      9  C   UNL     1       2.109   5.548  19.872  0.00  0.00    +0.000 C 
ENDROOT
BRANCH   1  10
ATOM     10  C   UNL     1       3.666   6.180  18.118  0.00  0.00    +0.000 C 
BRANCH  10  14
ATOM     11  C   UNL     1       7.275   4.745  16.237  0.00  0.00    +0.000 A 
ATOM     12  C   UNL     1       6.255   5.288  15.459  0.00  0.00    +0.000 A 
ATOM     13  C   UNL     1       5.093   5.769  16.058  0.00  0.00    +0.000 A 
ATOM     14  C   UNL     1       4.938   5.707  17.449  0.00  0.00    +0.000 A 
ATOM     15  C   UNL     1       5.974   5.162  18.226  0.00  0.00    +0.000 A 
ATOM     16  C   UNL     1       7.132   4.680  17.624  0.00  0.00    +0.000 A 
ENDBRANCH  10  14
ENDBRANCH   1  10
TORSDOF 2
ENDMDL
MODEL 9
REMARK VINA RESULT:      -6.6      1.437      1.650
REMARK  Name = 
REMARK  2 active torsions:
REMARK  status: ('A' for Active; 'I' for Inactive)
REMARK    1  A    between atoms: C_4  and  C_5
REMARK    2  A    between atoms: C_5  and  N_6
REMARK                            x       y       z     vdW  Elec       q    Type
REMARK                         _______ _______ _______ _____ _____    ______ ____
ROOT
ATOM      1  N   UNL     1       2.944   5.084  18.676  0.00  0.00    +0.000 NA
ATOM      2  C   UNL     1       2.106   4.241  17.813  0.00  0.00    +0.000 C 
ATOM      3  C   UNL     1       1.410   3.108  18.587  0.00  0.00    +0.000 C 
ATOM      4  C   UNL     1       2.381   2.011  19.039  0.00  0.00    +0.000 C 
ATOM      5  S   UNL     1       3.510   2.370  20.421  0.00  0.00    +0.000 S 
ATOM      6  C   UNL     1       2.591   3.630  21.371  0.00  0.00    +0.000 C 
ATOM      7  C   UNL     1       1.555   4.502  20.648  0.00  0.00    +0.000 C 
ATOM      8  C   UNL     1       0.626   3.670  19.767  0.00  0.00    +0.000 C 
ATOM      9  C   UNL     1       2.201   5.622  19.810  0.00  0.00    +0.000 C 
ENDROOT
BRANCH   1  10
ATOM     10  C   UNL     1       3.648   6.129  17.926  0.00  0.00    +0.000 C 
BRANCH  10  14
ATOM     11  C   UNL     1       7.319   4.733  16.137  0.00  0.00    +0.000 A 
ATOM     12  C   UNL     1       7.155   4.676  17.519  0.00  0.00    +0.000 A 
ATOM     13  C   UNL     1       5.967   5.109  18.105  0.00  0.00    +0.000 A 
ATOM     14  C   UNL     1       4.929   5.610  17.309  0.00  0.00    +0.000 A 
ATOM     15  C   UNL     1       5.102   5.659  15.916  0.00  0.00    +0.000 A 
ATOM     16  C   UNL     1       6.290   5.229  15.334  0.00  0.00    +0.000 A 
ENDBRANCH  10  14
ENDBRANCH   1  10
TORSDOF 2
ENDMDL
