MODEL 1
REMARK VINA RESULT:      -8.6      0.000      0.000
REMARK  Name = 
REMARK  8 active torsions:
REMARK  status: ('A' for Active; 'I' for Inactive)
REMARK    1  A    between atoms: C_1  and  C_2
REMARK    2  A    between atoms: C_2  and  C_3
REMARK    3  A    between atoms: C_3  and  C_4
REMARK    4  A    between atoms: C_3  and  N_16
REMARK    5  A    between atoms: C_4  and  N_5
REMARK    6  A    between atoms: N_19  and  C_20
REMARK    7  A    between atoms: C_24  and  C_25
REMARK    8  A    between atoms: C_26  and  C_27
REMARK                            x       y       z     vdW  Elec       q    Type
REMARK                         _______ _______ _______ _____ _____    ______ ____
ROOT
ATOM      1  C   UNL     1       2.522   3.108  20.643  0.00  0.00    +0.000 C 
ENDROOT
BRANCH   1   2
ATOM      2  N   UNL     1       2.733   4.545  20.875  0.00  0.00    +0.000 N 
ATOM      3  C   UNL     1       2.168   5.500  20.065  0.00  0.00    +0.000 C 
ATOM      4  O   UNL     1       1.434   5.222  19.123  0.00  0.00    +0.000 OA
ATOM      5  N   UNL     1       2.550   6.777  20.416  0.00  0.00    +0.000 N 
ATOM      6  H   UNL     1       3.187   4.842  21.726  0.00  0.00    +0.000 HD
ATOM      7  H   UNL     1       3.525   6.833  20.661  0.00  0.00    +0.000 HD
BRANCH   5   8
ATOM      8  C   UNL     1       2.004   7.880  19.711  0.00  0.00    +0.000 A 
ATOM      9  C   UNL     1       2.416   8.100  18.388  0.00  0.00    +0.000 A 
ATOM     10  C   UNL     1       1.931   9.187  17.669  0.00  0.00    +0.000 A 
ATOM     11  C   UNL     1       1.054  10.079  18.281  0.00  0.00    +0.000 A 
ATOM     12  C   UNL     1       0.639   9.887  19.610  0.00  0.00    +0.000 A 
ATOM     13  C   UNL     1      -0.230  10.941  20.237  0.00  0.00    +0.000 C 
ATOM     14  C   UNL     1       1.091   8.758  20.332  0.00  0.00    +0.000 A 
ATOM     15  C   UNL     1       0.653   8.509  21.753  0.00  0.00    +0.000 C 
ENDBRANCH   5   8
ENDBRANCH   1   2
BRANCH   1  17
ATOM     16  C   UNL     1       0.823   2.136  18.947  0.00  0.00    +0.000 C 
ATOM     17  C   UNL     1       1.042   2.836  20.277  0.00  0.00    +0.000 C 
ENDBRANCH   1  17
BRANCH   1  18
ATOM     18  C   UNL     1       3.525   2.543  19.609  0.00  0.00    +0.000 C 
BRANCH  18  19
ATOM     19  N   UNL     1       4.497   3.542  19.144  0.00  0.00    +0.000 N 
ATOM     20  N   UNL     1       5.471   3.891  20.041  0.00  0.00    +0.000 NA
ATOM     21  N   UNL     1       6.347   4.733  19.760  0.00  0.00    +0.000 NA
ATOM     22  C   UNL     1       6.319   5.389  18.525  0.00  0.00    +0.000 A 
ATOM     23  C   UNL     1       7.272   6.383  18.260  0.00  0.00    +0.000 A 
ATOM     24  C   UNL     1       7.279   7.063  17.039  0.00  0.00    +0.000 A 
ATOM     25  C   UNL     1       6.328   6.757  16.066  0.00  0.00    +0.000 A 
ATOM     26  C   UNL     1       5.375   5.770  16.316  0.00  0.00    +0.000 A 
ATOM     27  C   UNL     1       5.386   5.094  17.544  0.00  0.00    +0.000 A 
ATOM     28  C   UNL     1       4.413   4.055  17.866  0.00  0.00    +0.000 A 
ATOM     29  O   UNL     1       3.588   3.701  17.026  0.00  0.00    +0.000 OA
ENDBRANCH  18  19
ENDBRANCH   1  18
TORSDOF 5
ENDMDL
MODEL 2
REMARK VINA RESULT:      -8.6      1.120      1.917
REMARK  Name = 
REMARK  8 active torsions:
REMARK  status: ('A' for Active; 'I' for Inactive)
REMARK    1  A    between atoms: C_1  and  C_2
REMARK    2  A    between atoms: C_2  and  C_3
REMARK    3  A    between atoms: C_3  and  C_4
REMARK    4  A    between atoms: C_3  and  N_16
REMARK    5  A    between atoms: C_4  and  N_5
REMARK    6  A    between atoms: N_19  and  C_20
REMARK    7  A    between atoms: C_24  and  C_25
REMARK    8  A    between atoms: C_26  and  C_27
REMARK                            x       y       z     vdW  Elec       q    Type
REMARK                         _______ _______ _______ _____ _____    ______ ____
ROOT
ATOM      1  C   UNL     1       2.363   3.768  20.390  0.00  0.00    +0.000 C 
ENDROOT
BRANCH   1   2
ATOM      2  N   UNL     1       2.725   5.192  20.315  0.00  0.00    +0.000 N 
ATOM      3  C   UNL     1       1.797   6.185  20.515  0.00  0.00    +0.000 C 
ATOM      4  O   UNL     1       0.626   5.954  20.794  0.00  0.00    +0.000 OA
ATOM      5  N   UNL     1       2.330   7.444  20.330  0.00  0.00    +0.000 N 
ATOM      6  H   UNL     1       3.700   5.447  20.253  0.00  0.00    +0.000 HD
ATOM      7  H   UNL     1       2.956   7.484  19.541  0.00  0.00    +0.000 HD
BRANCH   5   8
ATOM      8  C   UNL     1       1.513   8.580  20.557  0.00  0.00    +0.000 A 
ATOM      9  C   UNL     1       1.131   8.879  21.873  0.00  0.00    +0.000 A 
ATOM     10  C   UNL     1       0.305   9.964  22.140  0.00  0.00    +0.000 A 
ATOM     11  C   UNL     1      -0.170  10.741  21.086  0.00  0.00    +0.000 A 
ATOM     12  C   UNL     1       0.187  10.451  19.757  0.00  0.00    +0.000 A 
ATOM     13  C   UNL     1      -0.441  11.269  18.663  0.00  0.00    +0.000 C 
ATOM     14  C   UNL     1       1.065   9.377  19.483  0.00  0.00    +0.000 A 
ATOM     15  C   UNL     1       1.484   9.048  18.073  0.00  0.00    +0.000 C 
ENDBRANCH   5   8
ENDBRANCH   1   2
BRANCH   1  17
ATOM     16  C   UNL     1       0.874   2.035  19.171  0.00  0.00    +0.000 C 
ATOM     17  C   UNL     1       1.098   3.490  19.543  0.00  0.00    +0.000 C 
ENDBRANCH   1  17
BRANCH   1  18
ATOM     18  C   UNL     1       3.559   2.855  20.026  0.00  0.00    +0.000 C 
BRANCH  18  19
ATOM     19  N   UNL     1       4.489   3.475  19.073  0.00  0.00    +0.000 N 
ATOM     20  N   UNL     1       5.539   4.163  19.623  0.00  0.00    +0.000 NA
ATOM     21  N   UNL     1       6.389   4.735  18.913  0.00  0.00    +0.000 NA
ATOM     22  C   UNL     1       6.255   4.735  17.521  0.00  0.00    +0.000 A 
ATOM     23  C   UNL     1       7.183   5.446  16.748  0.00  0.00    +0.000 A 
ATOM     24  C   UNL     1       7.085   5.472  15.353  0.00  0.00    +0.000 A 
ATOM     25  C   UNL     1       6.053   4.786  14.715  0.00  0.00    +0.000 A 
ATOM     26  C   UNL     1       5.124   4.073  15.472  0.00  0.00    +0.000 A 
ATOM     27  C   UNL     1       5.240   4.054  16.869  0.00  0.00    +0.000 A 
ATOM     28  C   UNL     1       4.295   3.331  17.715  0.00  0.00    +0.000 A 
ATOM     29  O   UNL     1       3.401   2.660  17.207  0.00  0.00    +0.000 OA
ENDBRANCH  18  19
ENDBRANCH   1  18
TORSDOF 5
ENDMDL
MODEL 3
REMARK VINA RESULT:      -8.1      1.014      1.315
REMARK  Name = 
REMARK  8 active torsions:
REMARK  status: ('A' for Active; 'I' for Inactive)
REMARK    1  A    between atoms: C_1  and  C_2
REMARK    2  A    between atoms: C_2  and  C_3
REMARK    3  A    between atoms: C_3  and  C_4
REMARK    4  A    between atoms: C_3  and  N_16
REMARK    5  A    between atoms: C_4  and  N_5
REMARK    6  A    between atoms: N_19  and  C_20
REMARK    7  A    between atoms: C_24  and  C_25
REMARK    8  A    between atoms: C_26  and  C_27
REMARK                            x       y       z     vdW  Elec       q    Type
REMARK                         _______ _______ _______ _____ _____    ______ ____
ROOT
ATOM      1  C   UNL     1       2.822   3.377  18.924  0.00  0.00    +0.000 C 
ENDROOT
BRANCH   1   2
ATOM      2  N   UNL     1       2.853   4.668  19.629  0.00  0.00    +0.000 N 
ATOM      3  C   UNL     1       2.320   5.807  19.077  0.00  0.00    +0.000 C 
ATOM      4  O   UNL     1       1.764   5.818  17.985  0.00  0.00    +0.000 OA
ATOM      5  N   UNL     1       2.517   6.916  19.872  0.00  0.00    +0.000 N 
ATOM      6  H   UNL     1       3.146   4.690  20.595  0.00  0.00    +0.000 HD
ATOM      7  H   UNL     1       3.436   6.934  20.286  0.00  0.00    +0.000 HD
BRANCH   5   8
ATOM      8  C   UNL     1       1.974   8.161  19.468  0.00  0.00    +0.000 A 
ATOM      9  C   UNL     1       2.400   8.717  18.253  0.00  0.00    +0.000 A 
ATOM     10  C   UNL     1       1.918   9.951  17.832  0.00  0.00    +0.000 A 
ATOM     11  C   UNL     1       1.028  10.652  18.641  0.00  0.00    +0.000 A 
ATOM     12  C   UNL     1       0.598  10.123  19.870  0.00  0.00    +0.000 A 
ATOM     13  C   UNL     1      -0.285  10.977  20.737  0.00  0.00    +0.000 C 
ATOM     14  C   UNL     1       1.048   8.847  20.282  0.00  0.00    +0.000 A 
ATOM     15  C   UNL     1       0.594   8.239  21.585  0.00  0.00    +0.000 C 
ENDBRANCH   5   8
ENDBRANCH   1   2
BRANCH   1  17
ATOM     16  C   UNL     1       0.580   2.085  19.015  0.00  0.00    +0.000 C 
ATOM     17  C   UNL     1       1.421   3.135  18.310  0.00  0.00    +0.000 C 
ENDBRANCH   1  17
BRANCH   1  18
ATOM     18  C   UNL     1       3.972   3.261  17.894  0.00  0.00    +0.000 C 
BRANCH  18  19
ATOM     19  N   UNL     1       5.069   4.205  18.148  0.00  0.00    +0.000 N 
ATOM     20  N   UNL     1       5.812   3.971  19.275  0.00  0.00    +0.000 NA
ATOM     21  N   UNL     1       6.765   4.708  19.596  0.00  0.00    +0.000 NA
ATOM     22  C   UNL     1       7.064   5.840  18.830  0.00  0.00    +0.000 A 
ATOM     23  C   UNL     1       8.094   6.693  19.250  0.00  0.00    +0.000 A 
ATOM     24  C   UNL     1       8.425   7.835  18.514  0.00  0.00    +0.000 A 
ATOM     25  C   UNL     1       7.725   8.137  17.347  0.00  0.00    +0.000 A 
ATOM     26  C   UNL     1       6.700   7.296  16.917  0.00  0.00    +0.000 A 
ATOM     27  C   UNL     1       6.385   6.154  17.664  0.00  0.00    +0.000 A 
ATOM     28  C   UNL     1       5.319   5.237  17.267  0.00  0.00    +0.000 A 
ATOM     29  O   UNL     1       4.708   5.420  16.217  0.00  0.00    +0.000 OA
ENDBRANCH  18  19
ENDBRANCH   1  18
TORSDOF 5
ENDMDL
MODEL 4
REMARK VINA RESULT:      -8.0      1.019      1.221
REMARK  Name = 
REMARK  8 active torsions:
REMARK  status: ('A' for Active; 'I' for Inactive)
REMARK    1  A    between atoms: C_1  and  C_2
REMARK    2  A    between atoms: C_2  and  C_3
REMARK    3  A    between atoms: C_3  and  C_4
REMARK    4  A    between atoms: C_3  and  N_16
REMARK    5  A    between atoms: C_4  and  N_5
REMARK    6  A    between atoms: N_19  and  C_20
REMARK    7  A    between atoms: C_24  and  C_25
REMARK    8  A    between atoms: C_26  and  C_27
REMARK                            x       y       z     vdW  Elec       q    Type
REMARK                         _______ _______ _______ _____ _____    ______ ____
ROOT
ATOM      1  C   UNL     1       2.575   3.193  20.755  0.00  0.00    +0.000 C 
ENDROOT
BRANCH   1   2
ATOM      2  N   UNL     1       2.873   4.631  20.838  0.00  0.00    +0.000 N 
ATOM      3  C   UNL     1       2.169   5.559  20.109  0.00  0.00    +0.000 C 
ATOM      4  O   UNL     1       1.237   5.256  19.372  0.00  0.00    +0.000 OA
ATOM      5  N   UNL     1       2.655   6.838  20.281  0.00  0.00    +0.000 N 
ATOM      6  H   UNL     1       3.513   4.958  21.546  0.00  0.00    +0.000 HD
ATOM      7  H   UNL     1       3.662   6.867  20.302  0.00  0.00    +0.000 HD
BRANCH   5   8
ATOM      8  C   UNL     1       1.998   7.918  19.641  0.00  0.00    +0.000 A 
ATOM      9  C   UNL     1       2.242   8.139  18.277  0.00  0.00    +0.000 A 
ATOM     10  C   UNL     1       1.644   9.205  17.616  0.00  0.00    +0.000 A 
ATOM     11  C   UNL     1       0.821  10.078  18.323  0.00  0.00    +0.000 A 
ATOM     12  C   UNL     1       0.573   9.885  19.694  0.00  0.00    +0.000 A 
ATOM     13  C   UNL     1      -0.244  10.920  20.415  0.00  0.00    +0.000 C 
ATOM     14  C   UNL     1       1.140   8.776  20.362  0.00  0.00    +0.000 A 
ATOM     15  C   UNL     1       0.882   8.527  21.826  0.00  0.00    +0.000 C 
ENDBRANCH   5   8
ENDBRANCH   1   2
BRANCH   1  17
ATOM     16  C   UNL     1       1.211   2.066  22.646  0.00  0.00    +0.000 C 
ATOM     17  C   UNL     1       1.188   2.896  21.374  0.00  0.00    +0.000 C 
ENDBRANCH   1  17
BRANCH   1  18
ATOM     18  C   UNL     1       2.731   2.660  19.310  0.00  0.00    +0.000 C 
BRANCH  18  19
ATOM     19  N   UNL     1       3.885   3.235  18.605  0.00  0.00    +0.000 N 
ATOM     20  N   UNL     1       5.004   3.449  19.366  0.00  0.00    +0.000 NA
ATOM     21  N   UNL     1       6.042   3.937  18.878  0.00  0.00    +0.000 NA
ATOM     22  C   UNL     1       6.068   4.334  17.537  0.00  0.00    +0.000 A 
ATOM     23  C   UNL     1       7.223   4.947  17.030  0.00  0.00    +0.000 A 
ATOM     24  C   UNL     1       7.290   5.359  15.696  0.00  0.00    +0.000 A 
ATOM     25  C   UNL     1       6.197   5.165  14.852  0.00  0.00    +0.000 A 
ATOM     26  C   UNL     1       5.043   4.555  15.343  0.00  0.00    +0.000 A 
ATOM     27  C   UNL     1       4.995   4.144  16.682  0.00  0.00    +0.000 A 
ATOM     28  C   UNL     1       3.814   3.505  17.255  0.00  0.00    +0.000 A 
ATOM     29  O   UNL     1       2.843   3.254  16.544  0.00  0.00    +0.000 OA
ENDBRANCH  18  19
ENDBRANCH   1  18
TORSDOF 5
ENDMDL
MODEL 5
REMARK VINA RESULT:      -7.9      1.749      4.716
REMARK  Name = 
REMARK  8 active torsions:
REMARK  status: ('A' for Active; 'I' for Inactive)
REMARK    1  A    between atoms: C_1  and  C_2
REMARK    2  A    between atoms: C_2  and  C_3
REMARK    3  A    between atoms: C_3  and  C_4
REMARK    4  A    between atoms: C_3  and  N_16
REMARK    5  A    between atoms: C_4  and  N_5
REMARK    6  A    between atoms: N_19  and  C_20
REMARK    7  A    between atoms: C_24  and  C_25
REMARK    8  A    between atoms: C_26  and  C_27
REMARK                            x       y       z     vdW  Elec       q    Type
REMARK                         _______ _______ _______ _____ _____    ______ ____
ROOT
ATOM      1  C   UNL     1       5.906   5.579  16.714  0.00  0.00    +0.000 C 
ENDROOT
BRANCH   1   2
ATOM      2  N   UNL     1       4.648   6.340  16.772  0.00  0.00    +0.000 N 
ATOM      3  C   UNL     1       4.067   6.685  17.969  0.00  0.00    +0.000 C 
ATOM      4  O   UNL     1       4.567   6.411  19.054  0.00  0.00    +0.000 OA
ATOM      5  N   UNL     1       2.861   7.332  17.797  0.00  0.00    +0.000 N 
ATOM      6  H   UNL     1       4.276   6.736  15.922  0.00  0.00    +0.000 HD
ATOM      7  H   UNL     1       2.306   6.922  17.063  0.00  0.00    +0.000 HD
BRANCH   5   8
ATOM      8  C   UNL     1       2.164   7.806  18.937  0.00  0.00    +0.000 A 
ATOM      9  C   UNL     1       1.975   6.934  20.019  0.00  0.00    +0.000 A 
ATOM     10  C   UNL     1       1.269   7.345  21.143  0.00  0.00    +0.000 A 
ATOM     11  C   UNL     1       0.721   8.624  21.180  0.00  0.00    +0.000 A 
ATOM     12  C   UNL     1       0.884   9.511  20.101  0.00  0.00    +0.000 A 
ATOM     13  C   UNL     1       0.182  10.839  20.167  0.00  0.00    +0.000 C 
ATOM     14  C   UNL     1       1.641   9.116  18.974  0.00  0.00    +0.000 A 
ATOM     15  C   UNL     1       1.853  10.046  17.806  0.00  0.00    +0.000 C 
ENDBRANCH   5   8
ENDBRANCH   1   2
BRANCH   1  17
ATOM     16  C   UNL     1       7.576   7.408  17.471  0.00  0.00    +0.000 C 
ATOM     17  C   UNL     1       6.893   6.090  17.792  0.00  0.00    +0.000 C 
ENDBRANCH   1  17
BRANCH   1  18
ATOM     18  C   UNL     1       5.655   4.053  16.784  0.00  0.00    +0.000 C 
BRANCH  18  19
ATOM     19  N   UNL     1       4.422   3.705  17.503  0.00  0.00    +0.000 N 
ATOM     20  N   UNL     1       3.276   3.686  16.752  0.00  0.00    +0.000 NA
ATOM     21  N   UNL     1       2.170   3.409  17.255  0.00  0.00    +0.000 NA
ATOM     22  C   UNL     1       2.065   3.164  18.628  0.00  0.00    +0.000 A 
ATOM     23  C   UNL     1       0.799   2.927  19.182  0.00  0.00    +0.000 A 
ATOM     24  C   UNL     1       0.650   2.678  20.550  0.00  0.00    +0.000 A 
ATOM     25  C   UNL     1       1.769   2.667  21.382  0.00  0.00    +0.000 A 
ATOM     26  C   UNL     1       3.034   2.901  20.843  0.00  0.00    +0.000 A 
ATOM     27  C   UNL     1       3.165   3.143  19.469  0.00  0.00    +0.000 A 
ATOM     28  C   UNL     1       4.462   3.399  18.848  0.00  0.00    +0.000 A 
ATOM     29  O   UNL     1       5.489   3.343  19.519  0.00  0.00    +0.000 OA
ENDBRANCH  18  19
ENDBRANCH   1  18
TORSDOF 5
ENDMDL
MODEL 6
REMARK VINA RESULT:      -7.9      4.223      6.953
REMARK  Name = 
REMARK  8 active torsions:
REMARK  status: ('A' for Active; 'I' for Inactive)
REMARK    1  A    between atoms: C_1  and  C_2
REMARK    2  A    between atoms: C_2  and  C_3
REMARK    3  A    between atoms: C_3  and  C_4
REMARK    4  A    between atoms: C_3  and  N_16
REMARK    5  A    between atoms: C_4  and  N_5
REMARK    6  A    between atoms: N_19  and  C_20
REMARK    7  A    between atoms: C_24  and  C_25
REMARK    8  A    between atoms: C_26  and  C_27
REMARK                            x       y       z     vdW  Elec       q    Type
REMARK                         _______ _______ _______ _____ _____    ______ ____
ROOT
ATOM      1  C   UNL     1       7.135   6.644  18.151  0.00  0.00    +0.000 C 
ENDROOT
BRANCH   1   2
ATOM      2  N   UNL     1       8.190   7.457  18.774  0.00  0.00    +0.000 N 
ATOM      3  C   UNL     1       8.330   8.796  18.497  0.00  0.00    +0.000 C 
ATOM      4  O   UNL     1       7.575   9.401  17.743  0.00  0.00    +0.000 OA
ATOM      5  N   UNL     1       9.421   9.351  19.131  0.00  0.00    +0.000 N 
ATOM      6  H   UNL     1       8.736   7.060  19.524  0.00  0.00    +0.000 HD
ATOM      7  H   UNL     1      10.225   8.743  19.116  0.00  0.00    +0.000 HD
BRANCH   5   8
ATOM      8  C   UNL     1       9.669  10.740  18.993  0.00  0.00    +0.000 A 
ATOM      9  C   UNL     1      10.127  11.220  17.757  0.00  0.00    +0.000 A 
ATOM     10  C   UNL     1      10.413  12.569  17.585  0.00  0.00    +0.000 A 
ATOM     11  C   UNL     1      10.271  13.443  18.659  0.00  0.00    +0.000 A 
ATOM     12  C   UNL     1       9.827  12.983  19.911  0.00  0.00    +0.000 A 
ATOM     13  C   UNL     1       9.792  13.962  21.051  0.00  0.00    +0.000 C 
ATOM     14  C   UNL     1       9.490  11.620  20.080  0.00  0.00    +0.000 A 
ATOM     15  C   UNL     1       8.993  11.094  21.403  0.00  0.00    +0.000 C 
ENDBRANCH   5   8
ENDBRANCH   1   2
BRANCH   1  17
ATOM     16  C   UNL     1       7.423   4.600  16.587  0.00  0.00    +0.000 C 
ATOM     17  C   UNL     1       7.617   6.093  16.786  0.00  0.00    +0.000 C 
ENDBRANCH   1  17
BRANCH   1  18
ATOM     18  C   UNL     1       6.620   5.545  19.111  0.00  0.00    +0.000 C 
BRANCH  18  19
ATOM     19  N   UNL     1       5.242   5.126  18.820  0.00  0.00    +0.000 N 
ATOM     20  N   UNL     1       4.476   6.027  18.128  0.00  0.00    +0.000 NA
ATOM     21  N   UNL     1       3.291   5.784  17.829  0.00  0.00    +0.000 NA
ATOM     22  C   UNL     1       2.691   4.592  18.249  0.00  0.00    +0.000 A 
ATOM     23  C   UNL     1       1.336   4.373  17.963  0.00  0.00    +0.000 A 
ATOM     24  C   UNL     1       0.699   3.196  18.366  0.00  0.00    +0.000 A 
ATOM     25  C   UNL     1       1.412   2.222  19.064  0.00  0.00    +0.000 A 
ATOM     26  C   UNL     1       2.761   2.426  19.354  0.00  0.00    +0.000 A 
ATOM     27  C   UNL     1       3.385   3.610  18.938  0.00  0.00    +0.000 A 
ATOM     28  C   UNL     1       4.792   3.883  19.216  0.00  0.00    +0.000 A 
ATOM     29  O   UNL     1       5.486   3.037  19.775  0.00  0.00    +0.000 OA
ENDBRANCH  18  19
ENDBRANCH   1  18
TORSDOF 5
ENDMDL
MODEL 7
REMARK VINA RESULT:      -7.9      3.164      7.745
REMARK  Name = 
REMARK  8 active torsions:
REMARK  status: ('A' for Active; 'I' for Inactive)
REMARK    1  A    between atoms: C_1  and  C_2
REMARK    2  A    between atoms: C_2  and  C_3
REMARK    3  A    between atoms: C_3  and  C_4
REMARK    4  A    between atoms: C_3  and  N_16
REMARK    5  A    between atoms: C_4  and  N_5
REMARK    6  A    between atoms: N_19  and  C_20
REMARK    7  A    between atoms: C_24  and  C_25
REMARK    8  A    between atoms: C_26  and  C_27
REMARK                            x       y       z     vdW  Elec       q    Type
REMARK                         _______ _______ _______ _____ _____    ______ ____
ROOT
ATOM      1  C   UNL     1       0.793   9.092  21.270  0.00  0.00    +0.000 C 
ENDROOT
BRANCH   1   2
ATOM      2  N   UNL     1       1.927   8.167  21.122  0.00  0.00    +0.000 N 
ATOM      3  C   UNL     1       2.032   7.317  20.047  0.00  0.00    +0.000 C 
ATOM      4  O   UNL     1       1.212   7.295  19.136  0.00  0.00    +0.000 OA
ATOM      5  N   UNL     1       3.130   6.489  20.140  0.00  0.00    +0.000 N 
ATOM      6  H   UNL     1       2.714   8.253  21.748  0.00  0.00    +0.000 HD
ATOM      7  H   UNL     1       3.273   6.144  21.076  0.00  0.00    +0.000 HD
BRANCH   5   8
ATOM      8  C   UNL     1       3.411   5.592  19.078  0.00  0.00    +0.000 A 
ATOM      9  C   UNL     1       4.238   6.029  18.033  0.00  0.00    +0.000 A 
ATOM     10  C   UNL     1       4.515   5.195  16.956  0.00  0.00    +0.000 A 
ATOM     11  C   UNL     1       3.940   3.928  16.902  0.00  0.00    +0.000 A 
ATOM     12  C   UNL     1       3.095   3.475  17.931  0.00  0.00    +0.000 A 
ATOM     13  C   UNL     1       2.431   2.137  17.760  0.00  0.00    +0.000 C 
ATOM     14  C   UNL     1       2.847   4.300  19.052  0.00  0.00    +0.000 A 
ATOM     15  C   UNL     1       1.962   3.840  20.183  0.00  0.00    +0.000 C 
ENDBRANCH   5   8
ENDBRANCH   1   2
BRANCH   1  17
ATOM     16  C   UNL     1      -0.800   9.985  23.107  0.00  0.00    +0.000 C 
ATOM     17  C   UNL     1       0.577   9.443  22.762  0.00  0.00    +0.000 C 
ENDBRANCH   1  17
BRANCH   1  18
ATOM     18  C   UNL     1       0.950  10.337  20.362  0.00  0.00    +0.000 C 
BRANCH  18  19
ATOM     19  N   UNL     1      -0.273  10.662  19.615  0.00  0.00    +0.000 N 
ATOM     20  N   UNL     1      -1.166  11.480  20.255  0.00  0.00    +0.000 NA
ATOM     21  N   UNL     1      -2.240  11.820  19.722  0.00  0.00    +0.000 NA
ATOM     22  C   UNL     1      -2.587  11.319  18.462  0.00  0.00    +0.000 A 
ATOM     23  C   UNL     1      -3.833  11.657  17.915  0.00  0.00    +0.000 A 
ATOM     24  C   UNL     1      -4.218  11.178  16.659  0.00  0.00    +0.000 A 
ATOM     25  C   UNL     1      -3.361  10.350  15.937  0.00  0.00    +0.000 A 
ATOM     26  C   UNL     1      -2.119  10.006  16.470  0.00  0.00    +0.000 A 
ATOM     27  C   UNL     1      -1.746  10.500  17.727  0.00  0.00    +0.000 A 
ATOM     28  C   UNL     1      -0.461  10.172  18.339  0.00  0.00    +0.000 A 
ATOM     29  O   UNL     1       0.360   9.496  17.724  0.00  0.00    +0.000 OA
ENDBRANCH  18  19
ENDBRANCH   1  18
TORSDOF 5
ENDMDL
MODEL 8
REMARK VINA RESULT:      -7.9      3.463      8.782
REMARK  Name = 
REMARK  8 active torsions:
REMARK  status: ('A' for Active; 'I' for Inactive)
REMARK    1  A    between atoms: C_1  and  C_2
REMARK    2  A    between atoms: C_2  and  C_3
REMARK    3  A    between atoms: C_3  and  C_4
REMARK    4  A    between atoms: C_3  and  N_16
REMARK    5  A    between atoms: C_4  and  N_5
REMARK    6  A    between atoms: N_19  and  C_20
REMARK    7  A    between atoms: C_24  and  C_25
REMARK    8  A    between atoms: C_26  and  C_27
REMARK                            x       y       z     vdW  Elec       q    Type
REMARK                         _______ _______ _______ _____ _____    ______ ____
ROOT
ATOM      1  C   UNL     1       0.863   9.925  19.514  0.00  0.00    +0.000 C 
ENDROOT
BRANCH   1   2
ATOM      2  N   UNL     1       1.402   8.754  20.224  0.00  0.00    +0.000 N 
ATOM      3  C   UNL     1       1.974   7.701  19.551  0.00  0.00    +0.000 C 
ATOM      4  O   UNL     1       2.097   7.680  18.331  0.00  0.00    +0.000 OA
ATOM      5  N   UNL     1       2.349   6.681  20.399  0.00  0.00    +0.000 N 
ATOM      6  H   UNL     1       1.481   8.785  21.229  0.00  0.00    +0.000 HD
ATOM      7  H   UNL     1       1.668   6.512  21.122  0.00  0.00    +0.000 HD
BRANCH   5   8
ATOM      8  C   UNL     1       3.008   5.545  19.864  0.00  0.00    +0.000 A 
ATOM      9  C   UNL     1       4.329   5.686  19.414  0.00  0.00    +0.000 A 
ATOM     10  C   UNL     1       5.004   4.608  18.853  0.00  0.00    +0.000 A 
ATOM     11  C   UNL     1       4.349   3.388  18.710  0.00  0.00    +0.000 A 
ATOM     12  C   UNL     1       3.020   3.227  19.139  0.00  0.00    +0.000 A 
ATOM     13  C   UNL     1       2.344   1.912  18.864  0.00  0.00    +0.000 C 
ATOM     14  C   UNL     1       2.344   4.306  19.753  0.00  0.00    +0.000 A 
ATOM     15  C   UNL     1       0.924   4.165  20.243  0.00  0.00    +0.000 C 
ENDBRANCH   5   8
ENDBRANCH   1   2
BRANCH   1  17
ATOM     16  C   UNL     1      -1.002  10.128  17.729  0.00  0.00    +0.000 C 
ATOM     17  C   UNL     1      -0.617   9.685  19.129  0.00  0.00    +0.000 C 
ENDBRANCH   1  17
BRANCH   1  18
ATOM     18  C   UNL     1       1.086  11.231  20.315  0.00  0.00    +0.000 C 
BRANCH  18  19
ATOM     19  N   UNL     1      -0.039  11.564  21.198  0.00  0.00    +0.000 N 
ATOM     20  N   UNL     1      -0.089  10.884  22.387  0.00  0.00    +0.000 NA
ATOM     21  N   UNL     1      -1.000  11.080  23.214  0.00  0.00    +0.000 NA
ATOM     22  C   UNL     1      -2.039  11.969  22.917  0.00  0.00    +0.000 A 
ATOM     23  C   UNL     1      -3.090  12.117  23.832  0.00  0.00    +0.000 A 
ATOM     24  C   UNL     1      -4.148  12.995  23.574  0.00  0.00    +0.000 A 
ATOM     25  C   UNL     1      -4.165  13.734  22.392  0.00  0.00    +0.000 A 
ATOM     26  C   UNL     1      -3.125  13.597  21.474  0.00  0.00    +0.000 A 
ATOM     27  C   UNL     1      -2.071  12.716  21.751  0.00  0.00    +0.000 A 
ATOM     28  C   UNL     1      -0.956  12.526  20.827  0.00  0.00    +0.000 A 
ATOM     29  O   UNL     1      -0.887  13.193  19.798  0.00  0.00    +0.000 OA
ENDBRANCH  18  19
ENDBRANCH   1  18
TORSDOF 5
ENDMDL
MODEL 9
REMARK VINA RESULT:      -7.8      3.326      5.825
REMARK  Name = 
REMARK  8 active torsions:
REMARK  status: ('A' for Active; 'I' for Inactive)
REMARK    1  A    between atoms: C_1  and  C_2
REMARK    2  A    between atoms: C_2  and  C_3
REMARK    3  A    between atoms: C_3  and  C_4
REMARK    4  A    between atoms: C_3  and  N_16
REMARK    5  A    between atoms: C_4  and  N_5
REMARK    6  A    between atoms: N_19  and  C_20
REMARK    7  A    between atoms: C_24  and  C_25
REMARK    8  A    between atoms: C_26  and  C_27
REMARK                            x       y       z     vdW  Elec       q    Type
REMARK                         _______ _______ _______ _____ _____    ______ ____
ROOT
ATOM      1  C   UNL     1       6.992   6.923  17.106  0.00  0.00    +0.000 C 
ENDROOT
BRANCH   1   2
ATOM      2  N   UNL     1       5.528   7.002  17.228  0.00  0.00    +0.000 N 
ATOM      3  C   UNL     1       4.824   6.153  18.047  0.00  0.00    +0.000 C 
ATOM      4  O   UNL     1       5.364   5.302  18.744  0.00  0.00    +0.000 OA
ATOM      5  N   UNL     1       3.462   6.352  17.959  0.00  0.00    +0.000 N 
ATOM      6  H   UNL     1       5.044   7.783  16.811  0.00  0.00    +0.000 HD
ATOM      7  H   UNL     1       3.157   6.513  17.013  0.00  0.00    +0.000 HD
BRANCH   5   8
ATOM      8  C   UNL     1       2.598   5.592  18.788  0.00  0.00    +0.000 A 
ATOM      9  C   UNL     1       2.306   6.073  20.073  0.00  0.00    +0.000 A 
ATOM     10  C   UNL     1       1.490   5.346  20.931  0.00  0.00    +0.000 A 
ATOM     11  C   UNL     1       0.985   4.115  20.520  0.00  0.00    +0.000 A 
ATOM     12  C   UNL     1       1.276   3.605  19.242  0.00  0.00    +0.000 A 
ATOM     13  C   UNL     1       0.779   2.228  18.902  0.00  0.00    +0.000 C 
ATOM     14  C   UNL     1       2.067   4.362  18.347  0.00  0.00    +0.000 A 
ATOM     15  C   UNL     1       2.385   3.856  16.963  0.00  0.00    +0.000 C 
ENDBRANCH   5   8
ENDBRANCH   1   2
BRANCH   1  17
ATOM     16  C   UNL     1       8.365   8.897  18.067  0.00  0.00    +0.000 C 
ATOM     17  C   UNL     1       7.669   7.574  18.337  0.00  0.00    +0.000 C 
ENDBRANCH   1  17
BRANCH   1  18
ATOM     18  C   UNL     1       7.465   5.473  16.839  0.00  0.00    +0.000 C 
BRANCH  18  19
ATOM     19  N   UNL     1       7.294   5.060  15.440  0.00  0.00    +0.000 N 
ATOM     20  N   UNL     1       8.171   5.609  14.542  0.00  0.00    +0.000 NA
ATOM     21  N   UNL     1       8.119   5.337  13.327  0.00  0.00    +0.000 NA
ATOM     22  C   UNL     1       7.113   4.496  12.839  0.00  0.00    +0.000 A 
ATOM     23  C   UNL     1       7.031   4.263  11.459  0.00  0.00    +0.000 A 
ATOM     24  C   UNL     1       6.040   3.430  10.930  0.00  0.00    +0.000 A 
ATOM     25  C   UNL     1       5.116   2.822  11.778  0.00  0.00    +0.000 A 
ATOM     26  C   UNL     1       5.187   3.045  13.153  0.00  0.00    +0.000 A 
ATOM     27  C   UNL     1       6.190   3.879  13.666  0.00  0.00    +0.000 A 
ATOM     28  C   UNL     1       6.312   4.154  15.095  0.00  0.00    +0.000 A 
ATOM     29  O   UNL     1       5.564   3.600  15.897  0.00  0.00    +0.000 OA
ENDBRANCH  18  19
ENDBRANCH   1  18
TORSDOF 5
ENDMDL
