MODEL 1
REMARK VINA RESULT:      -5.3      0.000      0.000
REMARK  Name = 
REMARK  15 active torsions:
REMARK  status: ('A' for Active; 'I' for Inactive)
REMARK    1  A    between atoms: C_1  and  O_2
REMARK    2  A    between atoms: O_2  and  C_3
REMARK    3  A    between atoms: C_3  and  C_5
REMARK    4  A    between atoms: C_8  and  O_9
REMARK    5  A    between atoms: O_9  and  C_10
REMARK    6  A    between atoms: C_10  and  C_11
REMARK    7  A    between atoms: C_11  and  O_12
REMARK    8  A    between atoms: C_11  and  C_13
REMARK    9  A    between atoms: C_13  and  N_14
REMARK   10  A    between atoms: N_14  and  C_15
REMARK   11  A    between atoms: N_14  and  C_18
REMARK   12  A    between atoms: C_15  and  C_16
REMARK   13  A    between atoms: C_16  and  O_17
REMARK   14  A    between atoms: C_18  and  C_19
REMARK   15  A    between atoms: C_19  and  O_20
REMARK                            x       y       z     vdW  Elec       q    Type
REMARK                         _______ _______ _______ _____ _____    ______ ____
ROOT
ATOM      1  C   UNL     1       4.803   4.167  18.622  0.00  0.00    +0.000 C 
ENDROOT
BRANCH   1   2
ATOM      2  O   UNL     1       6.237   4.093  18.623  0.00  0.00    +0.000 OA
ATOM      3  H   UNL     1       6.495   3.740  19.496  0.00  0.00    +0.000 HD
ENDBRANCH   1   2
BRANCH   1   4
ATOM      4  C   UNL     1       4.367   5.633  18.533  0.00  0.00    +0.000 C 
BRANCH   4   5
ATOM      5  O   UNL     1       3.183   5.855  19.317  0.00  0.00    +0.000 OA
BRANCH   5   9
ATOM      6  C   UNL     1       1.210   9.522  18.908  0.00  0.00    +0.000 A 
ATOM      7  C   UNL     1       1.879   8.984  17.804  0.00  0.00    +0.000 A 
ATOM      8  C   UNL     1       2.554   7.768  17.911  0.00  0.00    +0.000 A 
ATOM      9  C   UNL     1       2.569   7.067  19.118  0.00  0.00    +0.000 A 
ATOM     10  C   UNL     1       1.914   7.611  20.227  0.00  0.00    +0.000 A 
ATOM     11  C   UNL     1       1.236   8.836  20.127  0.00  0.00    +0.000 A 
BRANCH   6  12
ATOM     12  C   UNL     1       0.490  10.806  18.703  0.00  0.00    +0.000 C 
ATOM     13  O   UNL     1       1.061  11.885  18.635  0.00  0.00    +0.000 OA
BRANCH  12  15
ATOM     14  C   UNL     1      -1.620  11.693  19.103  0.00  0.00    +0.000 C 
ATOM     15  O   UNL     1      -0.842  10.606  18.591  0.00  0.00    +0.000 OA
ENDBRANCH  12  15
ENDBRANCH   6  12
ENDBRANCH   5   9
ENDBRANCH   4   5
ENDBRANCH   1   4
BRANCH   1  16
ATOM     16  C   UNL     1       4.277   3.447  19.881  0.00  0.00    +0.000 C 
BRANCH  16  17
ATOM     17  N   UNL     1       3.441   2.230  19.688  0.00  0.00    +0.000 NA
BRANCH  17  18
ATOM     18  C   UNL     1       2.297   2.250  20.647  0.00  0.00    +0.000 C 
BRANCH  18  19
ATOM     19  C   UNL     1       2.098   3.553  21.446  0.00  0.00    +0.000 C 
BRANCH  19  20
ATOM     20  O   UNL     1       1.119   4.384  20.834  0.00  0.00    +0.000 OA
ATOM     21  H   UNL     1       1.335   4.400  19.883  0.00  0.00    +0.000 HD
ENDBRANCH  19  20
ENDBRANCH  18  19
ENDBRANCH  17  18
BRANCH  17  22
ATOM     22  C   UNL     1       2.939   2.191  18.286  0.00  0.00    +0.000 C 
BRANCH  22  23
ATOM     23  C   UNL     1       1.444   2.526  18.118  0.00  0.00    +0.000 C 
BRANCH  23  24
ATOM     24  O   UNL     1       1.268   3.894  17.764  0.00  0.00    +0.000 OA
ATOM     25  H   UNL     1       1.949   4.391  18.256  0.00  0.00    +0.000 HD
ENDBRANCH  23  24
ENDBRANCH  22  23
ENDBRANCH  17  22
ENDBRANCH  16  17
ENDBRANCH   1  16
TORSDOF 14
ENDMDL
MODEL 2
REMARK VINA RESULT:      -5.2      1.338      1.570
REMARK  Name = 
REMARK  15 active torsions:
REMARK  status: ('A' for Active; 'I' for Inactive)
REMARK    1  A    between atoms: C_1  and  O_2
REMARK    2  A    between atoms: O_2  and  C_3
REMARK    3  A    between atoms: C_3  and  C_5
REMARK    4  A    between atoms: C_8  and  O_9
REMARK    5  A    between atoms: O_9  and  C_10
REMARK    6  A    between atoms: C_10  and  C_11
REMARK    7  A    between atoms: C_11  and  O_12
REMARK    8  A    between atoms: C_11  and  C_13
REMARK    9  A    between atoms: C_13  and  N_14
REMARK   10  A    between atoms: N_14  and  C_15
REMARK   11  A    between atoms: N_14  and  C_18
REMARK   12  A    between atoms: C_15  and  C_16
REMARK   13  A    between atoms: C_16  and  O_17
REMARK   14  A    between atoms: C_18  and  C_19
REMARK   15  A    between atoms: C_19  and  O_20
REMARK                            x       y       z     vdW  Elec       q    Type
REMARK                         _______ _______ _______ _____ _____    ______ ____
ROOT
ATOM      1  C   UNL     1       4.790   5.000  18.660  0.00  0.00    +0.000 C 
ENDROOT
BRANCH   1   2
ATOM      2  O   UNL     1       5.769   5.312  19.663  0.00  0.00    +0.000 OA
ATOM      3  H   UNL     1       6.597   4.872  19.389  0.00  0.00    +0.000 HD
ENDBRANCH   1   2
BRANCH   1   4
ATOM      4  C   UNL     1       4.311   6.293  17.993  0.00  0.00    +0.000 C 
BRANCH   4   5
ATOM      5  O   UNL     1       2.875   6.329  17.936  0.00  0.00    +0.000 OA
BRANCH   5   9
ATOM      6  C   UNL     1       1.074   9.680  19.678  0.00  0.00    +0.000 A 
ATOM      7  C   UNL     1       1.363   9.698  18.310  0.00  0.00    +0.000 A 
ATOM      8  C   UNL     1       1.972   8.601  17.701  0.00  0.00    +0.000 A 
ATOM      9  C   UNL     1       2.298   7.466  18.446  0.00  0.00    +0.000 A 
ATOM     10  C   UNL     1       2.026   7.451  19.817  0.00  0.00    +0.000 A 
ATOM     11  C   UNL     1       1.416   8.555  20.436  0.00  0.00    +0.000 A 
BRANCH   6  12
ATOM     12  C   UNL     1       0.398  10.876  20.243  0.00  0.00    +0.000 C 
ATOM     13  O   UNL     1      -0.488  10.804  21.083  0.00  0.00    +0.000 OA
BRANCH  12  15
ATOM     14  C   UNL     1       1.484  12.878  20.703  0.00  0.00    +0.000 C 
ATOM     15  O   UNL     1       0.903  12.016  19.721  0.00  0.00    +0.000 OA
ENDBRANCH  12  15
ENDBRANCH   6  12
ENDBRANCH   5   9
ENDBRANCH   4   5
ENDBRANCH   1   4
BRANCH   1  16
ATOM     16  C   UNL     1       3.652   4.195  19.324  0.00  0.00    +0.000 C 
BRANCH  16  17
ATOM     17  N   UNL     1       3.958   2.816  19.792  0.00  0.00    +0.000 NA
BRANCH  17  18
ATOM     18  C   UNL     1       3.231   2.546  21.068  0.00  0.00    +0.000 C 
BRANCH  18  19
ATOM     19  C   UNL     1       2.091   3.522  21.423  0.00  0.00    +0.000 C 
BRANCH  19  20
ATOM     20  O   UNL     1       0.822   2.961  21.114  0.00  0.00    +0.000 OA
ATOM     21  H   UNL     1       0.620   2.337  21.837  0.00  0.00    +0.000 HD
ENDBRANCH  19  20
ENDBRANCH  18  19
ENDBRANCH  17  18
BRANCH  17  22
ATOM     22  C   UNL     1       3.548   1.836  18.748  0.00  0.00    +0.000 C 
BRANCH  22  23
ATOM     23  C   UNL     1       2.321   2.247  17.911  0.00  0.00    +0.000 C 
BRANCH  23  24
ATOM     24  O   UNL     1       1.125   1.715  18.472  0.00  0.00    +0.000 OA
ATOM     25  H   UNL     1       1.329   1.516  19.406  0.00  0.00    +0.000 HD
ENDBRANCH  23  24
ENDBRANCH  22  23
ENDBRANCH  17  22
ENDBRANCH  16  17
ENDBRANCH   1  16
TORSDOF 14
ENDMDL
MODEL 3
REMARK VINA RESULT:      -5.2      1.198      2.185
REMARK  Name = 
REMARK  15 active torsions:
REMARK  status: ('A' for Active; 'I' for Inactive)
REMARK    1  A    between atoms: C_1  and  O_2
REMARK    2  A    between atoms: O_2  and  C_3
REMARK    3  A    between atoms: C_3  and  C_5
REMARK    4  A    between atoms: C_8  and  O_9
REMARK    5  A    between atoms: O_9  and  C_10
REMARK    6  A    between atoms: C_10  and  C_11
REMARK    7  A    between atoms: C_11  and  O_12
REMARK    8  A    between atoms: C_11  and  C_13
REMARK    9  A    between atoms: C_13  and  N_14
REMARK   10  A    between atoms: N_14  and  C_15
REMARK   11  A    between atoms: N_14  and  C_18
REMARK   12  A    between atoms: C_15  and  C_16
REMARK   13  A    between atoms: C_16  and  O_17
REMARK   14  A    between atoms: C_18  and  C_19
REMARK   15  A    between atoms: C_19  and  O_20
REMARK                            x       y       z     vdW  Elec       q    Type
REMARK                         _______ _______ _______ _____ _____    ______ ____
ROOT
ATOM      1  C   UNL     1       5.416   4.567  18.303  0.00  0.00    +0.000 C 
ENDROOT
BRANCH   1   2
ATOM      2  O   UNL     1       6.844   4.534  18.452  0.00  0.00    +0.000 OA
ATOM      3  H   UNL     1       7.035   4.835  19.361  0.00  0.00    +0.000 HD
ENDBRANCH   1   2
BRANCH   1   4
ATOM      4  C   UNL     1       4.974   5.984  17.924  0.00  0.00    +0.000 C 
BRANCH   4   5
ATOM      5  O   UNL     1       3.567   6.014  17.635  0.00  0.00    +0.000 OA
BRANCH   5   9
ATOM      6  C   UNL     1       1.393   9.018  19.572  0.00  0.00    +0.000 A 
ATOM      7  C   UNL     1       1.823   9.231  18.259  0.00  0.00    +0.000 A 
ATOM      8  C   UNL     1       2.558   8.252  17.588  0.00  0.00    +0.000 A 
ATOM      9  C   UNL     1       2.872   7.045  18.216  0.00  0.00    +0.000 A 
ATOM     10  C   UNL     1       2.457   6.837  19.535  0.00  0.00    +0.000 A 
ATOM     11  C   UNL     1       1.720   7.820  20.215  0.00  0.00    +0.000 A 
BRANCH   6  12
ATOM     12  C   UNL     1       0.590  10.097  20.204  0.00  0.00    +0.000 C 
ATOM     13  O   UNL     1       1.092  11.014  20.839  0.00  0.00    +0.000 OA
BRANCH  12  15
ATOM     14  C   UNL     1      -1.310  11.001  19.218  0.00  0.00    +0.000 C 
ATOM     15  O   UNL     1      -0.729   9.928  19.965  0.00  0.00    +0.000 OA
ENDBRANCH  12  15
ENDBRANCH   6  12
ENDBRANCH   5   9
ENDBRANCH   4   5
ENDBRANCH   1   4
BRANCH   1  16
ATOM     16  C   UNL     1       4.777   4.056  19.611  0.00  0.00    +0.000 C 
BRANCH  16  17
ATOM     17  N   UNL     1       3.484   3.325  19.514  0.00  0.00    +0.000 NA
BRANCH  17  18
ATOM     18  C   UNL     1       3.605   2.222  18.516  0.00  0.00    +0.000 C 
BRANCH  18  19
ATOM     19  C   UNL     1       2.585   2.232  17.359  0.00  0.00    +0.000 C 
BRANCH  19  20
ATOM     20  O   UNL     1       1.947   3.499  17.252  0.00  0.00    +0.000 OA
ATOM     21  H   UNL     1       1.770   3.632  16.302  0.00  0.00    +0.000 HD
ENDBRANCH  19  20
ENDBRANCH  18  19
ENDBRANCH  17  18
BRANCH  17  22
ATOM     22  C   UNL     1       3.123   2.775  20.850  0.00  0.00    +0.000 C 
BRANCH  22  23
ATOM     23  C   UNL     1       1.760   3.237  21.401  0.00  0.00    +0.000 C 
BRANCH  23  24
ATOM     24  O   UNL     1       1.320   2.379  22.449  0.00  0.00    +0.000 OA
ATOM     25  H   UNL     1       0.882   1.623  22.013  0.00  0.00    +0.000 HD
ENDBRANCH  23  24
ENDBRANCH  22  23
ENDBRANCH  17  22
ENDBRANCH  16  17
ENDBRANCH   1  16
TORSDOF 14
ENDMDL
MODEL 4
REMARK VINA RESULT:      -5.2      2.220      3.793
REMARK  Name = 
REMARK  15 active torsions:
REMARK  status: ('A' for Active; 'I' for Inactive)
REMARK    1  A    between atoms: C_1  and  O_2
REMARK    2  A    between atoms: O_2  and  C_3
REMARK    3  A    between atoms: C_3  and  C_5
REMARK    4  A    between atoms: C_8  and  O_9
REMARK    5  A    between atoms: O_9  and  C_10
REMARK    6  A    between atoms: C_10  and  C_11
REMARK    7  A    between atoms: C_11  and  O_12
REMARK    8  A    between atoms: C_11  and  C_13
REMARK    9  A    between atoms: C_13  and  N_14
REMARK   10  A    between atoms: N_14  and  C_15
REMARK   11  A    between atoms: N_14  and  C_18
REMARK   12  A    between atoms: C_15  and  C_16
REMARK   13  A    between atoms: C_16  and  O_17
REMARK   14  A    between atoms: C_18  and  C_19
REMARK   15  A    between atoms: C_19  and  O_20
REMARK                            x       y       z     vdW  Elec       q    Type
REMARK                         _______ _______ _______ _____ _____    ______ ____
ROOT
ATOM      1  C   UNL     1       3.734   3.713  17.947  0.00  0.00    +0.000 C 
ENDROOT
BRANCH   1   2
ATOM      2  O   UNL     1       3.094   2.510  17.495  0.00  0.00    +0.000 OA
ATOM      3  H   UNL     1       3.448   2.326  16.604  0.00  0.00    +0.000 HD
ENDBRANCH   1   2
BRANCH   1   4
ATOM      4  C   UNL     1       2.688   4.821  18.106  0.00  0.00    +0.000 C 
BRANCH   4   5
ATOM      5  O   UNL     1       3.000   5.651  19.237  0.00  0.00    +0.000 OA
BRANCH   5   9
ATOM      6  C   UNL     1       1.154   9.402  19.397  0.00  0.00    +0.000 A 
ATOM      7  C   UNL     1       1.724   8.977  18.194  0.00  0.00    +0.000 A 
ATOM      8  C   UNL     1       2.356   7.736  18.110  0.00  0.00    +0.000 A 
ATOM      9  C   UNL     1       2.424   6.897  19.224  0.00  0.00    +0.000 A 
ATOM     10  C   UNL     1       1.869   7.327  20.433  0.00  0.00    +0.000 A 
ATOM     11  C   UNL     1       1.235   8.577  20.524  0.00  0.00    +0.000 A 
BRANCH   6  12
ATOM     12  C   UNL     1       0.474  10.724  19.394  0.00  0.00    +0.000 C 
ATOM     13  O   UNL     1       0.919  11.701  19.979  0.00  0.00    +0.000 OA
BRANCH  12  15
ATOM     14  C   UNL     1      -1.105  11.983  18.246  0.00  0.00    +0.000 C 
ATOM     15  O   UNL     1      -0.661  10.688  18.661  0.00  0.00    +0.000 OA
ENDBRANCH  12  15
ENDBRANCH   6  12
ENDBRANCH   5   9
ENDBRANCH   4   5
ENDBRANCH   1   4
BRANCH   1  16
ATOM     16  C   UNL     1       4.858   4.071  16.951  0.00  0.00    +0.000 C 
BRANCH  16  17
ATOM     17  N   UNL     1       5.179   5.511  16.753  0.00  0.00    +0.000 NA
BRANCH  17  18
ATOM     18  C   UNL     1       6.406   5.863  17.527  0.00  0.00    +0.000 C 
BRANCH  18  19
ATOM     19  C   UNL     1       7.166   4.687  18.173  0.00  0.00    +0.000 C 
BRANCH  19  20
ATOM     20  O   UNL     1       8.149   4.165  17.288  0.00  0.00    +0.000 OA
ATOM     21  H   UNL     1       8.432   3.313  17.671  0.00  0.00    +0.000 HD
ENDBRANCH  19  20
ENDBRANCH  18  19
ENDBRANCH  17  18
BRANCH  17  22
ATOM     22  C   UNL     1       5.389   5.777  15.303  0.00  0.00    +0.000 C 
BRANCH  22  23
ATOM     23  C   UNL     1       6.281   4.754  14.573  0.00  0.00    +0.000 C 
BRANCH  23  24
ATOM     24  O   UNL     1       7.605   5.255  14.420  0.00  0.00    +0.000 OA
ATOM     25  H   UNL     1       8.183   4.652  14.925  0.00  0.00    +0.000 HD
ENDBRANCH  23  24
ENDBRANCH  22  23
ENDBRANCH  17  22
ENDBRANCH  16  17
ENDBRANCH   1  16
TORSDOF 14
ENDMDL
MODEL 5
REMARK VINA RESULT:      -5.1      2.342      4.243
REMARK  Name = 
REMARK  15 active torsions:
REMARK  status: ('A' for Active; 'I' for Inactive)
REMARK    1  A    between atoms: C_1  and  O_2
REMARK    2  A    between atoms: O_2  and  C_3
REMARK    3  A    between atoms: C_3  and  C_5
REMARK    4  A    between atoms: C_8  and  O_9
REMARK    5  A    between atoms: O_9  and  C_10
REMARK    6  A    between atoms: C_10  and  C_11
REMARK    7  A    between atoms: C_11  and  O_12
REMARK    8  A    between atoms: C_11  and  C_13
REMARK    9  A    between atoms: C_13  and  N_14
REMARK   10  A    between atoms: N_14  and  C_15
REMARK   11  A    between atoms: N_14  and  C_18
REMARK   12  A    between atoms: C_15  and  C_16
REMARK   13  A    between atoms: C_16  and  O_17
REMARK   14  A    between atoms: C_18  and  C_19
REMARK   15  A    between atoms: C_19  and  O_20
REMARK                            x       y       z     vdW  Elec       q    Type
REMARK                         _______ _______ _______ _____ _____    ______ ____
ROOT
ATOM      1  C   UNL     1       4.011   4.646  19.169  0.00  0.00    +0.000 C 
ENDROOT
BRANCH   1   2
ATOM      2  O   UNL     1       4.139   3.230  18.967  0.00  0.00    +0.000 OA
ATOM      3  H   UNL     1       3.315   2.826  19.302  0.00  0.00    +0.000 HD
ENDBRANCH   1   2
BRANCH   1   4
ATOM      4  C   UNL     1       2.768   5.156  18.434  0.00  0.00    +0.000 C 
BRANCH   4   5
ATOM      5  O   UNL     1       2.994   6.479  17.920  0.00  0.00    +0.000 OA
BRANCH   5   9
ATOM      6  C   UNL     1       1.089   9.686  19.817  0.00  0.00    +0.000 A 
ATOM      7  C   UNL     1       1.390   8.540  20.559  0.00  0.00    +0.000 A 
ATOM      8  C   UNL     1       2.016   7.450  19.953  0.00  0.00    +0.000 A 
ATOM      9  C   UNL     1       2.356   7.487  18.600  0.00  0.00    +0.000 A 
ATOM     10  C   UNL     1       2.042   8.626  17.852  0.00  0.00    +0.000 A 
ATOM     11  C   UNL     1       1.408   9.725  18.455  0.00  0.00    +0.000 A 
BRANCH   6  12
ATOM     12  C   UNL     1       0.450  10.813  20.543  0.00  0.00    +0.000 C 
ATOM     13  O   UNL     1       1.087  11.640  21.181  0.00  0.00    +0.000 OA
BRANCH  12  15
ATOM     14  C   UNL     1      -1.371  11.840  19.529  0.00  0.00    +0.000 C 
ATOM     15  O   UNL     1      -0.892  10.798  20.385  0.00  0.00    +0.000 OA
ENDBRANCH  12  15
ENDBRANCH   6  12
ENDBRANCH   5   9
ENDBRANCH   4   5
ENDBRANCH   1   4
BRANCH   1  16
ATOM     16  C   UNL     1       5.318   5.325  18.706  0.00  0.00    +0.000 C 
BRANCH  16  17
ATOM     17  N   UNL     1       6.191   4.578  17.760  0.00  0.00    +0.000 NA
BRANCH  17  18
ATOM     18  C   UNL     1       5.858   4.967  16.357  0.00  0.00    +0.000 C 
BRANCH  18  19
ATOM     19  C   UNL     1       6.818   4.458  15.263  0.00  0.00    +0.000 C 
BRANCH  19  20
ATOM     20  O   UNL     1       7.558   5.531  14.693  0.00  0.00    +0.000 OA
ATOM     21  H   UNL     1       6.912   6.241  14.519  0.00  0.00    +0.000 HD
ENDBRANCH  19  20
ENDBRANCH  18  19
ENDBRANCH  17  18
BRANCH  17  22
ATOM     22  C   UNL     1       7.618   4.884  18.055  0.00  0.00    +0.000 C 
BRANCH  22  23
ATOM     23  C   UNL     1       7.860   5.690  19.347  0.00  0.00    +0.000 C 
BRANCH  23  24
ATOM     24  O   UNL     1       8.388   6.978  19.048  0.00  0.00    +0.000 OA
ATOM     25  H   UNL     1       9.335   6.844  18.854  0.00  0.00    +0.000 HD
ENDBRANCH  23  24
ENDBRANCH  22  23
ENDBRANCH  17  22
ENDBRANCH  16  17
ENDBRANCH   1  16
TORSDOF 14
ENDMDL
MODEL 6
REMARK VINA RESULT:      -5.1      3.299      6.063
REMARK  Name = 
REMARK  15 active torsions:
REMARK  status: ('A' for Active; 'I' for Inactive)
REMARK    1  A    between atoms: C_1  and  O_2
REMARK    2  A    between atoms: O_2  and  C_3
REMARK    3  A    between atoms: C_3  and  C_5
REMARK    4  A    between atoms: C_8  and  O_9
REMARK    5  A    between atoms: O_9  and  C_10
REMARK    6  A    between atoms: C_10  and  C_11
REMARK    7  A    between atoms: C_11  and  O_12
REMARK    8  A    between atoms: C_11  and  C_13
REMARK    9  A    between atoms: C_13  and  N_14
REMARK   10  A    between atoms: N_14  and  C_15
REMARK   11  A    between atoms: N_14  and  C_18
REMARK   12  A    between atoms: C_15  and  C_16
REMARK   13  A    between atoms: C_16  and  O_17
REMARK   14  A    between atoms: C_18  and  C_19
REMARK   15  A    between atoms: C_19  and  O_20
REMARK                            x       y       z     vdW  Elec       q    Type
REMARK                         _______ _______ _______ _____ _____    ______ ____
ROOT
ATOM      1  C   UNL     1       2.552   5.757  20.681  0.00  0.00    +0.000 C 
ENDROOT
BRANCH   1   2
ATOM      2  O   UNL     1       1.527   6.611  20.148  0.00  0.00    +0.000 OA
ATOM      3  H   UNL     1       1.703   7.506  20.496  0.00  0.00    +0.000 HD
ENDBRANCH   1   2
BRANCH   1   4
ATOM      4  C   UNL     1       3.666   5.587  19.644  0.00  0.00    +0.000 C 
BRANCH   4   5
ATOM      5  O   UNL     1       3.136   5.690  18.313  0.00  0.00    +0.000 OA
BRANCH   5   9
ATOM      6  C   UNL     1       5.838   5.129  15.168  0.00  0.00    +0.000 A 
ATOM      7  C   UNL     1       5.410   4.019  15.901  0.00  0.00    +0.000 A 
ATOM      8  C   UNL     1       4.517   4.173  16.962  0.00  0.00    +0.000 A 
ATOM      9  C   UNL     1       4.033   5.437  17.305  0.00  0.00    +0.000 A 
ATOM     10  C   UNL     1       4.472   6.551  16.583  0.00  0.00    +0.000 A 
ATOM     11  C   UNL     1       5.374   6.402  15.517  0.00  0.00    +0.000 A 
BRANCH   6  12
ATOM     12  C   UNL     1       6.766   4.875  14.035  0.00  0.00    +0.000 C 
ATOM     13  O   UNL     1       7.890   5.353  13.977  0.00  0.00    +0.000 OA
BRANCH  12  15
ATOM     14  C   UNL     1       7.110   3.671  12.078  0.00  0.00    +0.000 C 
ATOM     15  O   UNL     1       6.207   4.053  13.120  0.00  0.00    +0.000 OA
ENDBRANCH  12  15
ENDBRANCH   6  12
ENDBRANCH   5   9
ENDBRANCH   4   5
ENDBRANCH   1   4
BRANCH   1  16
ATOM     16  C   UNL     1       1.902   4.423  21.108  0.00  0.00    +0.000 C 
BRANCH  16  17
ATOM     17  N   UNL     1       2.268   3.199  20.346  0.00  0.00    +0.000 NA
BRANCH  17  18
ATOM     18  C   UNL     1       3.222   2.376  21.146  0.00  0.00    +0.000 C 
BRANCH  18  19
ATOM     19  C   UNL     1       4.545   1.996  20.451  0.00  0.00    +0.000 C 
BRANCH  19  20
ATOM     20  O   UNL     1       5.459   1.414  21.372  0.00  0.00    +0.000 OA
ATOM     21  H   UNL     1       6.217   2.026  21.422  0.00  0.00    +0.000 HD
ENDBRANCH  19  20
ENDBRANCH  18  19
ENDBRANCH  17  18
BRANCH  17  22
ATOM     22  C   UNL     1       1.037   2.415  20.046  0.00  0.00    +0.000 C 
BRANCH  22  23
ATOM     23  C   UNL     1       0.688   2.293  18.550  0.00  0.00    +0.000 C 
BRANCH  23  24
ATOM     24  O   UNL     1       1.098   3.456  17.838  0.00  0.00    +0.000 OA
ATOM     25  H   UNL     1       1.034   3.230  16.890  0.00  0.00    +0.000 HD
ENDBRANCH  23  24
ENDBRANCH  22  23
ENDBRANCH  17  22
ENDBRANCH  16  17
ENDBRANCH   1  16
TORSDOF 14
ENDMDL
MODEL 7
REMARK VINA RESULT:      -5.1      2.639      4.416
REMARK  Name = 
REMARK  15 active torsions:
REMARK  status: ('A' for Active; 'I' for Inactive)
REMARK    1  A    between atoms: C_1  and  O_2
REMARK    2  A    between atoms: O_2  and  C_3
REMARK    3  A    between atoms: C_3  and  C_5
REMARK    4  A    between atoms: C_8  and  O_9
REMARK    5  A    between atoms: O_9  and  C_10
REMARK    6  A    between atoms: C_10  and  C_11
REMARK    7  A    between atoms: C_11  and  O_12
REMARK    8  A    between atoms: C_11  and  C_13
REMARK    9  A    between atoms: C_13  and  N_14
REMARK   10  A    between atoms: N_14  and  C_15
REMARK   11  A    between atoms: N_14  and  C_18
REMARK   12  A    between atoms: C_15  and  C_16
REMARK   13  A    between atoms: C_16  and  O_17
REMARK   14  A    between atoms: C_18  and  C_19
REMARK   15  A    between atoms: C_19  and  O_20
REMARK                            x       y       z     vdW  Elec       q    Type
REMARK                         _______ _______ _______ _____ _____    ______ ____
ROOT
ATOM      1  C   UNL     1       4.586   4.046  19.338  0.00  0.00    +0.000 C 
ENDROOT
BRANCH   1   2
ATOM      2  O   UNL     1       5.287   2.800  19.468  0.00  0.00    +0.000 OA
ATOM      3  H   UNL     1       6.167   2.934  19.064  0.00  0.00    +0.000 HD
ENDBRANCH   1   2
BRANCH   1   4
ATOM      4  C   UNL     1       3.109   3.773  19.035  0.00  0.00    +0.000 C 
BRANCH   4   5
ATOM      5  O   UNL     1       2.530   4.874  18.316  0.00  0.00    +0.000 OA
BRANCH   5   9
ATOM      6  C   UNL     1       1.507   8.283  20.515  0.00  0.00    +0.000 A 
ATOM      7  C   UNL     1       1.387   7.027  21.115  0.00  0.00    +0.000 A 
ATOM      8  C   UNL     1       1.711   5.870  20.406  0.00  0.00    +0.000 A 
ATOM      9  C   UNL     1       2.164   5.948  19.087  0.00  0.00    +0.000 A 
ATOM     10  C   UNL     1       2.269   7.203  18.479  0.00  0.00    +0.000 A 
ATOM     11  C   UNL     1       1.941   8.370  19.187  0.00  0.00    +0.000 A 
BRANCH   6  12
ATOM     12  C   UNL     1       1.171   9.467  21.348  0.00  0.00    +0.000 C 
ATOM     13  O   UNL     1       1.296   9.480  22.564  0.00  0.00    +0.000 OA
BRANCH  12  15
ATOM     14  C   UNL     1      -0.584  10.926  20.916  0.00  0.00    +0.000 C 
ATOM     15  O   UNL     1       0.739  10.495  20.584  0.00  0.00    +0.000 OA
ENDBRANCH  12  15
ENDBRANCH   6  12
ENDBRANCH   5   9
ENDBRANCH   4   5
ENDBRANCH   1   4
BRANCH   1  16
ATOM     16  C   UNL     1       5.287   4.890  18.252  0.00  0.00    +0.000 C 
BRANCH  16  17
ATOM     17  N   UNL     1       6.160   4.180  17.278  0.00  0.00    +0.000 NA
BRANCH  17  18
ATOM     18  C   UNL     1       5.611   4.344  15.899  0.00  0.00    +0.000 C 
BRANCH  18  19
ATOM     19  C   UNL     1       6.618   4.191  14.741  0.00  0.00    +0.000 C 
BRANCH  19  20
ATOM     20  O   UNL     1       6.960   5.457  14.190  0.00  0.00    +0.000 OA
ATOM     21  H   UNL     1       6.231   6.060  14.427  0.00  0.00    +0.000 HD
ENDBRANCH  19  20
ENDBRANCH  18  19
ENDBRANCH  17  18
BRANCH  17  22
ATOM     22  C   UNL     1       7.541   4.735  17.353  0.00  0.00    +0.000 C 
BRANCH  22  23
ATOM     23  C   UNL     1       7.629   6.212  17.784  0.00  0.00    +0.000 C 
BRANCH  23  24
ATOM     24  O   UNL     1       7.730   7.065  16.649  0.00  0.00    +0.000 OA
ATOM     25  H   UNL     1       8.667   7.042  16.376  0.00  0.00    +0.000 HD
ENDBRANCH  23  24
ENDBRANCH  22  23
ENDBRANCH  17  22
ENDBRANCH  16  17
ENDBRANCH   1  16
TORSDOF 14
ENDMDL
MODEL 8
REMARK VINA RESULT:      -5.1      2.881      4.541
REMARK  Name = 
REMARK  15 active torsions:
REMARK  status: ('A' for Active; 'I' for Inactive)
REMARK    1  A    between atoms: C_1  and  O_2
REMARK    2  A    between atoms: O_2  and  C_3
REMARK    3  A    between atoms: C_3  and  C_5
REMARK    4  A    between atoms: C_8  and  O_9
REMARK    5  A    between atoms: O_9  and  C_10
REMARK    6  A    between atoms: C_10  and  C_11
REMARK    7  A    between atoms: C_11  and  O_12
REMARK    8  A    between atoms: C_11  and  C_13
REMARK    9  A    between atoms: C_13  and  N_14
REMARK   10  A    between atoms: N_14  and  C_15
REMARK   11  A    between atoms: N_14  and  C_18
REMARK   12  A    between atoms: C_15  and  C_16
REMARK   13  A    between atoms: C_16  and  O_17
REMARK   14  A    between atoms: C_18  and  C_19
REMARK   15  A    between atoms: C_19  and  O_20
REMARK                            x       y       z     vdW  Elec       q    Type
REMARK                         _______ _______ _______ _____ _____    ______ ____
ROOT
ATOM      1  C   UNL     1       4.935   4.235  18.193  0.00  0.00    +0.000 C 
ENDROOT
BRANCH   1   2
ATOM      2  O   UNL     1       6.101   3.729  18.862  0.00  0.00    +0.000 OA
ATOM      3  H   UNL     1       6.483   4.479  19.359  0.00  0.00    +0.000 HD
ENDBRANCH   1   2
BRANCH   1   4
ATOM      4  C   UNL     1       3.705   3.439  18.639  0.00  0.00    +0.000 C 
BRANCH   4   5
ATOM      5  O   UNL     1       2.498   4.112  18.241  0.00  0.00    +0.000 OA
BRANCH   5   9
ATOM      6  C   UNL     1       1.669   7.671  20.278  0.00  0.00    +0.000 A 
ATOM      7  C   UNL     1       1.473   6.452  20.934  0.00  0.00    +0.000 A 
ATOM      8  C   UNL     1       1.731   5.248  20.279  0.00  0.00    +0.000 A 
ATOM      9  C   UNL     1       2.193   5.240  18.961  0.00  0.00    +0.000 A 
ATOM     10  C   UNL     1       2.375   6.457  18.298  0.00  0.00    +0.000 A 
ATOM     11  C   UNL     1       2.114   7.673  18.952  0.00  0.00    +0.000 A 
BRANCH   6  12
ATOM     12  C   UNL     1       1.400   8.909  21.055  0.00  0.00    +0.000 C 
ATOM     13  O   UNL     1       1.533   8.973  22.269  0.00  0.00    +0.000 OA
BRANCH  12  15
ATOM     14  C   UNL     1      -0.366  10.260  20.383  0.00  0.00    +0.000 C 
ATOM     15  O   UNL     1       1.017   9.921  20.246  0.00  0.00    +0.000 OA
ENDBRANCH  12  15
ENDBRANCH   6  12
ENDBRANCH   5   9
ENDBRANCH   4   5
ENDBRANCH   1   4
BRANCH   1  16
ATOM     16  C   UNL     1       5.184   4.177  16.671  0.00  0.00    +0.000 C 
BRANCH  16  17
ATOM     17  N   UNL     1       5.775   5.377  16.018  0.00  0.00    +0.000 NA
BRANCH  17  18
ATOM     18  C   UNL     1       5.883   6.487  17.011  0.00  0.00    +0.000 C 
BRANCH  18  19
ATOM     19  C   UNL     1       7.312   6.919  17.398  0.00  0.00    +0.000 C 
BRANCH  19  20
ATOM     20  O   UNL     1       7.726   6.292  18.605  0.00  0.00    +0.000 OA
ATOM     21  H   UNL     1       7.116   6.610  19.297  0.00  0.00    +0.000 HD
ENDBRANCH  19  20
ENDBRANCH  18  19
ENDBRANCH  17  18
BRANCH  17  22
ATOM     22  C   UNL     1       7.120   5.035  15.477  0.00  0.00    +0.000 C 
BRANCH  22  23
ATOM     23  C   UNL     1       7.199   4.927  13.942  0.00  0.00    +0.000 C 
BRANCH  23  24
ATOM     24  O   UNL     1       8.290   5.690  13.436  0.00  0.00    +0.000 OA
ATOM     25  H   UNL     1       8.407   5.411  12.508  0.00  0.00    +0.000 HD
ENDBRANCH  23  24
ENDBRANCH  22  23
ENDBRANCH  17  22
ENDBRANCH  16  17
ENDBRANCH   1  16
TORSDOF 14
ENDMDL
MODEL 9
REMARK VINA RESULT:      -5.1      3.183      7.026
REMARK  Name = 
REMARK  15 active torsions:
REMARK  status: ('A' for Active; 'I' for Inactive)
REMARK    1  A    between atoms: C_1  and  O_2
REMARK    2  A    between atoms: O_2  and  C_3
REMARK    3  A    between atoms: C_3  and  C_5
REMARK    4  A    between atoms: C_8  and  O_9
REMARK    5  A    between atoms: O_9  and  C_10
REMARK    6  A    between atoms: C_10  and  C_11
REMARK    7  A    between atoms: C_11  and  O_12
REMARK    8  A    between atoms: C_11  and  C_13
REMARK    9  A    between atoms: C_13  and  N_14
REMARK   10  A    between atoms: N_14  and  C_15
REMARK   11  A    between atoms: N_14  and  C_18
REMARK   12  A    between atoms: C_15  and  C_16
REMARK   13  A    between atoms: C_16  and  O_17
REMARK   14  A    between atoms: C_18  and  C_19
REMARK   15  A    between atoms: C_19  and  O_20
REMARK                            x       y       z     vdW  Elec       q    Type
REMARK                         _______ _______ _______ _____ _____    ______ ____
ROOT
ATOM      1  C   UNL     1       2.242   5.235  19.408  0.00  0.00    +0.000 C 
ENDROOT
BRANCH   1   2
ATOM      2  O   UNL     1       1.173   4.280  19.319  0.00  0.00    +0.000 OA
ATOM      3  H   UNL     1       0.553   4.621  18.645  0.00  0.00    +0.000 HD
ENDBRANCH   1   2
BRANCH   1   4
ATOM      4  C   UNL     1       3.551   4.508  19.730  0.00  0.00    +0.000 C 
BRANCH   4   5
ATOM      5  O   UNL     1       4.678   5.367  19.488  0.00  0.00    +0.000 OA
BRANCH   5   9
ATOM      6  C   UNL     1       6.274   4.882  15.651  0.00  0.00    +0.000 A 
ATOM      7  C   UNL     1       6.558   6.051  16.361  0.00  0.00    +0.000 A 
ATOM      8  C   UNL     1       6.034   6.248  17.639  0.00  0.00    +0.000 A 
ATOM      9  C   UNL     1       5.220   5.279  18.230  0.00  0.00    +0.000 A 
ATOM     10  C   UNL     1       4.921   4.115  17.515  0.00  0.00    +0.000 A 
ATOM     11  C   UNL     1       5.444   3.914  16.227  0.00  0.00    +0.000 A 
BRANCH   6  12
ATOM     12  C   UNL     1       6.896   4.736  14.309  0.00  0.00    +0.000 C 
ATOM     13  O   UNL     1       7.830   5.429  13.931  0.00  0.00    +0.000 OA
BRANCH  12  15
ATOM     14  C   UNL     1       6.672   3.748  12.218  0.00  0.00    +0.000 C 
ATOM     15  O   UNL     1       6.306   3.748  13.601  0.00  0.00    +0.000 OA
ENDBRANCH  12  15
ENDBRANCH   6  12
ENDBRANCH   5   9
ENDBRANCH   4   5
ENDBRANCH   1   4
BRANCH   1  16
ATOM     16  C   UNL     1       1.858   6.299  20.458  0.00  0.00    +0.000 C 
BRANCH  16  17
ATOM     17  N   UNL     1       2.097   7.728  20.118  0.00  0.00    +0.000 NA
BRANCH  17  18
ATOM     18  C   UNL     1       2.298   7.866  18.645  0.00  0.00    +0.000 C 
BRANCH  18  19
ATOM     19  C   UNL     1       1.365   8.857  17.920  0.00  0.00    +0.000 C 
BRANCH  19  20
ATOM     20  O   UNL     1       2.090   9.977  17.429  0.00  0.00    +0.000 OA
ATOM     21  H   UNL     1       1.447  10.516  16.930  0.00  0.00    +0.000 HD
ENDBRANCH  19  20
ENDBRANCH  18  19
ENDBRANCH  17  18
BRANCH  17  22
ATOM     22  C   UNL     1       0.932   8.545  20.559  0.00  0.00    +0.000 C 
BRANCH  22  23
ATOM     23  C   UNL     1       0.970   8.996  22.032  0.00  0.00    +0.000 C 
BRANCH  23  24
ATOM     24  O   UNL     1       1.313  10.375  22.130  0.00  0.00    +0.000 OA
ATOM     25  H   UNL     1       0.494  10.839  22.391  0.00  0.00    +0.000 HD
ENDBRANCH  23  24
ENDBRANCH  22  23
ENDBRANCH  17  22
ENDBRANCH  16  17
ENDBRANCH   1  16
TORSDOF 14
ENDMDL
