MODEL 1
REMARK VINA RESULT:      -7.5      0.000      0.000
REMARK  Name = 
REMARK  8 active torsions:
REMARK  status: ('A' for Active; 'I' for Inactive)
REMARK    1  A    between atoms: C_1  and  C_2
REMARK    2  A    between atoms: C_2  and  O_3
REMARK    3  A    between atoms: O_3  and  C_4
REMARK    4  A    between atoms: C_4  and  C_6
REMARK    5  A    between atoms: C_6  and  C_17
REMARK    6  A    between atoms: C_7  and  C_8
REMARK    7  A    between atoms: C_11  and  N_12
REMARK    8  A    between atoms: C_17  and  C_18
REMARK                            x       y       z     vdW  Elec       q    Type
REMARK                         _______ _______ _______ _____ _____    ______ ____
ROOT
ATOM      1  C   UNL     1       6.402   4.523  16.256  0.00  0.00    +0.000 C 
ATOM      2  C   UNL     1       5.118   4.138  16.409  0.00  0.00    +0.000 C 
ENDROOT
BRANCH   2   3
ATOM      3  C   UNL     1       4.343   3.976  17.642  0.00  0.00    +0.000 A 
ATOM      4  C   UNL     1       3.351   4.915  17.955  0.00  0.00    +0.000 A 
ATOM      5  C   UNL     1       2.519   4.719  19.058  0.00  0.00    +0.000 A 
ATOM      6  C   UNL     1       2.690   3.577  19.855  0.00  0.00    +0.000 A 
ATOM      7  C   UNL     1       3.698   2.649  19.568  0.00  0.00    +0.000 A 
ATOM      8  C   UNL     1       4.522   2.849  18.457  0.00  0.00    +0.000 A 
BRANCH   6   9
ATOM      9  N   UNL     1       1.774   3.337  20.978  0.00  0.00    +0.000 N 
ATOM     10  O   UNL     1       0.590   3.086  20.716  0.00  0.00    +0.000 OA
ATOM     11  O   UNL     1       2.245   3.393  22.124  0.00  0.00    +0.000 OA
ENDBRANCH   6   9
ENDBRANCH   2   3
BRANCH   1  12
ATOM     12  C   UNL     1       6.813   4.688  14.819  0.00  0.00    +0.000 C 
ATOM     13  C   UNL     1       6.114   3.912  13.732  0.00  0.00    +0.000 C 
ATOM     14  O   UNL     1       7.705   5.485  14.506  0.00  0.00    +0.000 OA
ENDBRANCH   1  12
BRANCH   1  15
ATOM     15  C   UNL     1       7.363   4.795  17.360  0.00  0.00    +0.000 C 
ATOM     16  O   UNL     1       8.341   4.098  17.584  0.00  0.00    +0.000 OA
BRANCH  15  17
ATOM     17  O   UNL     1       6.943   5.825  18.134  0.00  0.00    +0.000 OA
BRANCH  17  19
ATOM     18  C   UNL     1       7.758   8.032  17.481  0.00  0.00    +0.000 C 
ATOM     19  C   UNL     1       7.891   6.861  18.434  0.00  0.00    +0.000 C 
ENDBRANCH  17  19
ENDBRANCH  15  17
ENDBRANCH   1  15
TORSDOF 6
ENDMDL
MODEL 2
REMARK VINA RESULT:      -7.3      0.922      1.413
REMARK  Name = 
REMARK  8 active torsions:
REMARK  status: ('A' for Active; 'I' for Inactive)
REMARK    1  A    between atoms: C_1  and  C_2
REMARK    2  A    between atoms: C_2  and  O_3
REMARK    3  A    between atoms: O_3  and  C_4
REMARK    4  A    between atoms: C_4  and  C_6
REMARK    5  A    between atoms: C_6  and  C_17
REMARK    6  A    between atoms: C_7  and  C_8
REMARK    7  A    between atoms: C_11  and  N_12
REMARK    8  A    between atoms: C_17  and  C_18
REMARK                            x       y       z     vdW  Elec       q    Type
REMARK                         _______ _______ _______ _____ _____    ______ ____
ROOT
ATOM      1  C   UNL     1       6.408   4.693  15.686  0.00  0.00    +0.000 C 
ATOM      2  C   UNL     1       5.117   4.315  15.788  0.00  0.00    +0.000 C 
ENDROOT
BRANCH   2   3
ATOM      3  C   UNL     1       4.249   4.296  16.968  0.00  0.00    +0.000 A 
ATOM      4  C   UNL     1       3.992   3.077  17.610  0.00  0.00    +0.000 A 
ATOM      5  C   UNL     1       3.269   3.047  18.802  0.00  0.00    +0.000 A 
ATOM      6  C   UNL     1       2.795   4.249  19.351  0.00  0.00    +0.000 A 
ATOM      7  C   UNL     1       3.021   5.468  18.702  0.00  0.00    +0.000 A 
ATOM      8  C   UNL     1       3.752   5.490  17.511  0.00  0.00    +0.000 A 
BRANCH   6   9
ATOM      9  N   UNL     1       2.090   4.226  20.639  0.00  0.00    +0.000 N 
ATOM     10  O   UNL     1       1.175   5.042  20.813  0.00  0.00    +0.000 OA
ATOM     11  O   UNL     1       2.449   3.382  21.474  0.00  0.00    +0.000 OA
ENDBRANCH   6   9
ENDBRANCH   2   3
BRANCH   1  12
ATOM     12  C   UNL     1       6.929   4.684  14.276  0.00  0.00    +0.000 C 
ATOM     13  C   UNL     1       6.282   3.812  13.231  0.00  0.00    +0.000 C 
ATOM     14  O   UNL     1       7.870   5.415  13.947  0.00  0.00    +0.000 OA
ENDBRANCH   1  12
BRANCH   1  15
ATOM     15  C   UNL     1       7.278   5.113  16.818  0.00  0.00    +0.000 C 
ATOM     16  O   UNL     1       7.621   4.359  17.716  0.00  0.00    +0.000 OA
BRANCH  15  17
ATOM     17  O   UNL     1       7.531   6.444  16.777  0.00  0.00    +0.000 OA
BRANCH  17  19
ATOM     18  C   UNL     1       8.020   8.597  17.822  0.00  0.00    +0.000 C 
ATOM     19  C   UNL     1       7.722   7.125  18.027  0.00  0.00    +0.000 C 
ENDBRANCH  17  19
ENDBRANCH  15  17
ENDBRANCH   1  15
TORSDOF 6
ENDMDL
MODEL 3
REMARK VINA RESULT:      -7.3      1.250      1.860
REMARK  Name = 
REMARK  8 active torsions:
REMARK  status: ('A' for Active; 'I' for Inactive)
REMARK    1  A    between atoms: C_1  and  C_2
REMARK    2  A    between atoms: C_2  and  O_3
REMARK    3  A    between atoms: O_3  and  C_4
REMARK    4  A    between atoms: C_4  and  C_6
REMARK    5  A    between atoms: C_6  and  C_17
REMARK    6  A    between atoms: C_7  and  C_8
REMARK    7  A    between atoms: C_11  and  N_12
REMARK    8  A    between atoms: C_17  and  C_18
REMARK                            x       y       z     vdW  Elec       q    Type
REMARK                         _______ _______ _______ _____ _____    ______ ____
ROOT
ATOM      1  C   UNL     1       5.766   4.999  15.664  0.00  0.00    +0.000 C 
ATOM      2  C   UNL     1       5.363   3.878  16.299  0.00  0.00    +0.000 C 
ENDROOT
BRANCH   2   3
ATOM      3  C   UNL     1       4.434   3.735  17.422  0.00  0.00    +0.000 A 
ATOM      4  C   UNL     1       4.944   3.658  18.726  0.00  0.00    +0.000 A 
ATOM      5  C   UNL     1       4.079   3.642  19.820  0.00  0.00    +0.000 A 
ATOM      6  C   UNL     1       2.694   3.697  19.604  0.00  0.00    +0.000 A 
ATOM      7  C   UNL     1       2.175   3.743  18.306  0.00  0.00    +0.000 A 
ATOM      8  C   UNL     1       3.048   3.766  17.215  0.00  0.00    +0.000 A 
BRANCH   6   9
ATOM      9  N   UNL     1       1.785   3.746  20.757  0.00  0.00    +0.000 N 
ATOM     10  O   UNL     1       0.642   4.187  20.576  0.00  0.00    +0.000 OA
ATOM     11  O   UNL     1       2.217   3.333  21.844  0.00  0.00    +0.000 OA
ENDBRANCH   6   9
ENDBRANCH   2   3
BRANCH   1  12
ATOM     12  C   UNL     1       6.642   4.734  14.471  0.00  0.00    +0.000 C 
ATOM     13  C   UNL     1       6.197   3.773  13.398  0.00  0.00    +0.000 C 
ATOM     14  O   UNL     1       7.720   5.323  14.338  0.00  0.00    +0.000 OA
ENDBRANCH   1  12
BRANCH   1  15
ATOM     15  C   UNL     1       5.394   6.389  16.044  0.00  0.00    +0.000 C 
ATOM     16  O   UNL     1       4.871   7.177  15.271  0.00  0.00    +0.000 OA
BRANCH  15  17
ATOM     17  O   UNL     1       5.817   6.687  17.297  0.00  0.00    +0.000 OA
BRANCH  17  19
ATOM     18  C   UNL     1       7.750   6.176  18.699  0.00  0.00    +0.000 C 
ATOM     19  C   UNL     1       7.221   6.919  17.488  0.00  0.00    +0.000 C 
ENDBRANCH  17  19
ENDBRANCH  15  17
ENDBRANCH   1  15
TORSDOF 6
ENDMDL
MODEL 4
REMARK VINA RESULT:      -7.3      1.237      1.658
REMARK  Name = 
REMARK  8 active torsions:
REMARK  status: ('A' for Active; 'I' for Inactive)
REMARK    1  A    between atoms: C_1  and  C_2
REMARK    2  A    between atoms: C_2  and  O_3
REMARK    3  A    between atoms: O_3  and  C_4
REMARK    4  A    between atoms: C_4  and  C_6
REMARK    5  A    between atoms: C_6  and  C_17
REMARK    6  A    between atoms: C_7  and  C_8
REMARK    7  A    between atoms: C_11  and  N_12
REMARK    8  A    between atoms: C_17  and  C_18
REMARK                            x       y       z     vdW  Elec       q    Type
REMARK                         _______ _______ _______ _____ _____    ______ ____
ROOT
ATOM      1  C   UNL     1       5.763   5.042  15.699  0.00  0.00    +0.000 C 
ATOM      2  C   UNL     1       5.370   3.943  16.376  0.00  0.00    +0.000 C 
ENDROOT
BRANCH   2   3
ATOM      3  C   UNL     1       4.464   3.839  17.522  0.00  0.00    +0.000 A 
ATOM      4  C   UNL     1       3.083   3.747  17.296  0.00  0.00    +0.000 A 
ATOM      5  C   UNL     1       2.209   3.526  18.360  0.00  0.00    +0.000 A 
ATOM      6  C   UNL     1       2.723   3.404  19.660  0.00  0.00    +0.000 A 
ATOM      7  C   UNL     1       4.096   3.525  19.899  0.00  0.00    +0.000 A 
ATOM      8  C   UNL     1       4.966   3.738  18.827  0.00  0.00    +0.000 A 
BRANCH   6   9
ATOM      9  N   UNL     1       1.810   3.108  20.772  0.00  0.00    +0.000 N 
ATOM     10  O   UNL     1       0.601   3.017  20.521  0.00  0.00    +0.000 OA
ATOM     11  O   UNL     1       2.308   2.958  21.898  0.00  0.00    +0.000 OA
ENDBRANCH   6   9
ENDBRANCH   2   3
BRANCH   1  12
ATOM     12  C   UNL     1       6.614   4.737  14.498  0.00  0.00    +0.000 C 
ATOM     13  C   UNL     1       6.139   3.757  13.457  0.00  0.00    +0.000 C 
ATOM     14  O   UNL     1       7.697   5.310  14.331  0.00  0.00    +0.000 OA
ENDBRANCH   1  12
BRANCH   1  15
ATOM     15  C   UNL     1       5.402   6.445  16.042  0.00  0.00    +0.000 C 
ATOM     16  O   UNL     1       4.874   7.213  15.252  0.00  0.00    +0.000 OA
BRANCH  15  17
ATOM     17  O   UNL     1       5.841   6.778  17.280  0.00  0.00    +0.000 OA
BRANCH  17  19
ATOM     18  C   UNL     1       7.771   6.242  18.676  0.00  0.00    +0.000 C 
ATOM     19  C   UNL     1       7.252   6.977  17.456  0.00  0.00    +0.000 C 
ENDBRANCH  17  19
ENDBRANCH  15  17
ENDBRANCH   1  15
TORSDOF 6
ENDMDL
MODEL 5
REMARK VINA RESULT:      -7.2      0.862      1.204
REMARK  Name = 
REMARK  8 active torsions:
REMARK  status: ('A' for Active; 'I' for Inactive)
REMARK    1  A    between atoms: C_1  and  C_2
REMARK    2  A    between atoms: C_2  and  O_3
REMARK    3  A    between atoms: O_3  and  C_4
REMARK    4  A    between atoms: C_4  and  C_6
REMARK    5  A    between atoms: C_6  and  C_17
REMARK    6  A    between atoms: C_7  and  C_8
REMARK    7  A    between atoms: C_11  and  N_12
REMARK    8  A    between atoms: C_17  and  C_18
REMARK                            x       y       z     vdW  Elec       q    Type
REMARK                         _______ _______ _______ _____ _____    ______ ____
ROOT
ATOM      1  C   UNL     1       6.403   4.593  15.667  0.00  0.00    +0.000 C 
ATOM      2  C   UNL     1       5.112   4.278  15.897  0.00  0.00    +0.000 C 
ENDROOT
BRANCH   2   3
ATOM      3  C   UNL     1       4.381   4.243  17.166  0.00  0.00    +0.000 A 
ATOM      4  C   UNL     1       3.642   5.367  17.561  0.00  0.00    +0.000 A 
ATOM      5  C   UNL     1       2.842   5.318  18.703  0.00  0.00    +0.000 A 
ATOM      6  C   UNL     1       2.790   4.135  19.457  0.00  0.00    +0.000 A 
ATOM      7  C   UNL     1       3.547   3.018  19.087  0.00  0.00    +0.000 A 
ATOM      8  C   UNL     1       4.341   3.074  17.938  0.00  0.00    +0.000 A 
BRANCH   6   9
ATOM      9  N   UNL     1       1.899   4.062  20.622  0.00  0.00    +0.000 N 
ATOM     10  O   UNL     1       2.233   3.327  21.561  0.00  0.00    +0.000 OA
ATOM     11  O   UNL     1       0.866   4.749  20.598  0.00  0.00    +0.000 OA
ENDBRANCH   6   9
ENDBRANCH   2   3
BRANCH   1  12
ATOM     12  C   UNL     1       6.763   4.631  14.207  0.00  0.00    +0.000 C 
ATOM     13  C   UNL     1       6.032   3.758  13.220  0.00  0.00    +0.000 C 
ATOM     14  O   UNL     1       7.637   5.401  13.793  0.00  0.00    +0.000 OA
ENDBRANCH   1  12
BRANCH   1  15
ATOM     15  C   UNL     1       7.418   4.905  16.711  0.00  0.00    +0.000 C 
ATOM     16  O   UNL     1       8.197   4.077  17.157  0.00  0.00    +0.000 OA
BRANCH  15  17
ATOM     17  O   UNL     1       7.277   6.173  17.169  0.00  0.00    +0.000 OA
BRANCH  17  19
ATOM     18  C   UNL     1       6.868   5.579  19.502  0.00  0.00    +0.000 C 
ATOM     19  C   UNL     1       7.655   6.435  18.529  0.00  0.00    +0.000 C 
ENDBRANCH  17  19
ENDBRANCH  15  17
ENDBRANCH   1  15
TORSDOF 6
ENDMDL
MODEL 6
REMARK VINA RESULT:      -7.2      1.099      1.948
REMARK  Name = 
REMARK  8 active torsions:
REMARK  status: ('A' for Active; 'I' for Inactive)
REMARK    1  A    between atoms: C_1  and  C_2
REMARK    2  A    between atoms: C_2  and  O_3
REMARK    3  A    between atoms: O_3  and  C_4
REMARK    4  A    between atoms: C_4  and  C_6
REMARK    5  A    between atoms: C_6  and  C_17
REMARK    6  A    between atoms: C_7  and  C_8
REMARK    7  A    between atoms: C_11  and  N_12
REMARK    8  A    between atoms: C_17  and  C_18
REMARK                            x       y       z     vdW  Elec       q    Type
REMARK                         _______ _______ _______ _____ _____    ______ ____
ROOT
ATOM      1  C   UNL     1       6.177   4.963  15.632  0.00  0.00    +0.000 C 
ATOM      2  C   UNL     1       5.102   4.172  15.834  0.00  0.00    +0.000 C 
ENDROOT
BRANCH   2   3
ATOM      3  C   UNL     1       4.179   4.141  16.970  0.00  0.00    +0.000 A 
ATOM      4  C   UNL     1       4.047   2.960  17.713  0.00  0.00    +0.000 A 
ATOM      5  C   UNL     1       3.267   2.938  18.869  0.00  0.00    +0.000 A 
ATOM      6  C   UNL     1       2.610   4.108  19.279  0.00  0.00    +0.000 A 
ATOM      7  C   UNL     1       2.712   5.284  18.528  0.00  0.00    +0.000 A 
ATOM      8  C   UNL     1       3.501   5.300  17.375  0.00  0.00    +0.000 A 
BRANCH   6   9
ATOM      9  N   UNL     1       1.842   4.103  20.531  0.00  0.00    +0.000 N 
ATOM     10  O   UNL     1       2.460   3.931  21.590  0.00  0.00    +0.000 OA
ATOM     11  O   UNL     1       0.617   4.280  20.452  0.00  0.00    +0.000 OA
ENDBRANCH   6   9
ENDBRANCH   2   3
BRANCH   1  12
ATOM     12  C   UNL     1       6.813   4.781  14.282  0.00  0.00    +0.000 C 
ATOM     13  C   UNL     1       6.222   3.817  13.285  0.00  0.00    +0.000 C 
ATOM     14  O   UNL     1       7.806   5.442  13.958  0.00  0.00    +0.000 OA
ENDBRANCH   1  12
BRANCH   1  15
ATOM     15  C   UNL     1       6.717   5.954  16.602  0.00  0.00    +0.000 C 
ATOM     16  O   UNL     1       6.383   7.129  16.615  0.00  0.00    +0.000 OA
BRANCH  15  17
ATOM     17  O   UNL     1       7.694   5.411  17.369  0.00  0.00    +0.000 OA
BRANCH  17  19
ATOM     18  C   UNL     1       6.492   5.336  19.493  0.00  0.00    +0.000 C 
ATOM     19  C   UNL     1       7.738   5.784  18.755  0.00  0.00    +0.000 C 
ENDBRANCH  17  19
ENDBRANCH  15  17
ENDBRANCH   1  15
TORSDOF 6
ENDMDL
MODEL 7
REMARK VINA RESULT:      -7.2      1.355      1.744
REMARK  Name = 
REMARK  8 active torsions:
REMARK  status: ('A' for Active; 'I' for Inactive)
REMARK    1  A    between atoms: C_1  and  C_2
REMARK    2  A    between atoms: C_2  and  O_3
REMARK    3  A    between atoms: O_3  and  C_4
REMARK    4  A    between atoms: C_4  and  C_6
REMARK    5  A    between atoms: C_6  and  C_17
REMARK    6  A    between atoms: C_7  and  C_8
REMARK    7  A    between atoms: C_11  and  N_12
REMARK    8  A    between atoms: C_17  and  C_18
REMARK                            x       y       z     vdW  Elec       q    Type
REMARK                         _______ _______ _______ _____ _____    ______ ____
ROOT
ATOM      1  C   UNL     1       6.340   4.923  15.474  0.00  0.00    +0.000 C 
ATOM      2  C   UNL     1       5.094   4.468  15.720  0.00  0.00    +0.000 C 
ENDROOT
BRANCH   2   3
ATOM      3  C   UNL     1       4.294   4.578  16.942  0.00  0.00    +0.000 A 
ATOM      4  C   UNL     1       3.822   5.836  17.340  0.00  0.00    +0.000 A 
ATOM      5  C   UNL     1       2.961   5.953  18.430  0.00  0.00    +0.000 A 
ATOM      6  C   UNL     1       2.576   4.799  19.130  0.00  0.00    +0.000 A 
ATOM      7  C   UNL     1       3.065   3.542  18.760  0.00  0.00    +0.000 A 
ATOM      8  C   UNL     1       3.923   3.433  17.661  0.00  0.00    +0.000 A 
BRANCH   6   9
ATOM      9  N   UNL     1       1.618   4.913  20.238  0.00  0.00    +0.000 N 
ATOM     10  O   UNL     1       1.528   6.005  20.816  0.00  0.00    +0.000 OA
ATOM     11  O   UNL     1       0.950   3.909  20.524  0.00  0.00    +0.000 OA
ENDBRANCH   6   9
ENDBRANCH   2   3
BRANCH   1  12
ATOM     12  C   UNL     1       6.785   4.721  14.052  0.00  0.00    +0.000 C 
ATOM     13  C   UNL     1       6.125   3.677  13.188  0.00  0.00    +0.000 C 
ATOM     14  O   UNL     1       7.674   5.428  13.563  0.00  0.00    +0.000 OA
ENDBRANCH   1  12
BRANCH   1  15
ATOM     15  C   UNL     1       7.229   5.591  16.464  0.00  0.00    +0.000 C 
ATOM     16  O   UNL     1       7.522   6.775  16.409  0.00  0.00    +0.000 OA
BRANCH  15  17
ATOM     17  O   UNL     1       7.749   4.697  17.340  0.00  0.00    +0.000 OA
BRANCH  17  19
ATOM     18  C   UNL     1       6.697   5.415  19.424  0.00  0.00    +0.000 C 
ATOM     19  C   UNL     1       7.992   5.144  18.683  0.00  0.00    +0.000 C 
ENDBRANCH  17  19
ENDBRANCH  15  17
ENDBRANCH   1  15
TORSDOF 6
ENDMDL
MODEL 8
REMARK VINA RESULT:      -7.0      1.390      1.487
REMARK  Name = 
REMARK  8 active torsions:
REMARK  status: ('A' for Active; 'I' for Inactive)
REMARK    1  A    between atoms: C_1  and  C_2
REMARK    2  A    between atoms: C_2  and  O_3
REMARK    3  A    between atoms: O_3  and  C_4
REMARK    4  A    between atoms: C_4  and  C_6
REMARK    5  A    between atoms: C_6  and  C_17
REMARK    6  A    between atoms: C_7  and  C_8
REMARK    7  A    between atoms: C_11  and  N_12
REMARK    8  A    between atoms: C_17  and  C_18
REMARK                            x       y       z     vdW  Elec       q    Type
REMARK                         _______ _______ _______ _____ _____    ______ ____
ROOT
ATOM      1  C   UNL     1       6.295   4.567  15.389  0.00  0.00    +0.000 C 
ATOM      2  C   UNL     1       5.010   4.255  15.655  0.00  0.00    +0.000 C 
ENDROOT
BRANCH   2   3
ATOM      3  C   UNL     1       4.259   4.417  16.902  0.00  0.00    +0.000 A 
ATOM      4  C   UNL     1       3.869   5.702  17.304  0.00  0.00    +0.000 A 
ATOM      5  C   UNL     1       3.052   5.873  18.422  0.00  0.00    +0.000 A 
ATOM      6  C   UNL     1       2.630   4.747  19.145  0.00  0.00    +0.000 A 
ATOM      7  C   UNL     1       3.039   3.463  18.770  0.00  0.00    +0.000 A 
ATOM      8  C   UNL     1       3.851   3.300  17.644  0.00  0.00    +0.000 A 
BRANCH   6   9
ATOM      9  N   UNL     1       1.718   4.921  20.283  0.00  0.00    +0.000 N 
ATOM     10  O   UNL     1       1.012   3.959  20.612  0.00  0.00    +0.000 OA
ATOM     11  O   UNL     1       1.716   6.023  20.853  0.00  0.00    +0.000 OA
ENDBRANCH   6   9
ENDBRANCH   2   3
BRANCH   1  12
ATOM     12  C   UNL     1       6.679   4.362  13.949  0.00  0.00    +0.000 C 
ATOM     13  C   UNL     1       7.771   5.193  13.327  0.00  0.00    +0.000 C 
ATOM     14  O   UNL     1       6.128   3.490  13.268  0.00  0.00    +0.000 OA
ENDBRANCH   1  12
BRANCH   1  15
ATOM     15  C   UNL     1       7.281   5.089  16.374  0.00  0.00    +0.000 C 
ATOM     16  O   UNL     1       8.005   4.369  17.044  0.00  0.00    +0.000 OA
BRANCH  15  17
ATOM     17  O   UNL     1       7.181   6.435  16.505  0.00  0.00    +0.000 OA
BRANCH  17  19
ATOM     18  C   UNL     1       7.921   8.435  17.693  0.00  0.00    +0.000 C 
ATOM     19  C   UNL     1       7.446   6.999  17.798  0.00  0.00    +0.000 C 
ENDBRANCH  17  19
ENDBRANCH  15  17
ENDBRANCH   1  15
TORSDOF 6
ENDMDL
MODEL 9
REMARK VINA RESULT:      -6.9      1.600      2.270
REMARK  Name = 
REMARK  8 active torsions:
REMARK  status: ('A' for Active; 'I' for Inactive)
REMARK    1  A    between atoms: C_1  and  C_2
REMARK    2  A    between atoms: C_2  and  O_3
REMARK    3  A    between atoms: O_3  and  C_4
REMARK    4  A    between atoms: C_4  and  C_6
REMARK    5  A    between atoms: C_6  and  C_17
REMARK    6  A    between atoms: C_7  and  C_8
REMARK    7  A    between atoms: C_11  and  N_12
REMARK    8  A    between atoms: C_17  and  C_18
REMARK                            x       y       z     vdW  Elec       q    Type
REMARK                         _______ _______ _______ _____ _____    ______ ____
ROOT
ATOM      1  C   UNL     1       5.766   4.976  15.822  0.00  0.00    +0.000 C 
ATOM      2  C   UNL     1       5.172   3.840  16.244  0.00  0.00    +0.000 C 
ENDROOT
BRANCH   2   3
ATOM      3  C   UNL     1       4.218   3.649  17.338  0.00  0.00    +0.000 A 
ATOM      4  C   UNL     1       4.655   3.801  18.662  0.00  0.00    +0.000 A 
ATOM      5  C   UNL     1       3.743   3.742  19.716  0.00  0.00    +0.000 A 
ATOM      6  C   UNL     1       2.385   3.522  19.439  0.00  0.00    +0.000 A 
ATOM      7  C   UNL     1       1.944   3.339  18.124  0.00  0.00    +0.000 A 
ATOM      8  C   UNL     1       2.863   3.406  17.074  0.00  0.00    +0.000 A 
BRANCH   6   9
ATOM      9  N   UNL     1       1.415   3.524  20.542  0.00  0.00    +0.000 N 
ATOM     10  O   UNL     1       0.721   4.538  20.701  0.00  0.00    +0.000 OA
ATOM     11  O   UNL     1       1.344   2.505  21.245  0.00  0.00    +0.000 OA
ENDBRANCH   6   9
ENDBRANCH   2   3
BRANCH   1  12
ATOM     12  C   UNL     1       6.601   4.795  14.584  0.00  0.00    +0.000 C 
ATOM     13  C   UNL     1       6.151   3.859  13.492  0.00  0.00    +0.000 C 
ATOM     14  O   UNL     1       7.648   5.434  14.431  0.00  0.00    +0.000 OA
ENDBRANCH   1  12
BRANCH   1  15
ATOM     15  C   UNL     1       5.630   6.313  16.461  0.00  0.00    +0.000 C 
ATOM     16  O   UNL     1       6.555   6.889  17.014  0.00  0.00    +0.000 OA
BRANCH  15  17
ATOM     17  O   UNL     1       4.342   6.736  16.448  0.00  0.00    +0.000 OA
BRANCH  17  19
ATOM     18  C   UNL     1       2.469   6.959  17.998  0.00  0.00    +0.000 C 
ATOM     19  C   UNL     1       3.857   7.429  17.608  0.00  0.00    +0.000 C 
ENDBRANCH  17  19
ENDBRANCH  15  17
ENDBRANCH   1  15
TORSDOF 6
ENDMDL
