MODEL 1
REMARK VINA RESULT:      -7.3      0.000      0.000
REMARK  Name = 
REMARK  5 active torsions:
REMARK  status: ('A' for Active; 'I' for Inactive)
REMARK    1  A    between atoms: C_1  and  C_2
REMARK    2  A    between atoms: C_2  and  C_3
REMARK    3  A    between atoms: C_3  and  C_4
REMARK    4  A    between atoms: C_7  and  C_8
REMARK    5  A    between atoms: C_11  and  C_13
REMARK                            x       y       z     vdW  Elec       q    Type
REMARK                         _______ _______ _______ _____ _____    ______ ____
ROOT
ATOM      1  C   UNL     1       2.576   6.502  19.656  0.00  0.00    +0.000 C 
ATOM      2  C   UNL     1       2.655   5.404  18.584  0.00  0.00    +0.000 C 
ATOM      3  N   UNL     1       2.956   4.095  19.178  0.00  0.00    +0.000 N 
ATOM      4  C   UNL     1       4.017   3.244  18.837  0.00  0.00    +0.000 C 
ATOM      5  O   UNL     1       4.248   2.255  19.535  0.00  0.00    +0.000 OA
ATOM      6  C   UNL     1       2.079   3.754  20.302  0.00  0.00    +0.000 C 
ATOM      7  C   UNL     1       1.995   4.915  21.304  0.00  0.00    +0.000 C 
ATOM      8  O   UNL     1       1.603   6.147  20.661  0.00  0.00    +0.000 OA
ENDROOT
BRANCH   4   9
ATOM      9  C   UNL     1       4.837   3.576  17.673  0.00  0.00    +0.000 A 
ATOM     10  C   UNL     1       4.688   3.236  16.330  0.00  0.00    +0.000 A 
ATOM     11  C   UNL     1       5.596   3.947  15.522  0.00  0.00    +0.000 A 
ATOM     12  C   UNL     1       6.521   4.623  16.260  0.00  0.00    +0.000 A 
ATOM     13  S   UNL     1       6.273   4.530  17.911  0.00  0.00    +0.000 S 
ATOM     14  C   UNL     1       7.548   5.323  15.461  0.00  0.00    +0.000 C 
ATOM     15  C   UNL     1       7.086   5.014  14.001  0.00  0.00    +0.000 C 
ATOM     16  C   UNL     1       5.798   4.138  14.070  0.00  0.00    +0.000 C 
ENDBRANCH   4   9
BRANCH   1  20
ATOM     17  C   UNL     1       1.379   9.694  18.576  0.00  0.00    +0.000 A 
ATOM     18  N   UNL     1       2.128   9.420  17.502  0.00  0.00    +0.000 NA
ATOM     19  N   UNL     1       2.608   8.204  17.806  0.00  0.00    +0.000 N 
ATOM     20  C   UNL     1       2.169   7.787  19.027  0.00  0.00    +0.000 A 
ATOM     21  N   UNL     1       1.380   8.715  19.535  0.00  0.00    +0.000 NA
ATOM     22  H   UNL     1       3.228   7.720  17.164  0.00  0.00    +0.000 HD
BRANCH  17  23
ATOM     23  C   UNL     1       0.586  10.946  18.717  0.00  0.00    +0.000 C 
BRANCH  23  25
ATOM     24  C   UNL     1      -1.595  10.219  17.680  0.00  0.00    +0.000 C 
ATOM     25  C   UNL     1      -0.901  10.678  18.954  0.00  0.00    +0.000 C 
ENDBRANCH  23  25
ENDBRANCH  17  23
ENDBRANCH   1  20
TORSDOF 4
ENDMDL
MODEL 2
REMARK VINA RESULT:      -7.2      2.494      6.840
REMARK  Name = 
REMARK  5 active torsions:
REMARK  status: ('A' for Active; 'I' for Inactive)
REMARK    1  A    between atoms: C_1  and  C_2
REMARK    2  A    between atoms: C_2  and  C_3
REMARK    3  A    between atoms: C_3  and  C_4
REMARK    4  A    between atoms: C_7  and  C_8
REMARK    5  A    between atoms: C_11  and  C_13
REMARK                            x       y       z     vdW  Elec       q    Type
REMARK                         _______ _______ _______ _____ _____    ______ ____
ROOT
ATOM      1  C   UNL     1       3.973   3.926  17.251  0.00  0.00    +0.000 C 
ATOM      2  C   UNL     1       4.097   4.902  18.430  0.00  0.00    +0.000 C 
ATOM      3  N   UNL     1       3.319   4.446  19.589  0.00  0.00    +0.000 N 
ATOM      4  C   UNL     1       2.327   5.169  20.269  0.00  0.00    +0.000 C 
ATOM      5  O   UNL     1       1.636   4.599  21.115  0.00  0.00    +0.000 OA
ATOM      6  C   UNL     1       3.584   3.051  19.953  0.00  0.00    +0.000 C 
ATOM      7  C   UNL     1       3.504   2.138  18.720  0.00  0.00    +0.000 C 
ATOM      8  O   UNL     1       4.369   2.599  17.659  0.00  0.00    +0.000 OA
ENDROOT
BRANCH   4   9
ATOM      9  C   UNL     1       2.126   6.576  19.929  0.00  0.00    +0.000 A 
ATOM     10  C   UNL     1       2.474   7.293  18.785  0.00  0.00    +0.000 A 
ATOM     11  C   UNL     1       1.899   8.579  18.798  0.00  0.00    +0.000 A 
ATOM     12  C   UNL     1       1.329   8.875  19.999  0.00  0.00    +0.000 A 
ATOM     13  S   UNL     1       1.355   7.612  21.094  0.00  0.00    +0.000 S 
ATOM     14  C   UNL     1       0.780  10.245  20.093  0.00  0.00    +0.000 C 
ATOM     15  C   UNL     1       1.060  10.803  18.662  0.00  0.00    +0.000 C 
ATOM     16  C   UNL     1       1.767   9.689  17.830  0.00  0.00    +0.000 C 
ENDBRANCH   4   9
BRANCH   1  20
ATOM     17  C   UNL     1       6.033   4.536  14.393  0.00  0.00    +0.000 A 
ATOM     18  N   UNL     1       6.023   5.788  14.867  0.00  0.00    +0.000 NA
ATOM     19  N   UNL     1       5.282   5.653  15.977  0.00  0.00    +0.000 N 
ATOM     20  C   UNL     1       4.856   4.369  16.139  0.00  0.00    +0.000 A 
ATOM     21  N   UNL     1       5.326   3.637  15.146  0.00  0.00    +0.000 NA
ATOM     22  H   UNL     1       5.091   6.456  16.569  0.00  0.00    +0.000 HD
BRANCH  17  23
ATOM     23  C   UNL     1       6.768   4.139  13.161  0.00  0.00    +0.000 C 
BRANCH  23  25
ATOM     24  C   UNL     1       4.753   3.512  11.780  0.00  0.00    +0.000 C 
ATOM     25  C   UNL     1       6.060   3.026  12.386  0.00  0.00    +0.000 C 
ENDBRANCH  23  25
ENDBRANCH  17  23
ENDBRANCH   1  20
TORSDOF 4
ENDMDL
MODEL 3
REMARK VINA RESULT:      -7.1      4.189      7.024
REMARK  Name = 
REMARK  5 active torsions:
REMARK  status: ('A' for Active; 'I' for Inactive)
REMARK    1  A    between atoms: C_1  and  C_2
REMARK    2  A    between atoms: C_2  and  C_3
REMARK    3  A    between atoms: C_3  and  C_4
REMARK    4  A    between atoms: C_7  and  C_8
REMARK    5  A    between atoms: C_11  and  C_13
REMARK                            x       y       z     vdW  Elec       q    Type
REMARK                         _______ _______ _______ _____ _____    ______ ____
ROOT
ATOM      1  C   UNL     1       6.791   6.910  17.210  0.00  0.00    +0.000 C 
ATOM      2  C   UNL     1       5.849   6.404  18.313  0.00  0.00    +0.000 C 
ATOM      3  N   UNL     1       5.056   5.255  17.855  0.00  0.00    +0.000 N 
ATOM      4  C   UNL     1       3.658   5.145  17.865  0.00  0.00    +0.000 C 
ATOM      5  O   UNL     1       3.121   4.195  17.292  0.00  0.00    +0.000 OA
ATOM      6  C   UNL     1       5.867   4.197  17.246  0.00  0.00    +0.000 C 
ATOM      7  C   UNL     1       6.829   4.778  16.198  0.00  0.00    +0.000 C 
ATOM      8  O   UNL     1       7.640   5.838  16.750  0.00  0.00    +0.000 OA
ENDROOT
BRANCH   4   9
ATOM      9  C   UNL     1       2.876   6.183  18.534  0.00  0.00    +0.000 A 
ATOM     10  C   UNL     1       2.323   6.222  19.813  0.00  0.00    +0.000 A 
ATOM     11  C   UNL     1       1.829   7.506  20.114  0.00  0.00    +0.000 A 
ATOM     12  C   UNL     1       1.824   8.323  19.024  0.00  0.00    +0.000 A 
ATOM     13  S   UNL     1       2.503   7.640  17.658  0.00  0.00    +0.000 S 
ATOM     14  C   UNL     1       1.240   9.660  19.265  0.00  0.00    +0.000 C 
ATOM     15  C   UNL     1       0.892   9.589  20.786  0.00  0.00    +0.000 C 
ATOM     16  C   UNL     1       1.309   8.184  21.320  0.00  0.00    +0.000 C 
ENDBRANCH   4   9
BRANCH   1  20
ATOM     17  C   UNL     1       8.603   9.834  18.189  0.00  0.00    +0.000 A 
ATOM     18  N   UNL     1       9.108   9.004  19.109  0.00  0.00    +0.000 NA
ATOM     19  N   UNL     1       8.496   7.850  18.801  0.00  0.00    +0.000 N 
ATOM     20  C   UNL     1       7.647   8.003  17.746  0.00  0.00    +0.000 A 
ATOM     21  N   UNL     1       7.701   9.256  17.335  0.00  0.00    +0.000 NA
ATOM     22  H   UNL     1       8.682   7.009  19.339  0.00  0.00    +0.000 HD
BRANCH  17  23
ATOM     23  C   UNL     1       8.999  11.265  18.079  0.00  0.00    +0.000 C 
BRANCH  23  25
ATOM     24  C   UNL     1      10.816  12.854  17.349  0.00  0.00    +0.000 C 
ATOM     25  C   UNL     1      10.495  11.442  17.815  0.00  0.00    +0.000 C 
ENDBRANCH  23  25
ENDBRANCH  17  23
ENDBRANCH   1  20
TORSDOF 4
ENDMDL
MODEL 4
REMARK VINA RESULT:      -7.0      0.649      1.146
REMARK  Name = 
REMARK  5 active torsions:
REMARK  status: ('A' for Active; 'I' for Inactive)
REMARK    1  A    between atoms: C_1  and  C_2
REMARK    2  A    between atoms: C_2  and  C_3
REMARK    3  A    between atoms: C_3  and  C_4
REMARK    4  A    between atoms: C_7  and  C_8
REMARK    5  A    between atoms: C_11  and  C_13
REMARK                            x       y       z     vdW  Elec       q    Type
REMARK                         _______ _______ _______ _____ _____    ______ ____
ROOT
ATOM      1  C   UNL     1       2.531   6.558  19.650  0.00  0.00    +0.000 C 
ATOM      2  C   UNL     1       2.601   5.459  18.580  0.00  0.00    +0.000 C 
ATOM      3  N   UNL     1       2.877   4.146  19.177  0.00  0.00    +0.000 N 
ATOM      4  C   UNL     1       3.928   3.279  18.843  0.00  0.00    +0.000 C 
ATOM      5  O   UNL     1       4.140   2.287  19.542  0.00  0.00    +0.000 OA
ATOM      6  C   UNL     1       1.988   3.819  20.295  0.00  0.00    +0.000 C 
ATOM      7  C   UNL     1       1.916   4.982  21.296  0.00  0.00    +0.000 C 
ATOM      8  O   UNL     1       1.546   6.219  20.649  0.00  0.00    +0.000 OA
ENDROOT
BRANCH   4   9
ATOM      9  C   UNL     1       4.760   3.598  17.684  0.00  0.00    +0.000 A 
ATOM     10  C   UNL     1       4.612   3.264  16.339  0.00  0.00    +0.000 A 
ATOM     11  C   UNL     1       5.537   3.959  15.537  0.00  0.00    +0.000 A 
ATOM     12  C   UNL     1       6.471   4.615  16.282  0.00  0.00    +0.000 A 
ATOM     13  S   UNL     1       6.213   4.523  17.931  0.00  0.00    +0.000 S 
ATOM     14  C   UNL     1       7.516   5.298  15.489  0.00  0.00    +0.000 C 
ATOM     15  C   UNL     1       7.055   5.001  14.026  0.00  0.00    +0.000 C 
ATOM     16  C   UNL     1       5.750   4.149  14.086  0.00  0.00    +0.000 C 
ENDBRANCH   4   9
BRANCH   1  20
ATOM     17  C   UNL     1       1.415   9.780  18.570  0.00  0.00    +0.000 A 
ATOM     18  N   UNL     1       2.099   9.457  17.466  0.00  0.00    +0.000 NA
ATOM     19  N   UNL     1       2.543   8.228  17.770  0.00  0.00    +0.000 N 
ATOM     20  C   UNL     1       2.147   7.850  19.018  0.00  0.00    +0.000 A 
ATOM     21  N   UNL     1       1.422   8.818  19.546  0.00  0.00    +0.000 NA
ATOM     22  H   UNL     1       3.111   7.707  17.108  0.00  0.00    +0.000 HD
BRANCH  17  23
ATOM     23  C   UNL     1       0.682  11.066  18.726  0.00  0.00    +0.000 C 
BRANCH  23  25
ATOM     24  C   UNL     1       2.351  12.879  18.189  0.00  0.00    +0.000 C 
ATOM     25  C   UNL     1       1.565  12.182  19.288  0.00  0.00    +0.000 C 
ENDBRANCH  23  25
ENDBRANCH  17  23
ENDBRANCH   1  20
TORSDOF 4
ENDMDL
MODEL 5
REMARK VINA RESULT:      -6.9      4.318      7.239
REMARK  Name = 
REMARK  5 active torsions:
REMARK  status: ('A' for Active; 'I' for Inactive)
REMARK    1  A    between atoms: C_1  and  C_2
REMARK    2  A    between atoms: C_2  and  C_3
REMARK    3  A    between atoms: C_3  and  C_4
REMARK    4  A    between atoms: C_7  and  C_8
REMARK    5  A    between atoms: C_11  and  C_13
REMARK                            x       y       z     vdW  Elec       q    Type
REMARK                         _______ _______ _______ _____ _____    ______ ____
ROOT
ATOM      1  C   UNL     1       6.857   7.245  17.132  0.00  0.00    +0.000 C 
ATOM      2  C   UNL     1       5.929   6.700  18.227  0.00  0.00    +0.000 C 
ATOM      3  N   UNL     1       5.092   5.603  17.723  0.00  0.00    +0.000 N 
ATOM      4  C   UNL     1       3.692   5.531  17.764  0.00  0.00    +0.000 C 
ATOM      5  O   UNL     1       3.114   4.632  17.151  0.00  0.00    +0.000 OA
ATOM      6  C   UNL     1       5.857   4.562  17.031  0.00  0.00    +0.000 C 
ATOM      7  C   UNL     1       6.808   5.178  15.994  0.00  0.00    +0.000 C 
ATOM      8  O   UNL     1       7.663   6.180  16.585  0.00  0.00    +0.000 OA
ENDROOT
BRANCH   4   9
ATOM      9  C   UNL     1       2.958   6.548  18.515  0.00  0.00    +0.000 A 
ATOM     10  C   UNL     1       2.574   7.840  18.158  0.00  0.00    +0.000 A 
ATOM     11  C   UNL     1       1.699   8.392  19.113  0.00  0.00    +0.000 A 
ATOM     12  C   UNL     1       1.612   7.624  20.235  0.00  0.00    +0.000 A 
ATOM     13  S   UNL     1       2.461   6.186  20.142  0.00  0.00    +0.000 S 
ATOM     14  C   UNL     1       0.767   8.197  21.305  0.00  0.00    +0.000 C 
ATOM     15  C   UNL     1       0.255   9.514  20.639  0.00  0.00    +0.000 C 
ATOM     16  C   UNL     1       0.856   9.604  19.203  0.00  0.00    +0.000 C 
ENDBRANCH   4   9
BRANCH   1  20
ATOM     17  C   UNL     1       8.808  10.046  18.201  0.00  0.00    +0.000 A 
ATOM     18  N   UNL     1       9.223   9.182  19.135  0.00  0.00    +0.000 NA
ATOM     19  N   UNL     1       8.553   8.070  18.795  0.00  0.00    +0.000 N 
ATOM     20  C   UNL     1       7.758   8.280  17.708  0.00  0.00    +0.000 A 
ATOM     21  N   UNL     1       7.907   9.529  17.308  0.00  0.00    +0.000 NA
ATOM     22  H   UNL     1       8.664   7.216  19.335  0.00  0.00    +0.000 HD
BRANCH  17  23
ATOM     23  C   UNL     1       9.297  11.449  18.116  0.00  0.00    +0.000 C 
BRANCH  23  25
ATOM     24  C   UNL     1      11.615  11.726  19.073  0.00  0.00    +0.000 C 
ATOM     25  C   UNL     1      10.793  11.533  17.807  0.00  0.00    +0.000 C 
ENDBRANCH  23  25
ENDBRANCH  17  23
ENDBRANCH   1  20
TORSDOF 4
ENDMDL
MODEL 6
REMARK VINA RESULT:      -6.7      1.733      2.001
REMARK  Name = 
REMARK  5 active torsions:
REMARK  status: ('A' for Active; 'I' for Inactive)
REMARK    1  A    between atoms: C_1  and  C_2
REMARK    2  A    between atoms: C_2  and  C_3
REMARK    3  A    between atoms: C_3  and  C_4
REMARK    4  A    between atoms: C_7  and  C_8
REMARK    5  A    between atoms: C_11  and  C_13
REMARK                            x       y       z     vdW  Elec       q    Type
REMARK                         _______ _______ _______ _____ _____    ______ ____
ROOT
ATOM      1  C   UNL     1       2.030   5.184  20.247  0.00  0.00    +0.000 C 
ATOM      2  C   UNL     1       2.217   4.641  18.823  0.00  0.00    +0.000 C 
ATOM      3  N   UNL     1       2.368   3.180  18.822  0.00  0.00    +0.000 N 
ATOM      4  C   UNL     1       3.429   2.448  18.269  0.00  0.00    +0.000 C 
ATOM      5  O   UNL     1       3.512   1.239  18.492  0.00  0.00    +0.000 OA
ATOM      6  C   UNL     1       1.322   2.489  19.580  0.00  0.00    +0.000 C 
ATOM      7  C   UNL     1       1.144   3.119  20.970  0.00  0.00    +0.000 C 
ATOM      8  O   UNL     1       0.905   4.541  20.883  0.00  0.00    +0.000 OA
ENDROOT
BRANCH   4   9
ATOM      9  C   UNL     1       4.426   3.153  17.465  0.00  0.00    +0.000 A 
ATOM     10  C   UNL     1       4.656   3.143  16.090  0.00  0.00    +0.000 A 
ATOM     11  C   UNL     1       5.586   4.135  15.724  0.00  0.00    +0.000 A 
ATOM     12  C   UNL     1       6.178   4.711  16.808  0.00  0.00    +0.000 A 
ATOM     13  S   UNL     1       5.573   4.181  18.274  0.00  0.00    +0.000 S 
ATOM     14  C   UNL     1       7.222   5.705  16.479  0.00  0.00    +0.000 C 
ATOM     15  C   UNL     1       7.174   5.716  14.918  0.00  0.00    +0.000 C 
ATOM     16  C   UNL     1       6.083   4.704  14.453  0.00  0.00    +0.000 C 
ENDBRANCH   4   9
BRANCH   1  20
ATOM     17  C   UNL     1       1.298   8.667  20.598  0.00  0.00    +0.000 A 
ATOM     18  N   UNL     1       1.801   8.722  19.359  0.00  0.00    +0.000 NA
ATOM     19  N   UNL     1       2.085   7.432  19.122  0.00  0.00    +0.000 N 
ATOM     20  C   UNL     1       1.777   6.650  20.195  0.00  0.00    +0.000 A 
ATOM     21  N   UNL     1       1.268   7.412  21.145  0.00  0.00    +0.000 NA
ATOM     22  H   UNL     1       2.492   7.148  18.236  0.00  0.00    +0.000 HD
BRANCH  17  23
ATOM     23  C   UNL     1       0.789   9.864  21.323  0.00  0.00    +0.000 C 
BRANCH  23  25
ATOM     24  C   UNL     1      -0.938  10.461  23.062  0.00  0.00    +0.000 C 
ATOM     25  C   UNL     1       0.194   9.515  22.688  0.00  0.00    +0.000 C 
ENDBRANCH  23  25
ENDBRANCH  17  23
ENDBRANCH   1  20
TORSDOF 4
ENDMDL
MODEL 7
REMARK VINA RESULT:      -6.6      4.076      7.580
REMARK  Name = 
REMARK  5 active torsions:
REMARK  status: ('A' for Active; 'I' for Inactive)
REMARK    1  A    between atoms: C_1  and  C_2
REMARK    2  A    between atoms: C_2  and  C_3
REMARK    3  A    between atoms: C_3  and  C_4
REMARK    4  A    between atoms: C_7  and  C_8
REMARK    5  A    between atoms: C_11  and  C_13
REMARK                            x       y       z     vdW  Elec       q    Type
REMARK                         _______ _______ _______ _____ _____    ______ ____
ROOT
ATOM      1  C   UNL     1       6.229   4.096  14.331  0.00  0.00    +0.000 C 
ATOM      2  C   UNL     1       5.189   4.865  15.159  0.00  0.00    +0.000 C 
ATOM      3  N   UNL     1       5.806   5.522  16.319  0.00  0.00    +0.000 N 
ATOM      4  C   UNL     1       5.433   5.371  17.663  0.00  0.00    +0.000 C 
ATOM      5  O   UNL     1       6.147   5.849  18.546  0.00  0.00    +0.000 OA
ATOM      6  C   UNL     1       6.985   6.320  15.974  0.00  0.00    +0.000 C 
ATOM      7  C   UNL     1       7.955   5.514  15.096  0.00  0.00    +0.000 C 
ATOM      8  O   UNL     1       7.296   4.980  13.926  0.00  0.00    +0.000 OA
ENDROOT
BRANCH   4   9
ATOM      9  C   UNL     1       4.217   4.622  17.975  0.00  0.00    +0.000 A 
ATOM     10  C   UNL     1       3.840   3.322  17.643  0.00  0.00    +0.000 A 
ATOM     11  C   UNL     1       2.672   2.940  18.331  0.00  0.00    +0.000 A 
ATOM     12  C   UNL     1       2.092   3.989  18.979  0.00  0.00    +0.000 A 
ATOM     13  S   UNL     1       2.964   5.412  18.888  0.00  0.00    +0.000 S 
ATOM     14  C   UNL     1       0.817   3.660  19.653  0.00  0.00    +0.000 C 
ATOM     15  C   UNL     1       0.683   2.132  19.361  0.00  0.00    +0.000 C 
ATOM     16  C   UNL     1       1.918   1.683  18.520  0.00  0.00    +0.000 C 
ENDBRANCH   4   9
BRANCH   1  20
ATOM     17  C   UNL     1       4.362   3.123  11.440  0.00  0.00    +0.000 A 
ATOM     18  N   UNL     1       5.350   2.229  11.315  0.00  0.00    +0.000 NA
ATOM     19  N   UNL     1       6.104   2.502  12.391  0.00  0.00    +0.000 N 
ATOM     20  C   UNL     1       5.584   3.535  13.113  0.00  0.00    +0.000 A 
ATOM     21  N   UNL     1       4.472   3.943  12.532  0.00  0.00    +0.000 NA
ATOM     22  H   UNL     1       6.951   1.973  12.574  0.00  0.00    +0.000 HD
BRANCH  17  23
ATOM     23  C   UNL     1       3.220   3.212  10.489  0.00  0.00    +0.000 C 
BRANCH  23  25
ATOM     24  C   UNL     1       2.017   4.937   9.097  0.00  0.00    +0.000 C 
ATOM     25  C   UNL     1       3.370   4.366   9.497  0.00  0.00    +0.000 C 
ENDBRANCH  23  25
ENDBRANCH  17  23
ENDBRANCH   1  20
TORSDOF 4
ENDMDL
MODEL 8
REMARK VINA RESULT:      -6.6      1.047      1.426
REMARK  Name = 
REMARK  5 active torsions:
REMARK  status: ('A' for Active; 'I' for Inactive)
REMARK    1  A    between atoms: C_1  and  C_2
REMARK    2  A    between atoms: C_2  and  C_3
REMARK    3  A    between atoms: C_3  and  C_4
REMARK    4  A    between atoms: C_7  and  C_8
REMARK    5  A    between atoms: C_11  and  C_13
REMARK                            x       y       z     vdW  Elec       q    Type
REMARK                         _______ _______ _______ _____ _____    ______ ____
ROOT
ATOM      1  C   UNL     1       2.165   5.376  20.171  0.00  0.00    +0.000 C 
ATOM      2  C   UNL     1       2.317   4.746  18.779  0.00  0.00    +0.000 C 
ATOM      3  N   UNL     1       2.456   3.287  18.862  0.00  0.00    +0.000 N 
ATOM      4  C   UNL     1       3.499   2.513  18.332  0.00  0.00    +0.000 C 
ATOM      5  O   UNL     1       3.576   1.318  18.625  0.00  0.00    +0.000 OA
ATOM      6  C   UNL     1       1.420   2.652  19.681  0.00  0.00    +0.000 C 
ATOM      7  C   UNL     1       1.276   3.366  21.033  0.00  0.00    +0.000 C 
ATOM      8  O   UNL     1       1.048   4.783  20.866  0.00  0.00    +0.000 OA
ENDROOT
BRANCH   4   9
ATOM      9  C   UNL     1       4.484   3.160  17.467  0.00  0.00    +0.000 A 
ATOM     10  C   UNL     1       4.702   3.047  16.095  0.00  0.00    +0.000 A 
ATOM     11  C   UNL     1       5.623   4.012  15.646  0.00  0.00    +0.000 A 
ATOM     12  C   UNL     1       6.223   4.670  16.677  0.00  0.00    +0.000 A 
ATOM     13  S   UNL     1       5.635   4.249  18.185  0.00  0.00    +0.000 S 
ATOM     14  C   UNL     1       7.260   5.640  16.264  0.00  0.00    +0.000 C 
ATOM     15  C   UNL     1       7.197   5.534  14.707  0.00  0.00    +0.000 C 
ATOM     16  C   UNL     1       6.105   4.485  14.330  0.00  0.00    +0.000 C 
ENDBRANCH   4   9
BRANCH   1  20
ATOM     17  C   UNL     1       1.593   8.811  19.360  0.00  0.00    +0.000 A 
ATOM     18  N   UNL     1       1.422   8.917  20.683  0.00  0.00    +0.000 NA
ATOM     19  N   UNL     1       1.647   7.658  21.089  0.00  0.00    +0.000 N 
ATOM     20  C   UNL     1       1.923   6.838  20.037  0.00  0.00    +0.000 A 
ATOM     21  N   UNL     1       1.901   7.550  18.926  0.00  0.00    +0.000 NA
ATOM     22  H   UNL     1       1.589   7.416  22.074  0.00  0.00    +0.000 HD
BRANCH  17  23
ATOM     23  C   UNL     1       1.483   9.969  18.431  0.00  0.00    +0.000 C 
BRANCH  23  25
ATOM     24  C   UNL     1      -0.975  10.066  17.874  0.00  0.00    +0.000 C 
ATOM     25  C   UNL     1       0.175  10.742  18.606  0.00  0.00    +0.000 C 
ENDBRANCH  23  25
ENDBRANCH  17  23
ENDBRANCH   1  20
TORSDOF 4
ENDMDL
MODEL 9
REMARK VINA RESULT:      -6.6      4.326      6.913
REMARK  Name = 
REMARK  5 active torsions:
REMARK  status: ('A' for Active; 'I' for Inactive)
REMARK    1  A    between atoms: C_1  and  C_2
REMARK    2  A    between atoms: C_2  and  C_3
REMARK    3  A    between atoms: C_3  and  C_4
REMARK    4  A    between atoms: C_7  and  C_8
REMARK    5  A    between atoms: C_11  and  C_13
REMARK                            x       y       z     vdW  Elec       q    Type
REMARK                         _______ _______ _______ _____ _____    ______ ____
ROOT
ATOM      1  C   UNL     1       6.898   7.355  17.157  0.00  0.00    +0.000 C 
ATOM      2  C   UNL     1       5.964   6.796  18.240  0.00  0.00    +0.000 C 
ATOM      3  N   UNL     1       5.134   5.701  17.720  0.00  0.00    +0.000 N 
ATOM      4  C   UNL     1       3.734   5.624  17.751  0.00  0.00    +0.000 C 
ATOM      5  O   UNL     1       3.163   4.730  17.125  0.00  0.00    +0.000 OA
ATOM      6  C   UNL     1       5.907   4.670  17.023  0.00  0.00    +0.000 C 
ATOM      7  C   UNL     1       6.863   5.299  15.999  0.00  0.00    +0.000 C 
ATOM      8  O   UNL     1       7.711   6.299  16.605  0.00  0.00    +0.000 OA
ENDROOT
BRANCH   4   9
ATOM      9  C   UNL     1       2.992   6.632  18.506  0.00  0.00    +0.000 A 
ATOM     10  C   UNL     1       2.607   7.926  18.160  0.00  0.00    +0.000 A 
ATOM     11  C   UNL     1       1.724   8.466  19.115  0.00  0.00    +0.000 A 
ATOM     12  C   UNL     1       1.630   7.686  20.227  0.00  0.00    +0.000 A 
ATOM     13  S   UNL     1       2.483   6.251  20.126  0.00  0.00    +0.000 S 
ATOM     14  C   UNL     1       0.776   8.246  21.297  0.00  0.00    +0.000 C 
ATOM     15  C   UNL     1       0.265   9.568  20.641  0.00  0.00    +0.000 C 
ATOM     16  C   UNL     1       0.877   9.674  19.210  0.00  0.00    +0.000 C 
ENDBRANCH   4   9
BRANCH   1  20
ATOM     17  C   UNL     1       8.828  10.153  18.271  0.00  0.00    +0.000 A 
ATOM     18  N   UNL     1       9.252   9.276  19.189  0.00  0.00    +0.000 NA
ATOM     19  N   UNL     1       8.591   8.165  18.831  0.00  0.00    +0.000 N 
ATOM     20  C   UNL     1       7.791   8.388  17.749  0.00  0.00    +0.000 A 
ATOM     21  N   UNL     1       7.929   9.644  17.370  0.00  0.00    +0.000 NA
ATOM     22  H   UNL     1       8.710   7.303  19.355  0.00  0.00    +0.000 HD
BRANCH  17  23
ATOM     23  C   UNL     1       9.305  11.562  18.210  0.00  0.00    +0.000 C 
BRANCH  23  25
ATOM     24  C   UNL     1       8.095  13.774  18.188  0.00  0.00    +0.000 C 
ATOM     25  C   UNL     1       8.349  12.474  17.440  0.00  0.00    +0.000 C 
ENDBRANCH  23  25
ENDBRANCH  17  23
ENDBRANCH   1  20
TORSDOF 4
ENDMDL
