MODEL 1
REMARK VINA RESULT:      -8.1      0.000      0.000
REMARK  Name = 
REMARK  10 active torsions:
REMARK  status: ('A' for Active; 'I' for Inactive)
REMARK    1  A    between atoms: C_1  and  O_2
REMARK    2  A    between atoms: O_2  and  C_3
REMARK    3  A    between atoms: C_6  and  C_7
REMARK    4  A    between atoms: C_17  and  N_18
REMARK    5  A    between atoms: N_21  and  C_22
REMARK    6  A    between atoms: C_22  and  C_23
REMARK    7  A    between atoms: C_22  and  C_24
REMARK    8  A    between atoms: C_22  and  C_25
REMARK    9  A    between atoms: C_27  and  O_28
REMARK   10  A    between atoms: O_28  and  C_29
REMARK                            x       y       z     vdW  Elec       q    Type
REMARK                         _______ _______ _______ _____ _____    ______ ____
ROOT
ATOM      1  C   UNL     1       3.089   7.082  18.871  0.00  0.00    +0.000 A 
ATOM      2  C   UNL     1       2.754   8.299  18.243  0.00  0.00    +0.000 A 
ATOM      3  C   UNL     1       1.730   9.112  18.734  0.00  0.00    +0.000 A 
ATOM      4  C   UNL     1       1.302  10.272  18.113  0.00  0.00    +0.000 A 
ATOM      5  N   UNL     1       0.290  11.010  18.579  0.00  0.00    +0.000 NA
ATOM      6  C   UNL     1      -0.294  10.568  19.697  0.00  0.00    +0.000 A 
ATOM      7  N   UNL     1      -1.356  11.305  20.165  0.00  0.00    +0.000 N 
ATOM      8  N   UNL     1       0.074   9.486  20.382  0.00  0.00    +0.000 NA
ATOM      9  C   UNL     1       1.070   8.755  19.889  0.00  0.00    +0.000 A 
ATOM     10  N   UNL     1       1.417   7.646  20.541  0.00  0.00    +0.000 NA
ATOM     11  C   UNL     1       2.385   6.816  20.057  0.00  0.00    +0.000 A 
ATOM     12  H   UNL     1      -1.320  12.245  19.802  0.00  0.00    +0.000 HD
ATOM     13  H   UNL     1      -1.457  11.186  21.163  0.00  0.00    +0.000 HD
ENDROOT
BRANCH   1  17
ATOM     14  C   UNL     1       6.262   5.062  16.750  0.00  0.00    +0.000 A 
ATOM     15  C   UNL     1       5.098   5.476  16.096  0.00  0.00    +0.000 A 
ATOM     16  C   UNL     1       4.049   6.051  16.810  0.00  0.00    +0.000 A 
ATOM     17  C   UNL     1       4.120   6.247  18.203  0.00  0.00    +0.000 A 
ATOM     18  C   UNL     1       5.249   5.723  18.851  0.00  0.00    +0.000 A 
ATOM     19  C   UNL     1       6.306   5.103  18.149  0.00  0.00    +0.000 A 
BRANCH  14  21
ATOM     20  C   UNL     1       7.152   4.718  14.600  0.00  0.00    +0.000 C 
ATOM     21  O   UNL     1       7.341   4.644  16.019  0.00  0.00    +0.000 OA
ENDBRANCH  14  21
BRANCH  19  22
ATOM     22  O   UNL     1       7.303   4.693  18.990  0.00  0.00    +0.000 OA
ATOM     23  C   UNL     1       8.119   5.651  19.645  0.00  0.00    +0.000 C 
ENDBRANCH  19  22
ENDBRANCH   1  17
BRANCH  11  24
ATOM     24  N   UNL     1       2.646   5.654  20.810  0.00  0.00    +0.000 N 
ATOM     25  C   UNL     1       2.528   4.339  20.446  0.00  0.00    +0.000 C 
ATOM     26  O   UNL     1       2.728   3.469  21.290  0.00  0.00    +0.000 OA
ATOM     27  N   UNL     1       2.204   4.083  19.152  0.00  0.00    +0.000 N 
ATOM     28  H   UNL     1       2.949   5.748  21.767  0.00  0.00    +0.000 HD
ATOM     29  H   UNL     1       2.058   4.914  18.582  0.00  0.00    +0.000 HD
BRANCH  27  30
ATOM     30  C   UNL     1       2.056   2.777  18.505  0.00  0.00    +0.000 C 
ATOM     31  C   UNL     1       0.675   2.175  18.801  0.00  0.00    +0.000 C 
ATOM     32  C   UNL     1       2.182   2.980  16.983  0.00  0.00    +0.000 C 
ATOM     33  C   UNL     1       3.164   1.815  18.957  0.00  0.00    +0.000 C 
ENDBRANCH  27  30
ENDBRANCH  11  24
TORSDOF 5
ENDMDL
MODEL 2
REMARK VINA RESULT:      -7.4      1.092      1.345
REMARK  Name = 
REMARK  10 active torsions:
REMARK  status: ('A' for Active; 'I' for Inactive)
REMARK    1  A    between atoms: C_1  and  O_2
REMARK    2  A    between atoms: O_2  and  C_3
REMARK    3  A    between atoms: C_6  and  C_7
REMARK    4  A    between atoms: C_17  and  N_18
REMARK    5  A    between atoms: N_21  and  C_22
REMARK    6  A    between atoms: C_22  and  C_23
REMARK    7  A    between atoms: C_22  and  C_24
REMARK    8  A    between atoms: C_22  and  C_25
REMARK    9  A    between atoms: C_27  and  O_28
REMARK   10  A    between atoms: O_28  and  C_29
REMARK                            x       y       z     vdW  Elec       q    Type
REMARK                         _______ _______ _______ _____ _____    ______ ____
ROOT
ATOM      1  C   UNL     1       3.325   7.191  18.474  0.00  0.00    +0.000 A 
ATOM      2  C   UNL     1       2.828   8.372  17.887  0.00  0.00    +0.000 A 
ATOM      3  C   UNL     1       1.763   9.073  18.455  0.00  0.00    +0.000 A 
ATOM      4  C   UNL     1       1.180  10.189  17.880  0.00  0.00    +0.000 A 
ATOM      5  N   UNL     1       0.132  10.817  18.422  0.00  0.00    +0.000 NA
ATOM      6  C   UNL     1      -0.328  10.310  19.570  0.00  0.00    +0.000 A 
ATOM      7  N   UNL     1      -1.425  10.932  20.117  0.00  0.00    +0.000 N 
ATOM      8  N   UNL     1       0.191   9.266  20.213  0.00  0.00    +0.000 NA
ATOM      9  C   UNL     1       1.220   8.643  19.646  0.00  0.00    +0.000 A 
ATOM     10  N   UNL     1       1.720   7.570  20.258  0.00  0.00    +0.000 NA
ATOM     11  C   UNL     1       2.731   6.846  19.700  0.00  0.00    +0.000 A 
ATOM     12  H   UNL     1      -1.508  11.874  19.765  0.00  0.00    +0.000 HD
ATOM     13  H   UNL     1      -1.447  10.797  21.118  0.00  0.00    +0.000 HD
ENDROOT
BRANCH   1  17
ATOM     14  C   UNL     1       6.215   5.267  15.907  0.00  0.00    +0.000 A 
ATOM     15  C   UNL     1       4.940   4.729  16.098  0.00  0.00    +0.000 A 
ATOM     16  C   UNL     1       4.049   5.316  16.994  0.00  0.00    +0.000 A 
ATOM     17  C   UNL     1       4.388   6.469  17.728  0.00  0.00    +0.000 A 
ATOM     18  C   UNL     1       5.709   6.924  17.603  0.00  0.00    +0.000 A 
ATOM     19  C   UNL     1       6.639   6.320  16.727  0.00  0.00    +0.000 A 
BRANCH  14  21
ATOM     20  C   UNL     1       6.318   4.048  13.898  0.00  0.00    +0.000 C 
ATOM     21  O   UNL     1       7.019   4.776  14.914  0.00  0.00    +0.000 OA
ENDBRANCH  14  21
BRANCH  19  22
ATOM     22  O   UNL     1       7.852   6.950  16.761  0.00  0.00    +0.000 OA
ATOM     23  C   UNL     1       8.050   8.064  17.617  0.00  0.00    +0.000 C 
ENDBRANCH  19  22
ENDBRANCH   1  17
BRANCH  11  24
ATOM     24  N   UNL     1       3.158   5.711  20.418  0.00  0.00    +0.000 N 
ATOM     25  C   UNL     1       2.925   4.385  20.164  0.00  0.00    +0.000 C 
ATOM     26  O   UNL     1       3.322   3.548  20.970  0.00  0.00    +0.000 OA
ATOM     27  N   UNL     1       2.272   4.082  19.012  0.00  0.00    +0.000 N 
ATOM     28  H   UNL     1       3.701   5.838  21.258  0.00  0.00    +0.000 HD
ATOM     29  H   UNL     1       1.998   4.892  18.458  0.00  0.00    +0.000 HD
BRANCH  27  30
ATOM     30  C   UNL     1       1.936   2.754  18.492  0.00  0.00    +0.000 C 
ATOM     31  C   UNL     1       1.820   2.781  16.962  0.00  0.00    +0.000 C 
ATOM     32  C   UNL     1       3.075   1.789  18.876  0.00  0.00    +0.000 C 
ATOM     33  C   UNL     1       0.632   2.237  19.117  0.00  0.00    +0.000 C 
ENDBRANCH  27  30
ENDBRANCH  11  24
TORSDOF 5
ENDMDL
MODEL 3
REMARK VINA RESULT:      -7.4      5.428      9.099
REMARK  Name = 
REMARK  10 active torsions:
REMARK  status: ('A' for Active; 'I' for Inactive)
REMARK    1  A    between atoms: C_1  and  O_2
REMARK    2  A    between atoms: O_2  and  C_3
REMARK    3  A    between atoms: C_6  and  C_7
REMARK    4  A    between atoms: C_17  and  N_18
REMARK    5  A    between atoms: N_21  and  C_22
REMARK    6  A    between atoms: C_22  and  C_23
REMARK    7  A    between atoms: C_22  and  C_24
REMARK    8  A    between atoms: C_22  and  C_25
REMARK    9  A    between atoms: C_27  and  O_28
REMARK   10  A    between atoms: O_28  and  C_29
REMARK                            x       y       z     vdW  Elec       q    Type
REMARK                         _______ _______ _______ _____ _____    ______ ____
ROOT
ATOM      1  C   UNL     1      -1.442  12.618  20.974  0.00  0.00    +0.000 A 
ATOM      2  C   UNL     1      -1.138  13.040  22.283  0.00  0.00    +0.000 A 
ATOM      3  C   UNL     1      -2.022  13.836  23.014  0.00  0.00    +0.000 A 
ATOM      4  C   UNL     1      -1.741  14.348  24.269  0.00  0.00    +0.000 A 
ATOM      5  N   UNL     1      -2.586  15.144  24.931  0.00  0.00    +0.000 NA
ATOM      6  C   UNL     1      -3.739  15.420  24.313  0.00  0.00    +0.000 A 
ATOM      7  N   UNL     1      -4.601  16.263  24.973  0.00  0.00    +0.000 N 
ATOM      8  N   UNL     1      -4.110  14.943  23.126  0.00  0.00    +0.000 NA
ATOM      9  C   UNL     1      -3.245  14.170  22.476  0.00  0.00    +0.000 A 
ATOM     10  N   UNL     1      -3.586  13.723  21.267  0.00  0.00    +0.000 NA
ATOM     11  C   UNL     1      -2.722  12.981  20.519  0.00  0.00    +0.000 A 
ATOM     12  H   UNL     1      -4.397  16.273  25.961  0.00  0.00    +0.000 HD
ATOM     13  H   UNL     1      -5.554  16.090  24.688  0.00  0.00    +0.000 HD
ENDROOT
BRANCH   1  17
ATOM     14  C   UNL     1       1.318  10.393  18.509  0.00  0.00    +0.000 A 
ATOM     15  C   UNL     1       0.303   9.753  19.224  0.00  0.00    +0.000 A 
ATOM     16  C   UNL     1      -0.526  10.475  20.080  0.00  0.00    +0.000 A 
ATOM     17  C   UNL     1      -0.385  11.866  20.250  0.00  0.00    +0.000 A 
ATOM     18  C   UNL     1       0.709  12.466  19.609  0.00  0.00    +0.000 A 
ATOM     19  C   UNL     1       1.583  11.744  18.766  0.00  0.00    +0.000 A 
BRANCH  14  21
ATOM     20  C   UNL     1       2.176   8.307  17.844  0.00  0.00    +0.000 C 
ATOM     21  O   UNL     1       2.020   9.702  17.559  0.00  0.00    +0.000 OA
ENDBRANCH  14  21
BRANCH  19  22
ATOM     22  O   UNL     1       2.558  12.544  18.238  0.00  0.00    +0.000 OA
ATOM     23  C   UNL     1       2.403  13.955  18.254  0.00  0.00    +0.000 C 
ENDBRANCH  19  22
ENDBRANCH   1  17
BRANCH  11  24
ATOM     24  N   UNL     1      -3.174  12.592  19.242  0.00  0.00    +0.000 N 
ATOM     25  C   UNL     1      -4.387  12.073  18.872  0.00  0.00    +0.000 C 
ATOM     26  O   UNL     1      -4.550  11.719  17.707  0.00  0.00    +0.000 OA
ATOM     27  N   UNL     1      -5.345  11.996  19.832  0.00  0.00    +0.000 N 
ATOM     28  H   UNL     1      -2.548  12.670  18.456  0.00  0.00    +0.000 HD
ATOM     29  H   UNL     1      -5.047  12.317  20.751  0.00  0.00    +0.000 HD
BRANCH  27  30
ATOM     30  C   UNL     1      -6.724  11.521  19.688  0.00  0.00    +0.000 C 
ATOM     31  C   UNL     1      -7.440  11.509  21.046  0.00  0.00    +0.000 C 
ATOM     32  C   UNL     1      -7.469  12.493  18.754  0.00  0.00    +0.000 C 
ATOM     33  C   UNL     1      -6.756  10.121  19.057  0.00  0.00    +0.000 C 
ENDBRANCH  27  30
ENDBRANCH  11  24
TORSDOF 5
ENDMDL
MODEL 4
REMARK VINA RESULT:      -7.2      6.358     10.889
REMARK  Name = 
REMARK  10 active torsions:
REMARK  status: ('A' for Active; 'I' for Inactive)
REMARK    1  A    between atoms: C_1  and  O_2
REMARK    2  A    between atoms: O_2  and  C_3
REMARK    3  A    between atoms: C_6  and  C_7
REMARK    4  A    between atoms: C_17  and  N_18
REMARK    5  A    between atoms: N_21  and  C_22
REMARK    6  A    between atoms: C_22  and  C_23
REMARK    7  A    between atoms: C_22  and  C_24
REMARK    8  A    between atoms: C_22  and  C_25
REMARK    9  A    between atoms: C_27  and  O_28
REMARK   10  A    between atoms: O_28  and  C_29
REMARK                            x       y       z     vdW  Elec       q    Type
REMARK                         _______ _______ _______ _____ _____    ______ ____
ROOT
ATOM      1  C   UNL     1      -3.332  12.595  19.919  0.00  0.00    +0.000 A 
ATOM      2  C   UNL     1      -4.309  12.182  18.992  0.00  0.00    +0.000 A 
ATOM      3  C   UNL     1      -3.955  11.602  17.772  0.00  0.00    +0.000 A 
ATOM      4  C   UNL     1      -4.866  11.254  16.790  0.00  0.00    +0.000 A 
ATOM      5  N   UNL     1      -4.499  10.741  15.612  0.00  0.00    +0.000 NA
ATOM      6  C   UNL     1      -3.186  10.572  15.429  0.00  0.00    +0.000 A 
ATOM      7  N   UNL     1      -2.797  10.074  14.208  0.00  0.00    +0.000 N 
ATOM      8  N   UNL     1      -2.241  10.843  16.328  0.00  0.00    +0.000 NA
ATOM      9  C   UNL     1      -2.627  11.372  17.486  0.00  0.00    +0.000 A 
ATOM     10  N   UNL     1      -1.688  11.688  18.376  0.00  0.00    +0.000 NA
ATOM     11  C   UNL     1      -2.008  12.293  19.555  0.00  0.00    +0.000 A 
ATOM     12  H   UNL     1      -3.564   9.590  13.764  0.00  0.00    +0.000 HD
ATOM     13  H   UNL     1      -1.914   9.591  14.286  0.00  0.00    +0.000 HD
ENDROOT
BRANCH   1  17
ATOM     14  C   UNL     1      -5.085  14.818  23.179  0.00  0.00    +0.000 A 
ATOM     15  C   UNL     1      -4.242  15.433  22.250  0.00  0.00    +0.000 A 
ATOM     16  C   UNL     1      -3.618  14.685  21.254  0.00  0.00    +0.000 A 
ATOM     17  C   UNL     1      -3.817  13.296  21.136  0.00  0.00    +0.000 A 
ATOM     18  C   UNL     1      -4.577  12.685  22.144  0.00  0.00    +0.000 A 
ATOM     19  C   UNL     1      -5.188  13.421  23.184  0.00  0.00    +0.000 A 
BRANCH  14  21
ATOM     20  C   UNL     1      -6.975  16.187  23.473  0.00  0.00    +0.000 C 
ATOM     21  O   UNL     1      -5.811  15.584  24.051  0.00  0.00    +0.000 OA
ENDBRANCH  14  21
BRANCH  19  22
ATOM     22  O   UNL     1      -5.893  12.614  24.033  0.00  0.00    +0.000 OA
ATOM     23  C   UNL     1      -7.275  12.386  23.811  0.00  0.00    +0.000 C 
ENDBRANCH  19  22
ENDBRANCH   1  17
BRANCH  11  24
ATOM     24  N   UNL     1      -0.931  12.615  20.406  0.00  0.00    +0.000 N 
ATOM     25  C   UNL     1      -0.217  11.803  21.247  0.00  0.00    +0.000 C 
ATOM     26  O   UNL     1       0.638  12.304  21.972  0.00  0.00    +0.000 OA
ATOM     27  N   UNL     1      -0.500  10.475  21.211  0.00  0.00    +0.000 N 
ATOM     28  H   UNL     1      -0.613  13.570  20.454  0.00  0.00    +0.000 HD
ATOM     29  H   UNL     1      -1.245  10.220  20.565  0.00  0.00    +0.000 HD
BRANCH  27  30
ATOM     30  C   UNL     1       0.141   9.399  21.973  0.00  0.00    +0.000 C 
ATOM     31  C   UNL     1      -0.126   9.563  23.476  0.00  0.00    +0.000 C 
ATOM     32  C   UNL     1      -0.468   8.060  21.514  0.00  0.00    +0.000 C 
ATOM     33  C   UNL     1       1.652   9.362  21.701  0.00  0.00    +0.000 C 
ENDBRANCH  27  30
ENDBRANCH  11  24
TORSDOF 5
ENDMDL
MODEL 5
REMARK VINA RESULT:      -7.2      7.173      9.149
REMARK  Name = 
REMARK  10 active torsions:
REMARK  status: ('A' for Active; 'I' for Inactive)
REMARK    1  A    between atoms: C_1  and  O_2
REMARK    2  A    between atoms: O_2  and  C_3
REMARK    3  A    between atoms: C_6  and  C_7
REMARK    4  A    between atoms: C_17  and  N_18
REMARK    5  A    between atoms: N_21  and  C_22
REMARK    6  A    between atoms: C_22  and  C_23
REMARK    7  A    between atoms: C_22  and  C_24
REMARK    8  A    between atoms: C_22  and  C_25
REMARK    9  A    between atoms: C_27  and  O_28
REMARK   10  A    between atoms: O_28  and  C_29
REMARK                            x       y       z     vdW  Elec       q    Type
REMARK                         _______ _______ _______ _____ _____    ______ ____
ROOT
ATOM      1  C   UNL     1      -0.167  13.522  21.249  0.00  0.00    +0.000 A 
ATOM      2  C   UNL     1      -0.708  14.219  22.348  0.00  0.00    +0.000 A 
ATOM      3  C   UNL     1      -1.777  13.702  23.082  0.00  0.00    +0.000 A 
ATOM      4  C   UNL     1      -2.401  14.378  24.116  0.00  0.00    +0.000 A 
ATOM      5  N   UNL     1      -3.452  13.879  24.775  0.00  0.00    +0.000 NA
ATOM      6  C   UNL     1      -3.872  12.672  24.384  0.00  0.00    +0.000 A 
ATOM      7  N   UNL     1      -4.971  12.166  25.036  0.00  0.00    +0.000 N 
ATOM      8  N   UNL     1      -3.311  11.934  23.427  0.00  0.00    +0.000 NA
ATOM      9  C   UNL     1      -2.280  12.458  22.770  0.00  0.00    +0.000 A 
ATOM     10  N   UNL     1      -1.739  11.748  21.781  0.00  0.00    +0.000 NA
ATOM     11  C   UNL     1      -0.723  12.251  21.025  0.00  0.00    +0.000 A 
ATOM     12  H   UNL     1      -5.087  12.615  25.932  0.00  0.00    +0.000 HD
ATOM     13  H   UNL     1      -4.966  11.157  25.008  0.00  0.00    +0.000 HD
ENDROOT
BRANCH   1  17
ATOM     14  C   UNL     1       2.897  15.168  18.690  0.00  0.00    +0.000 A 
ATOM     15  C   UNL     1       3.179  14.143  19.596  0.00  0.00    +0.000 A 
ATOM     16  C   UNL     1       2.200  13.681  20.473  0.00  0.00    +0.000 A 
ATOM     17  C   UNL     1       0.896  14.214  20.476  0.00  0.00    +0.000 A 
ATOM     18  C   UNL     1       0.670  15.315  19.637  0.00  0.00    +0.000 A 
ATOM     19  C   UNL     1       1.660  15.822  18.767  0.00  0.00    +0.000 A 
BRANCH  14  21
ATOM     20  C   UNL     1       5.133  14.998  17.984  0.00  0.00    +0.000 C 
ATOM     21  O   UNL     1       3.816  15.503  17.733  0.00  0.00    +0.000 OA
ENDBRANCH  14  21
BRANCH  19  22
ATOM     22  O   UNL     1       1.200  16.880  18.034  0.00  0.00    +0.000 OA
ATOM     23  C   UNL     1      -0.048  17.475  18.352  0.00  0.00    +0.000 C 
ENDBRANCH  19  22
ENDBRANCH   1  17
BRANCH  11  24
ATOM     24  N   UNL     1      -0.251  11.427  19.983  0.00  0.00    +0.000 N 
ATOM     25  C   UNL     1      -0.927  10.915  18.908  0.00  0.00    +0.000 C 
ATOM     26  O   UNL     1      -0.343  10.142  18.153  0.00  0.00    +0.000 OA
ATOM     27  N   UNL     1      -2.214  11.313  18.741  0.00  0.00    +0.000 N 
ATOM     28  H   UNL     1       0.712  11.128  19.993  0.00  0.00    +0.000 HD
ATOM     29  H   UNL     1      -2.556  11.947  19.460  0.00  0.00    +0.000 HD
BRANCH  27  30
ATOM     30  C   UNL     1      -3.135  10.946  17.661  0.00  0.00    +0.000 C 
ATOM     31  C   UNL     1      -2.517  11.254  16.290  0.00  0.00    +0.000 C 
ATOM     32  C   UNL     1      -3.395   9.430  17.748  0.00  0.00    +0.000 C 
ATOM     33  C   UNL     1      -4.477  11.677  17.816  0.00  0.00    +0.000 C 
ENDBRANCH  27  30
ENDBRANCH  11  24
TORSDOF 5
ENDMDL
MODEL 6
REMARK VINA RESULT:      -7.2      4.470      7.903
REMARK  Name = 
REMARK  10 active torsions:
REMARK  status: ('A' for Active; 'I' for Inactive)
REMARK    1  A    between atoms: C_1  and  O_2
REMARK    2  A    between atoms: O_2  and  C_3
REMARK    3  A    between atoms: C_6  and  C_7
REMARK    4  A    between atoms: C_17  and  N_18
REMARK    5  A    between atoms: N_21  and  C_22
REMARK    6  A    between atoms: C_22  and  C_23
REMARK    7  A    between atoms: C_22  and  C_24
REMARK    8  A    between atoms: C_22  and  C_25
REMARK    9  A    between atoms: C_27  and  O_28
REMARK   10  A    between atoms: O_28  and  C_29
REMARK                            x       y       z     vdW  Elec       q    Type
REMARK                         _______ _______ _______ _____ _____    ______ ____
ROOT
ATOM      1  C   UNL     1       0.635  12.711  19.375  0.00  0.00    +0.000 A 
ATOM      2  C   UNL     1       1.777  13.393  18.909  0.00  0.00    +0.000 A 
ATOM      3  C   UNL     1       1.727  14.745  18.567  0.00  0.00    +0.000 A 
ATOM      4  C   UNL     1       2.792  15.444  18.027  0.00  0.00    +0.000 A 
ATOM      5  N   UNL     1       2.706  16.728  17.666  0.00  0.00    +0.000 NA
ATOM      6  C   UNL     1       1.522  17.316  17.863  0.00  0.00    +0.000 A 
ATOM      7  N   UNL     1       1.416  18.627  17.466  0.00  0.00    +0.000 N 
ATOM      8  N   UNL     1       0.455  16.735  18.410  0.00  0.00    +0.000 NA
ATOM      9  C   UNL     1       0.556  15.451  18.742  0.00  0.00    +0.000 A 
ATOM     10  N   UNL     1      -0.518  14.846  19.248  0.00  0.00    +0.000 NA
ATOM     11  C   UNL     1      -0.503  13.517  19.550  0.00  0.00    +0.000 A 
ATOM     12  H   UNL     1       2.330  19.053  17.406  0.00  0.00    +0.000 HD
ATOM     13  H   UNL     1       0.706  19.104  18.002  0.00  0.00    +0.000 HD
ENDROOT
BRANCH   1  17
ATOM     14  C   UNL     1       1.517   8.538  20.046  0.00  0.00    +0.000 A 
ATOM     15  C   UNL     1       1.594   9.102  18.770  0.00  0.00    +0.000 A 
ATOM     16  C   UNL     1       1.226  10.428  18.557  0.00  0.00    +0.000 A 
ATOM     17  C   UNL     1       0.775  11.251  19.607  0.00  0.00    +0.000 A 
ATOM     18  C   UNL     1       0.600  10.632  20.854  0.00  0.00    +0.000 A 
ATOM     19  C   UNL     1       0.933   9.278  21.082  0.00  0.00    +0.000 A 
BRANCH  14  21
ATOM     20  C   UNL     1       2.326   6.554  19.076  0.00  0.00    +0.000 C 
ATOM     21  O   UNL     1       2.027   7.288  20.270  0.00  0.00    +0.000 OA
ENDBRANCH  14  21
BRANCH  19  22
ATOM     22  O   UNL     1       0.697   8.907  22.377  0.00  0.00    +0.000 OA
ATOM     23  C   UNL     1      -0.120   9.715  23.209  0.00  0.00    +0.000 C 
ENDBRANCH  19  22
ENDBRANCH   1  17
BRANCH  11  24
ATOM     24  N   UNL     1      -1.706  12.975  20.047  0.00  0.00    +0.000 N 
ATOM     25  C   UNL     1      -2.668  12.252  19.392  0.00  0.00    +0.000 C 
ATOM     26  O   UNL     1      -3.691  11.943  19.997  0.00  0.00    +0.000 OA
ATOM     27  N   UNL     1      -2.414  11.912  18.102  0.00  0.00    +0.000 N 
ATOM     28  H   UNL     1      -1.950  13.129  21.013  0.00  0.00    +0.000 HD
ATOM     29  H   UNL     1      -1.526  12.256  17.742  0.00  0.00    +0.000 HD
BRANCH  27  30
ATOM     30  C   UNL     1      -3.253  11.116  17.202  0.00  0.00    +0.000 C 
ATOM     31  C   UNL     1      -3.387   9.675  17.713  0.00  0.00    +0.000 C 
ATOM     32  C   UNL     1      -4.656  11.753  17.168  0.00  0.00    +0.000 C 
ATOM     33  C   UNL     1      -2.683  11.124  15.776  0.00  0.00    +0.000 C 
ENDBRANCH  27  30
ENDBRANCH  11  24
TORSDOF 5
ENDMDL
MODEL 7
REMARK VINA RESULT:      -7.2      3.288      6.651
REMARK  Name = 
REMARK  10 active torsions:
REMARK  status: ('A' for Active; 'I' for Inactive)
REMARK    1  A    between atoms: C_1  and  O_2
REMARK    2  A    between atoms: O_2  and  C_3
REMARK    3  A    between atoms: C_6  and  C_7
REMARK    4  A    between atoms: C_17  and  N_18
REMARK    5  A    between atoms: N_21  and  C_22
REMARK    6  A    between atoms: C_22  and  C_23
REMARK    7  A    between atoms: C_22  and  C_24
REMARK    8  A    between atoms: C_22  and  C_25
REMARK    9  A    between atoms: C_27  and  O_28
REMARK   10  A    between atoms: O_28  and  C_29
REMARK                            x       y       z     vdW  Elec       q    Type
REMARK                         _______ _______ _______ _____ _____    ______ ____
ROOT
ATOM      1  C   UNL     1       2.966   7.038  18.291  0.00  0.00    +0.000 A 
ATOM      2  C   UNL     1       4.200   7.604  17.912  0.00  0.00    +0.000 A 
ATOM      3  C   UNL     1       5.169   6.853  17.245  0.00  0.00    +0.000 A 
ATOM      4  C   UNL     1       6.428   7.330  16.922  0.00  0.00    +0.000 A 
ATOM      5  N   UNL     1       7.355   6.578  16.322  0.00  0.00    +0.000 NA
ATOM      6  C   UNL     1       6.998   5.321  16.038  0.00  0.00    +0.000 A 
ATOM      7  N   UNL     1       7.956   4.531  15.450  0.00  0.00    +0.000 N 
ATOM      8  N   UNL     1       5.800   4.789  16.277  0.00  0.00    +0.000 NA
ATOM      9  C   UNL     1       4.900   5.548  16.893  0.00  0.00    +0.000 A 
ATOM     10  N   UNL     1       3.714   5.013  17.177  0.00  0.00    +0.000 NA
ATOM     11  C   UNL     1       2.768   5.714  17.865  0.00  0.00    +0.000 A 
ATOM     12  H   UNL     1       8.661   5.102  15.007  0.00  0.00    +0.000 HD
ATOM     13  H   UNL     1       7.525   3.801  14.901  0.00  0.00    +0.000 HD
ENDROOT
BRANCH   1  17
ATOM     14  C   UNL     1       0.705   9.702  20.829  0.00  0.00    +0.000 A 
ATOM     15  C   UNL     1       1.181   8.476  21.301  0.00  0.00    +0.000 A 
ATOM     16  C   UNL     1       1.836   7.592  20.447  0.00  0.00    +0.000 A 
ATOM     17  C   UNL     1       2.054   7.897  19.089  0.00  0.00    +0.000 A 
ATOM     18  C   UNL     1       1.470   9.080  18.613  0.00  0.00    +0.000 A 
ATOM     19  C   UNL     1       0.770   9.972  19.456  0.00  0.00    +0.000 A 
BRANCH  14  21
ATOM     20  C   UNL     1      -0.447  10.050  22.849  0.00  0.00    +0.000 C 
ATOM     21  O   UNL     1       0.205  10.622  21.709  0.00  0.00    +0.000 OA
ENDBRANCH  14  21
BRANCH  19  22
ATOM     22  O   UNL     1       0.312  11.064  18.772  0.00  0.00    +0.000 OA
ATOM     23  C   UNL     1      -1.060  11.159  18.424  0.00  0.00    +0.000 C 
ENDBRANCH  19  22
ENDBRANCH   1  17
BRANCH  11  24
ATOM     24  N   UNL     1       1.564   5.036  18.140  0.00  0.00    +0.000 N 
ATOM     25  C   UNL     1       1.346   3.939  18.930  0.00  0.00    +0.000 C 
ATOM     26  O   UNL     1       0.221   3.449  18.970  0.00  0.00    +0.000 OA
ATOM     27  N   UNL     1       2.406   3.468  19.638  0.00  0.00    +0.000 N 
ATOM     28  H   UNL     1       0.712   5.353  17.703  0.00  0.00    +0.000 HD
ATOM     29  H   UNL     1       3.274   3.977  19.486  0.00  0.00    +0.000 HD
BRANCH  27  30
ATOM     30  C   UNL     1       2.430   2.343  20.577  0.00  0.00    +0.000 C 
ATOM     31  C   UNL     1       1.507   2.613  21.774  0.00  0.00    +0.000 C 
ATOM     32  C   UNL     1       1.916   1.092  19.839  0.00  0.00    +0.000 C 
ATOM     33  C   UNL     1       3.861   2.066  21.060  0.00  0.00    +0.000 C 
ENDBRANCH  27  30
ENDBRANCH  11  24
TORSDOF 5
ENDMDL
MODEL 8
REMARK VINA RESULT:      -7.2      7.436      9.646
REMARK  Name = 
REMARK  10 active torsions:
REMARK  status: ('A' for Active; 'I' for Inactive)
REMARK    1  A    between atoms: C_1  and  O_2
REMARK    2  A    between atoms: O_2  and  C_3
REMARK    3  A    between atoms: C_6  and  C_7
REMARK    4  A    between atoms: C_17  and  N_18
REMARK    5  A    between atoms: N_21  and  C_22
REMARK    6  A    between atoms: C_22  and  C_23
REMARK    7  A    between atoms: C_22  and  C_24
REMARK    8  A    between atoms: C_22  and  C_25
REMARK    9  A    between atoms: C_27  and  O_28
REMARK   10  A    between atoms: O_28  and  C_29
REMARK                            x       y       z     vdW  Elec       q    Type
REMARK                         _______ _______ _______ _____ _____    ______ ____
ROOT
ATOM      1  C   UNL     1      -0.883  14.092  20.804  0.00  0.00    +0.000 A 
ATOM      2  C   UNL     1      -1.515  14.772  21.865  0.00  0.00    +0.000 A 
ATOM      3  C   UNL     1      -2.378  14.110  22.740  0.00  0.00    +0.000 A 
ATOM      4  C   UNL     1      -3.090  14.741  23.746  0.00  0.00    +0.000 A 
ATOM      5  N   UNL     1      -3.944  14.092  24.543  0.00  0.00    +0.000 NA
ATOM      6  C   UNL     1      -4.074  12.781  24.322  0.00  0.00    +0.000 A 
ATOM      7  N   UNL     1      -4.974  12.112  25.117  0.00  0.00    +0.000 N 
ATOM      8  N   UNL     1      -3.404  12.084  23.405  0.00  0.00    +0.000 NA
ATOM      9  C   UNL     1      -2.575  12.753  22.609  0.00  0.00    +0.000 A 
ATOM     10  N   UNL     1      -1.933  12.075  21.658  0.00  0.00    +0.000 NA
ATOM     11  C   UNL     1      -1.118  12.708  20.767  0.00  0.00    +0.000 A 
ATOM     12  H   UNL     1      -5.145  12.628  25.967  0.00  0.00    +0.000 HD
ATOM     13  H   UNL     1      -4.721  11.138  25.198  0.00  0.00    +0.000 HD
ENDROOT
BRANCH   1  17
ATOM     14  C   UNL     1       1.336  16.865  18.349  0.00  0.00    +0.000 A 
ATOM     15  C   UNL     1      -0.039  16.685  18.181  0.00  0.00    +0.000 A 
ATOM     16  C   UNL     1      -0.724  15.726  18.923  0.00  0.00    +0.000 A 
ATOM     17  C   UNL     1      -0.071  14.915  19.872  0.00  0.00    +0.000 A 
ATOM     18  C   UNL     1       1.325  15.038  19.942  0.00  0.00    +0.000 A 
ATOM     19  C   UNL     1       2.043  15.978  19.171  0.00  0.00    +0.000 A 
BRANCH  14  21
ATOM     20  C   UNL     1       1.138  18.631  16.808  0.00  0.00    +0.000 C 
ATOM     21  O   UNL     1       1.966  17.911  17.729  0.00  0.00    +0.000 OA
ENDBRANCH  14  21
BRANCH  19  22
ATOM     22  O   UNL     1       3.385  15.927  19.426  0.00  0.00    +0.000 OA
ATOM     23  C   UNL     1       4.140  14.792  19.030  0.00  0.00    +0.000 C 
ENDBRANCH  19  22
ENDBRANCH   1  17
BRANCH  11  24
ATOM     24  N   UNL     1      -0.518  11.897  19.783  0.00  0.00    +0.000 N 
ATOM     25  C   UNL     1      -1.095  11.242  18.727  0.00  0.00    +0.000 C 
ATOM     26  O   UNL     1      -0.398  10.512  18.028  0.00  0.00    +0.000 OA
ATOM     27  N   UNL     1      -2.419  11.459  18.515  0.00  0.00    +0.000 N 
ATOM     28  H   UNL     1       0.475  11.727  19.827  0.00  0.00    +0.000 HD
ATOM     29  H   UNL     1      -2.858  12.081  19.191  0.00  0.00    +0.000 HD
BRANCH  27  30
ATOM     30  C   UNL     1      -3.258  10.916  17.442  0.00  0.00    +0.000 C 
ATOM     31  C   UNL     1      -3.497   9.414  17.645  0.00  0.00    +0.000 C 
ATOM     32  C   UNL     1      -4.619  11.636  17.489  0.00  0.00    +0.000 C 
ATOM     33  C   UNL     1      -2.621  11.174  16.069  0.00  0.00    +0.000 C 
ENDBRANCH  27  30
ENDBRANCH  11  24
TORSDOF 5
ENDMDL
MODEL 9
REMARK VINA RESULT:      -7.1      0.804      1.218
REMARK  Name = 
REMARK  10 active torsions:
REMARK  status: ('A' for Active; 'I' for Inactive)
REMARK    1  A    between atoms: C_1  and  O_2
REMARK    2  A    between atoms: O_2  and  C_3
REMARK    3  A    between atoms: C_6  and  C_7
REMARK    4  A    between atoms: C_17  and  N_18
REMARK    5  A    between atoms: N_21  and  C_22
REMARK    6  A    between atoms: C_22  and  C_23
REMARK    7  A    between atoms: C_22  and  C_24
REMARK    8  A    between atoms: C_22  and  C_25
REMARK    9  A    between atoms: C_27  and  O_28
REMARK   10  A    between atoms: O_28  and  C_29
REMARK                            x       y       z     vdW  Elec       q    Type
REMARK                         _______ _______ _______ _____ _____    ______ ____
ROOT
ATOM      1  C   UNL     1       2.961   6.938  18.868  0.00  0.00    +0.000 A 
ATOM      2  C   UNL     1       2.566   8.049  18.098  0.00  0.00    +0.000 A 
ATOM      3  C   UNL     1       1.605   8.950  18.561  0.00  0.00    +0.000 A 
ATOM      4  C   UNL     1       1.118  10.009  17.815  0.00  0.00    +0.000 A 
ATOM      5  N   UNL     1       0.165  10.832  18.264  0.00  0.00    +0.000 NA
ATOM      6  C   UNL     1      -0.298  10.580  19.492  0.00  0.00    +0.000 A 
ATOM      7  N   UNL     1      -1.300  11.403  19.949  0.00  0.00    +0.000 N 
ATOM      8  N   UNL     1       0.136   9.609  20.295  0.00  0.00    +0.000 NA
ATOM      9  C   UNL     1       1.070   8.790  19.820  0.00  0.00    +0.000 A 
ATOM     10  N   UNL     1       1.480   7.788  20.597  0.00  0.00    +0.000 NA
ATOM     11  C   UNL     1       2.386   6.873  20.149  0.00  0.00    +0.000 A 
ATOM     12  H   UNL     1      -1.299  12.275  19.442  0.00  0.00    +0.000 HD
ATOM     13  H   UNL     1      -1.294  11.442  20.958  0.00  0.00    +0.000 HD
ENDROOT
BRANCH   1  17
ATOM     14  C   UNL     1       5.663   4.427  16.622  0.00  0.00    +0.000 A 
ATOM     15  C   UNL     1       4.277   4.275  16.525  0.00  0.00    +0.000 A 
ATOM     16  C   UNL     1       3.422   5.036  17.319  0.00  0.00    +0.000 A 
ATOM     17  C   UNL     1       3.911   5.988  18.235  0.00  0.00    +0.000 A 
ATOM     18  C   UNL     1       5.303   6.043  18.394  0.00  0.00    +0.000 A 
ATOM     19  C   UNL     1       6.187   5.253  17.625  0.00  0.00    +0.000 A 
BRANCH  14  21
ATOM     20  C   UNL     1       6.432   4.324  14.402  0.00  0.00    +0.000 C 
ATOM     21  O   UNL     1       6.482   3.789  15.731  0.00  0.00    +0.000 OA
ENDBRANCH  14  21
BRANCH  19  22
ATOM     22  O   UNL     1       7.494   5.496  17.943  0.00  0.00    +0.000 OA
ATOM     23  C   UNL     1       7.856   5.794  19.282  0.00  0.00    +0.000 C 
ENDBRANCH  19  22
ENDBRANCH   1  17
BRANCH  11  24
ATOM     24  N   UNL     1       2.721   5.835  21.042  0.00  0.00    +0.000 N 
ATOM     25  C   UNL     1       2.440   4.497  20.963  0.00  0.00    +0.000 C 
ATOM     26  O   UNL     1       2.755   3.768  21.900  0.00  0.00    +0.000 OA
ATOM     27  N   UNL     1       1.835   4.059  19.828  0.00  0.00    +0.000 N 
ATOM     28  H   UNL     1       3.224   6.059  21.887  0.00  0.00    +0.000 HD
ATOM     29  H   UNL     1       1.629   4.791  19.151  0.00  0.00    +0.000 HD
BRANCH  27  30
ATOM     30  C   UNL     1       1.467   2.684  19.480  0.00  0.00    +0.000 C 
ATOM     31  C   UNL     1       2.695   1.893  19.011  0.00  0.00    +0.000 C 
ATOM     32  C   UNL     1       0.904   2.005  20.744  0.00  0.00    +0.000 C 
ATOM     33  C   UNL     1       0.378   2.668  18.397  0.00  0.00    +0.000 C 
ENDBRANCH  27  30
ENDBRANCH  11  24
TORSDOF 5
ENDMDL
