MODEL 1
REMARK VINA RESULT:      -7.1      0.000      0.000
REMARK  Name = 
REMARK  8 active torsions:
REMARK  status: ('A' for Active; 'I' for Inactive)
REMARK    1  A    between atoms: C_2  and  C_3
REMARK    2  A    between atoms: N_5  and  C_6
REMARK    3  A    between atoms: C_6  and  C_7
REMARK    4  A    between atoms: N_15  and  C_16
REMARK    5  A    between atoms: C_16  and  C_17
REMARK    6  A    between atoms: C_17  and  C_18
REMARK    7  A    between atoms: C_18  and  C_19
REMARK    8  A    between atoms: C_19  and  O_20
REMARK                            x       y       z     vdW  Elec       q    Type
REMARK                         _______ _______ _______ _____ _____    ______ ____
ROOT
ATOM      1  C   UNL     1       2.413   6.430  18.605  0.00  0.00    +0.000 A 
ATOM      2  N   UNL     1       2.320   7.646  18.099  0.00  0.00    +0.000 NA
ATOM      3  C   UNL     1       1.766   8.426  19.075  0.00  0.00    +0.000 A 
ATOM      4  C   UNL     1       1.406   9.782  19.022  0.00  0.00    +0.000 A 
ATOM      5  C   UNL     1       0.814  10.370  20.144  0.00  0.00    +0.000 A 
ATOM      6  C   UNL     1       0.587   9.621  21.297  0.00  0.00    +0.000 A 
ATOM      7  C   UNL     1       0.954   8.268  21.373  0.00  0.00    +0.000 A 
ATOM      8  C   UNL     1       1.550   7.693  20.238  0.00  0.00    +0.000 A 
ATOM      9  N   UNL     1       2.027   6.429  19.935  0.00  0.00    +0.000 N 
ENDROOT
BRANCH   1  10
ATOM     10  C   UNL     1       2.875   5.246  17.811  0.00  0.00    +0.000 C 
BRANCH  10  13
ATOM     11  C   UNL     1       6.439   5.190  18.486  0.00  0.00    +0.000 A 
ATOM     12  C   UNL     1       5.127   5.256  18.893  0.00  0.00    +0.000 A 
ATOM     13  N   UNL     1       4.331   5.160  17.775  0.00  0.00    +0.000 N 
ATOM     14  C   UNL     1       5.113   4.910  16.660  0.00  0.00    +0.000 A 
ATOM     15  C   UNL     1       4.777   4.653  15.319  0.00  0.00    +0.000 A 
ATOM     16  C   UNL     1       5.812   4.444  14.403  0.00  0.00    +0.000 A 
ATOM     17  C   UNL     1       7.143   4.494  14.801  0.00  0.00    +0.000 A 
ATOM     18  C   UNL     1       7.474   4.748  16.134  0.00  0.00    +0.000 A 
ATOM     19  C   UNL     1       6.450   4.949  17.085  0.00  0.00    +0.000 A 
BRANCH  11  21
ATOM     20  N   UNL     1       8.484   5.453  20.054  0.00  0.00    +0.000 NA
ATOM     21  C   UNL     1       7.568   5.329  19.346  0.00  0.00    +0.000 C 
ENDBRANCH  11  21
ENDBRANCH  10  13
ENDBRANCH   1  10
BRANCH   9  22
ATOM     22  C   UNL     1       2.022   5.298  20.846  0.00  0.00    +0.000 C 
BRANCH  22  23
ATOM     23  C   UNL     1       0.960   4.227  20.587  0.00  0.00    +0.000 C 
BRANCH  23  24
ATOM     24  C   UNL     1       1.481   2.787  20.565  0.00  0.00    +0.000 C 
BRANCH  24  25
ATOM     25  C   UNL     1       3.007   2.766  20.663  0.00  0.00    +0.000 C 
BRANCH  25  26
ATOM     26  O   UNL     1       3.569   2.133  19.523  0.00  0.00    +0.000 OA
ATOM     27  H   UNL     1       2.946   1.448  19.230  0.00  0.00    +0.000 HD
ENDBRANCH  25  26
ENDBRANCH  24  25
ENDBRANCH  23  24
ENDBRANCH  22  23
ENDBRANCH   9  22
TORSDOF 8
ENDMDL
MODEL 2
REMARK VINA RESULT:      -7.0      1.253      2.533
REMARK  Name = 
REMARK  8 active torsions:
REMARK  status: ('A' for Active; 'I' for Inactive)
REMARK    1  A    between atoms: C_2  and  C_3
REMARK    2  A    between atoms: N_5  and  C_6
REMARK    3  A    between atoms: C_6  and  C_7
REMARK    4  A    between atoms: N_15  and  C_16
REMARK    5  A    between atoms: C_16  and  C_17
REMARK    6  A    between atoms: C_17  and  C_18
REMARK    7  A    between atoms: C_18  and  C_19
REMARK    8  A    between atoms: C_19  and  O_20
REMARK                            x       y       z     vdW  Elec       q    Type
REMARK                         _______ _______ _______ _____ _____    ______ ____
ROOT
ATOM      1  C   UNL     1       2.442   5.917  18.414  0.00  0.00    +0.000 A 
ATOM      2  N   UNL     1       2.445   7.037  17.714  0.00  0.00    +0.000 NA
ATOM      3  C   UNL     1       1.998   8.018  18.554  0.00  0.00    +0.000 A 
ATOM      4  C   UNL     1       1.763   9.374  18.280  0.00  0.00    +0.000 A 
ATOM      5  C   UNL     1       1.264  10.194  19.298  0.00  0.00    +0.000 A 
ATOM      6  C   UNL     1       1.008   9.671  20.564  0.00  0.00    +0.000 A 
ATOM      7  C   UNL     1       1.251   8.321  20.860  0.00  0.00    +0.000 A 
ATOM      8  C   UNL     1       1.753   7.511  19.827  0.00  0.00    +0.000 A 
ATOM      9  N   UNL     1       2.101   6.174  19.732  0.00  0.00    +0.000 N 
ENDROOT
BRANCH   1  10
ATOM     10  C   UNL     1       2.766   4.580  17.823  0.00  0.00    +0.000 C 
BRANCH  10  13
ATOM     11  C   UNL     1       5.652   4.360  15.636  0.00  0.00    +0.000 A 
ATOM     12  C   UNL     1       4.296   4.352  15.860  0.00  0.00    +0.000 A 
ATOM     13  N   UNL     1       4.087   4.574  17.202  0.00  0.00    +0.000 N 
ATOM     14  C   UNL     1       5.292   4.847  17.827  0.00  0.00    +0.000 A 
ATOM     15  C   UNL     1       5.597   5.215  19.150  0.00  0.00    +0.000 A 
ATOM     16  C   UNL     1       6.939   5.417  19.490  0.00  0.00    +0.000 A 
ATOM     17  C   UNL     1       7.949   5.254  18.549  0.00  0.00    +0.000 A 
ATOM     18  C   UNL     1       7.642   4.891  17.235  0.00  0.00    +0.000 A 
ATOM     19  C   UNL     1       6.295   4.693  16.860  0.00  0.00    +0.000 A 
BRANCH  11  21
ATOM     20  N   UNL     1       6.779   3.858  13.358  0.00  0.00    +0.000 NA
ATOM     21  C   UNL     1       6.273   4.091  14.380  0.00  0.00    +0.000 C 
ENDBRANCH  11  21
ENDBRANCH  10  13
ENDBRANCH   1  10
BRANCH   9  22
ATOM     22  C   UNL     1       2.022   5.216  20.820  0.00  0.00    +0.000 C 
BRANCH  22  23
ATOM     23  C   UNL     1       0.995   4.092  20.658  0.00  0.00    +0.000 C 
BRANCH  23  24
ATOM     24  C   UNL     1       1.554   2.675  20.807  0.00  0.00    +0.000 C 
BRANCH  24  25
ATOM     25  C   UNL     1       3.024   2.717  21.225  0.00  0.00    +0.000 C 
BRANCH  25  26
ATOM     26  O   UNL     1       3.855   2.265  20.165  0.00  0.00    +0.000 OA
ATOM     27  H   UNL     1       4.485   1.626  20.537  0.00  0.00    +0.000 HD
ENDBRANCH  25  26
ENDBRANCH  24  25
ENDBRANCH  23  24
ENDBRANCH  22  23
ENDBRANCH   9  22
TORSDOF 8
ENDMDL
MODEL 3
REMARK VINA RESULT:      -6.9      1.980      6.664
REMARK  Name = 
REMARK  8 active torsions:
REMARK  status: ('A' for Active; 'I' for Inactive)
REMARK    1  A    between atoms: C_2  and  C_3
REMARK    2  A    between atoms: N_5  and  C_6
REMARK    3  A    between atoms: C_6  and  C_7
REMARK    4  A    between atoms: N_15  and  C_16
REMARK    5  A    between atoms: C_16  and  C_17
REMARK    6  A    between atoms: C_17  and  C_18
REMARK    7  A    between atoms: C_18  and  C_19
REMARK    8  A    between atoms: C_19  and  O_20
REMARK                            x       y       z     vdW  Elec       q    Type
REMARK                         _______ _______ _______ _____ _____    ______ ____
ROOT
ATOM      1  C   UNL     1       6.337   5.120  16.442  0.00  0.00    +0.000 A 
ATOM      2  N   UNL     1       7.154   5.746  15.615  0.00  0.00    +0.000 NA
ATOM      3  C   UNL     1       7.050   5.106  14.413  0.00  0.00    +0.000 A 
ATOM      4  C   UNL     1       7.752   5.345  13.222  0.00  0.00    +0.000 A 
ATOM      5  C   UNL     1       7.504   4.530  12.113  0.00  0.00    +0.000 A 
ATOM      6  C   UNL     1       6.570   3.498  12.190  0.00  0.00    +0.000 A 
ATOM      7  C   UNL     1       5.848   3.253  13.369  0.00  0.00    +0.000 A 
ATOM      8  C   UNL     1       6.109   4.082  14.473  0.00  0.00    +0.000 A 
ATOM      9  N   UNL     1       5.620   4.146  15.767  0.00  0.00    +0.000 N 
ENDROOT
BRANCH   1  10
ATOM     10  C   UNL     1       6.235   5.450  17.900  0.00  0.00    +0.000 C 
BRANCH  10  13
ATOM     11  C   UNL     1       3.226   7.457  18.183  0.00  0.00    +0.000 A 
ATOM     12  C   UNL     1       4.423   7.141  17.584  0.00  0.00    +0.000 A 
ATOM     13  N   UNL     1       4.942   6.041  18.227  0.00  0.00    +0.000 N 
ATOM     14  C   UNL     1       4.033   5.568  19.158  0.00  0.00    +0.000 A 
ATOM     15  C   UNL     1       4.054   4.440  19.998  0.00  0.00    +0.000 A 
ATOM     16  C   UNL     1       2.970   4.229  20.855  0.00  0.00    +0.000 A 
ATOM     17  C   UNL     1       1.897   5.112  20.884  0.00  0.00    +0.000 A 
ATOM     18  C   UNL     1       1.878   6.231  20.048  0.00  0.00    +0.000 A 
ATOM     19  C   UNL     1       2.953   6.463  19.162  0.00  0.00    +0.000 A 
BRANCH  11  21
ATOM     20  N   UNL     1       1.769   9.511  17.577  0.00  0.00    +0.000 NA
ATOM     21  C   UNL     1       2.418   8.584  17.848  0.00  0.00    +0.000 C 
ENDBRANCH  11  21
ENDBRANCH  10  13
ENDBRANCH   1  10
BRANCH   9  22
ATOM     22  C   UNL     1       4.600   3.270  16.314  0.00  0.00    +0.000 C 
BRANCH  22  23
ATOM     23  C   UNL     1       3.189   3.856  16.416  0.00  0.00    +0.000 C 
BRANCH  23  24
ATOM     24  C   UNL     1       2.210   3.048  17.272  0.00  0.00    +0.000 C 
BRANCH  24  25
ATOM     25  C   UNL     1       2.924   1.874  17.942  0.00  0.00    +0.000 C 
BRANCH  25  26
ATOM     26  O   UNL     1       2.113   1.323  18.971  0.00  0.00    +0.000 OA
ATOM     27  H   UNL     1       1.197   1.310  18.648  0.00  0.00    +0.000 HD
ENDBRANCH  25  26
ENDBRANCH  24  25
ENDBRANCH  23  24
ENDBRANCH  22  23
ENDBRANCH   9  22
TORSDOF 8
ENDMDL
MODEL 4
REMARK VINA RESULT:      -6.8      3.698      7.073
REMARK  Name = 
REMARK  8 active torsions:
REMARK  status: ('A' for Active; 'I' for Inactive)
REMARK    1  A    between atoms: C_2  and  C_3
REMARK    2  A    between atoms: N_5  and  C_6
REMARK    3  A    between atoms: C_6  and  C_7
REMARK    4  A    between atoms: N_15  and  C_16
REMARK    5  A    between atoms: C_16  and  C_17
REMARK    6  A    between atoms: C_17  and  C_18
REMARK    7  A    between atoms: C_18  and  C_19
REMARK    8  A    between atoms: C_19  and  O_20
REMARK                            x       y       z     vdW  Elec       q    Type
REMARK                         _______ _______ _______ _____ _____    ______ ____
ROOT
ATOM      1  C   UNL     1       5.150   5.205  16.254  0.00  0.00    +0.000 A 
ATOM      2  N   UNL     1       4.702   4.285  15.419  0.00  0.00    +0.000 NA
ATOM      3  C   UNL     1       5.584   4.252  14.376  0.00  0.00    +0.000 A 
ATOM      4  C   UNL     1       5.530   3.486  13.200  0.00  0.00    +0.000 A 
ATOM      5  C   UNL     1       6.537   3.645  12.242  0.00  0.00    +0.000 A 
ATOM      6  C   UNL     1       7.577   4.547  12.454  0.00  0.00    +0.000 A 
ATOM      7  C   UNL     1       7.655   5.310  13.629  0.00  0.00    +0.000 A 
ATOM      8  C   UNL     1       6.636   5.138  14.582  0.00  0.00    +0.000 A 
ATOM      9  N   UNL     1       6.371   5.697  15.822  0.00  0.00    +0.000 N 
ENDROOT
BRANCH   1  10
ATOM     10  C   UNL     1       4.406   5.627  17.484  0.00  0.00    +0.000 C 
BRANCH  10  13
ATOM     11  C   UNL     1       4.382   2.822  19.784  0.00  0.00    +0.000 A 
ATOM     12  C   UNL     1       4.999   3.893  19.182  0.00  0.00    +0.000 A 
ATOM     13  N   UNL     1       4.090   4.487  18.337  0.00  0.00    +0.000 N 
ATOM     14  C   UNL     1       2.852   3.883  18.478  0.00  0.00    +0.000 A 
ATOM     15  C   UNL     1       1.599   4.173  17.910  0.00  0.00    +0.000 A 
ATOM     16  C   UNL     1       0.513   3.359  18.245  0.00  0.00    +0.000 A 
ATOM     17  C   UNL     1       0.664   2.285  19.115  0.00  0.00    +0.000 A 
ATOM     18  C   UNL     1       1.909   2.001  19.680  0.00  0.00    +0.000 A 
ATOM     19  C   UNL     1       3.021   2.813  19.370  0.00  0.00    +0.000 A 
BRANCH  11  21
ATOM     20  N   UNL     1       5.546   1.154  21.388  0.00  0.00    +0.000 NA
ATOM     21  C   UNL     1       5.019   1.906  20.673  0.00  0.00    +0.000 C 
ENDBRANCH  11  21
ENDBRANCH  10  13
ENDBRANCH   1  10
BRANCH   9  22
ATOM     22  C   UNL     1       7.200   6.690  16.480  0.00  0.00    +0.000 C 
BRANCH  22  23
ATOM     23  C   UNL     1       7.686   6.338  17.888  0.00  0.00    +0.000 C 
BRANCH  23  24
ATOM     24  C   UNL     1       8.268   7.508  18.686  0.00  0.00    +0.000 C 
BRANCH  24  25
ATOM     25  C   UNL     1       8.091   8.820  17.923  0.00  0.00    +0.000 C 
BRANCH  25  26
ATOM     26  O   UNL     1       8.886   9.844  18.504  0.00  0.00    +0.000 OA
ATOM     27  H   UNL     1       9.648   9.993  17.919  0.00  0.00    +0.000 HD
ENDBRANCH  25  26
ENDBRANCH  24  25
ENDBRANCH  23  24
ENDBRANCH  22  23
ENDBRANCH   9  22
TORSDOF 8
ENDMDL
MODEL 5
REMARK VINA RESULT:      -6.8      1.327      1.367
REMARK  Name = 
REMARK  8 active torsions:
REMARK  status: ('A' for Active; 'I' for Inactive)
REMARK    1  A    between atoms: C_2  and  C_3
REMARK    2  A    between atoms: N_5  and  C_6
REMARK    3  A    between atoms: C_6  and  C_7
REMARK    4  A    between atoms: N_15  and  C_16
REMARK    5  A    between atoms: C_16  and  C_17
REMARK    6  A    between atoms: C_17  and  C_18
REMARK    7  A    between atoms: C_18  and  C_19
REMARK    8  A    between atoms: C_19  and  O_20
REMARK                            x       y       z     vdW  Elec       q    Type
REMARK                         _______ _______ _______ _____ _____    ______ ____
ROOT
ATOM      1  C   UNL     1       2.579   6.484  18.607  0.00  0.00    +0.000 A 
ATOM      2  N   UNL     1       2.363   7.712  18.170  0.00  0.00    +0.000 NA
ATOM      3  C   UNL     1       1.709   8.368  19.174  0.00  0.00    +0.000 A 
ATOM      4  C   UNL     1       1.204   9.677  19.190  0.00  0.00    +0.000 A 
ATOM      5  C   UNL     1       0.529  10.129  20.329  0.00  0.00    +0.000 A 
ATOM      6  C   UNL     1       0.364   9.292  21.431  0.00  0.00    +0.000 A 
ATOM      7  C   UNL     1       0.875   7.985  21.438  0.00  0.00    +0.000 A 
ATOM      8  C   UNL     1       1.552   7.547  20.287  0.00  0.00    +0.000 A 
ATOM      9  N   UNL     1       2.170   6.362  19.924  0.00  0.00    +0.000 N 
ENDROOT
BRANCH   1  10
ATOM     10  C   UNL     1       3.183   5.407  17.758  0.00  0.00    +0.000 C 
BRANCH  10  13
ATOM     11  C   UNL     1       6.498   6.797  17.271  0.00  0.00    +0.000 A 
ATOM     12  C   UNL     1       5.326   6.674  17.978  0.00  0.00    +0.000 A 
ATOM     13  N   UNL     1       4.532   5.757  17.327  0.00  0.00    +0.000 N 
ATOM     14  C   UNL     1       5.231   5.195  16.272  0.00  0.00    +0.000 A 
ATOM     15  C   UNL     1       4.897   4.170  15.369  0.00  0.00    +0.000 A 
ATOM     16  C   UNL     1       5.827   3.823  14.385  0.00  0.00    +0.000 A 
ATOM     17  C   UNL     1       7.051   4.476  14.293  0.00  0.00    +0.000 A 
ATOM     18  C   UNL     1       7.380   5.493  15.192  0.00  0.00    +0.000 A 
ATOM     19  C   UNL     1       6.466   5.856  16.205  0.00  0.00    +0.000 A 
BRANCH  11  21
ATOM     20  N   UNL     1       8.401   8.456  17.852  0.00  0.00    +0.000 NA
ATOM     21  C   UNL     1       7.549   7.709  17.585  0.00  0.00    +0.000 C 
ENDBRANCH  11  21
ENDBRANCH  10  13
ENDBRANCH   1  10
BRANCH   9  22
ATOM     22  C   UNL     1       2.271   5.185  20.768  0.00  0.00    +0.000 C 
BRANCH  22  23
ATOM     23  C   UNL     1       1.115   4.186  20.676  0.00  0.00    +0.000 C 
BRANCH  23  24
ATOM     24  C   UNL     1       1.529   2.712  20.670  0.00  0.00    +0.000 C 
BRANCH  24  25
ATOM     25  C   UNL     1       1.820   2.240  19.245  0.00  0.00    +0.000 C 
BRANCH  25  26
ATOM     26  O   UNL     1       0.702   2.489  18.403  0.00  0.00    +0.000 OA
ATOM     27  H   UNL     1       1.009   3.036  17.661  0.00  0.00    +0.000 HD
ENDBRANCH  25  26
ENDBRANCH  24  25
ENDBRANCH  23  24
ENDBRANCH  22  23
ENDBRANCH   9  22
TORSDOF 8
ENDMDL
MODEL 6
REMARK VINA RESULT:      -6.8      5.609      8.505
REMARK  Name = 
REMARK  8 active torsions:
REMARK  status: ('A' for Active; 'I' for Inactive)
REMARK    1  A    between atoms: C_2  and  C_3
REMARK    2  A    between atoms: N_5  and  C_6
REMARK    3  A    between atoms: C_6  and  C_7
REMARK    4  A    between atoms: N_15  and  C_16
REMARK    5  A    between atoms: C_16  and  C_17
REMARK    6  A    between atoms: C_17  and  C_18
REMARK    7  A    between atoms: C_18  and  C_19
REMARK    8  A    between atoms: C_19  and  O_20
REMARK                            x       y       z     vdW  Elec       q    Type
REMARK                         _______ _______ _______ _____ _____    ______ ____
ROOT
ATOM      1  C   UNL     1      -2.610  11.793  18.619  0.00  0.00    +0.000 A 
ATOM      2  N   UNL     1      -3.164  12.507  19.582  0.00  0.00    +0.000 NA
ATOM      3  C   UNL     1      -4.516  12.391  19.417  0.00  0.00    +0.000 A 
ATOM      4  C   UNL     1      -5.549  13.003  20.143  0.00  0.00    +0.000 A 
ATOM      5  C   UNL     1      -6.875  12.763  19.768  0.00  0.00    +0.000 A 
ATOM      6  C   UNL     1      -7.164  11.928  18.691  0.00  0.00    +0.000 A 
ATOM      7  C   UNL     1      -6.144  11.295  17.962  0.00  0.00    +0.000 A 
ATOM      8  C   UNL     1      -4.818  11.546  18.353  0.00  0.00    +0.000 A 
ATOM      9  N   UNL     1      -3.581  11.125  17.892  0.00  0.00    +0.000 N 
ENDROOT
BRANCH   1  10
ATOM     10  C   UNL     1      -1.131  11.745  18.383  0.00  0.00    +0.000 C 
BRANCH  10  13
ATOM     11  C   UNL     1       0.123   9.947  21.273  0.00  0.00    +0.000 A 
ATOM     12  C   UNL     1      -0.716  10.862  20.684  0.00  0.00    +0.000 A 
ATOM     13  N   UNL     1      -0.465  10.858  19.331  0.00  0.00    +0.000 N 
ATOM     14  C   UNL     1       0.444   9.859  19.024  0.00  0.00    +0.000 A 
ATOM     15  C   UNL     1       0.952   9.402  17.795  0.00  0.00    +0.000 A 
ATOM     16  C   UNL     1       1.885   8.361  17.809  0.00  0.00    +0.000 A 
ATOM     17  C   UNL     1       2.307   7.792  19.005  0.00  0.00    +0.000 A 
ATOM     18  C   UNL     1       1.799   8.247  20.224  0.00  0.00    +0.000 A 
ATOM     19  C   UNL     1       0.846   9.288  20.240  0.00  0.00    +0.000 A 
BRANCH  11  21
ATOM     20  N   UNL     1       0.291   9.533  23.825  0.00  0.00    +0.000 NA
ATOM     21  C   UNL     1       0.219   9.713  22.677  0.00  0.00    +0.000 C 
ENDBRANCH  11  21
ENDBRANCH  10  13
ENDBRANCH   1  10
BRANCH   9  22
ATOM     22  C   UNL     1      -3.374  10.216  16.780  0.00  0.00    +0.000 C 
BRANCH  22  23
ATOM     23  C   UNL     1      -3.064  10.861  15.428  0.00  0.00    +0.000 C 
BRANCH  23  24
ATOM     24  C   UNL     1      -2.793   9.879  14.285  0.00  0.00    +0.000 C 
BRANCH  24  25
ATOM     25  C   UNL     1      -3.935   9.909  13.269  0.00  0.00    +0.000 C 
BRANCH  25  26
ATOM     26  O   UNL     1      -3.439   9.670  11.959  0.00  0.00    +0.000 OA
ATOM     27  H   UNL     1      -3.990   8.977  11.558  0.00  0.00    +0.000 HD
ENDBRANCH  25  26
ENDBRANCH  24  25
ENDBRANCH  23  24
ENDBRANCH  22  23
ENDBRANCH   9  22
TORSDOF 8
ENDMDL
MODEL 7
REMARK VINA RESULT:      -6.8      2.341      7.362
REMARK  Name = 
REMARK  8 active torsions:
REMARK  status: ('A' for Active; 'I' for Inactive)
REMARK    1  A    between atoms: C_2  and  C_3
REMARK    2  A    between atoms: N_5  and  C_6
REMARK    3  A    between atoms: C_6  and  C_7
REMARK    4  A    between atoms: N_15  and  C_16
REMARK    5  A    between atoms: C_16  and  C_17
REMARK    6  A    between atoms: C_17  and  C_18
REMARK    7  A    between atoms: C_18  and  C_19
REMARK    8  A    between atoms: C_19  and  O_20
REMARK                            x       y       z     vdW  Elec       q    Type
REMARK                         _______ _______ _______ _____ _____    ______ ____
ROOT
ATOM      1  C   UNL     1       2.850   6.778  18.209  0.00  0.00    +0.000 A 
ATOM      2  N   UNL     1       1.872   6.135  18.821  0.00  0.00    +0.000 NA
ATOM      3  C   UNL     1       2.045   4.810  18.535  0.00  0.00    +0.000 A 
ATOM      4  C   UNL     1       1.242   3.718  18.898  0.00  0.00    +0.000 A 
ATOM      5  C   UNL     1       1.597   2.439  18.456  0.00  0.00    +0.000 A 
ATOM      6  C   UNL     1       2.733   2.254  17.670  0.00  0.00    +0.000 A 
ATOM      7  C   UNL     1       3.555   3.333  17.310  0.00  0.00    +0.000 A 
ATOM      8  C   UNL     1       3.185   4.610  17.763  0.00  0.00    +0.000 A 
ATOM      9  N   UNL     1       3.721   5.879  17.615  0.00  0.00    +0.000 N 
ENDROOT
BRANCH   1  10
ATOM     10  C   UNL     1       2.959   8.271  18.185  0.00  0.00    +0.000 C 
BRANCH  10  13
ATOM     11  C   UNL     1      -0.248   9.953  18.396  0.00  0.00    +0.000 A 
ATOM     12  C   UNL     1       0.769   9.364  17.683  0.00  0.00    +0.000 A 
ATOM     13  N   UNL     1       1.707   8.907  18.580  0.00  0.00    +0.000 N 
ATOM     14  C   UNL     1       1.248   9.087  19.874  0.00  0.00    +0.000 A 
ATOM     15  C   UNL     1       1.787   8.717  21.119  0.00  0.00    +0.000 A 
ATOM     16  C   UNL     1       1.079   9.053  22.276  0.00  0.00    +0.000 A 
ATOM     17  C   UNL     1      -0.127   9.741  22.204  0.00  0.00    +0.000 A 
ATOM     18  C   UNL     1      -0.662  10.106  20.966  0.00  0.00    +0.000 A 
ATOM     19  C   UNL     1       0.025   9.768  19.780  0.00  0.00    +0.000 A 
BRANCH  11  21
ATOM     20  N   UNL     1      -2.298  11.151  17.361  0.00  0.00    +0.000 NA
ATOM     21  C   UNL     1      -1.373  10.615  17.820  0.00  0.00    +0.000 C 
ENDBRANCH  11  21
ENDBRANCH  10  13
ENDBRANCH   1  10
BRANCH   9  22
ATOM     22  C   UNL     1       4.934   6.188  16.880  0.00  0.00    +0.000 C 
BRANCH  22  23
ATOM     23  C   UNL     1       6.252   5.945  17.619  0.00  0.00    +0.000 C 
BRANCH  23  24
ATOM     24  C   UNL     1       7.139   4.849  17.022  0.00  0.00    +0.000 C 
BRANCH  24  25
ATOM     25  C   UNL     1       6.798   4.624  15.549  0.00  0.00    +0.000 C 
BRANCH  25  26
ATOM     26  O   UNL     1       7.676   5.370  14.718  0.00  0.00    +0.000 OA
ATOM     27  H   UNL     1       7.841   6.223  15.154  0.00  0.00    +0.000 HD
ENDBRANCH  25  26
ENDBRANCH  24  25
ENDBRANCH  23  24
ENDBRANCH  22  23
ENDBRANCH   9  22
TORSDOF 8
ENDMDL
MODEL 8
REMARK VINA RESULT:      -6.7      2.082      6.982
REMARK  Name = 
REMARK  8 active torsions:
REMARK  status: ('A' for Active; 'I' for Inactive)
REMARK    1  A    between atoms: C_2  and  C_3
REMARK    2  A    between atoms: N_5  and  C_6
REMARK    3  A    between atoms: C_6  and  C_7
REMARK    4  A    between atoms: N_15  and  C_16
REMARK    5  A    between atoms: C_16  and  C_17
REMARK    6  A    between atoms: C_17  and  C_18
REMARK    7  A    between atoms: C_18  and  C_19
REMARK    8  A    between atoms: C_19  and  O_20
REMARK                            x       y       z     vdW  Elec       q    Type
REMARK                         _______ _______ _______ _____ _____    ______ ____
ROOT
ATOM      1  C   UNL     1       2.560   6.436  18.685  0.00  0.00    +0.000 A 
ATOM      2  N   UNL     1       1.564   5.788  19.260  0.00  0.00    +0.000 NA
ATOM      3  C   UNL     1       1.891   4.461  19.213  0.00  0.00    +0.000 A 
ATOM      4  C   UNL     1       1.142   3.353  19.638  0.00  0.00    +0.000 A 
ATOM      5  C   UNL     1       1.667   2.070  19.454  0.00  0.00    +0.000 A 
ATOM      6  C   UNL     1       2.916   1.897  18.861  0.00  0.00    +0.000 A 
ATOM      7  C   UNL     1       3.685   2.994  18.443  0.00  0.00    +0.000 A 
ATOM      8  C   UNL     1       3.143   4.276  18.636  0.00  0.00    +0.000 A 
ATOM      9  N   UNL     1       3.582   5.560  18.358  0.00  0.00    +0.000 N 
ENDROOT
BRANCH   1  10
ATOM     10  C   UNL     1       2.542   7.913  18.438  0.00  0.00    +0.000 C 
BRANCH  10  13
ATOM     11  C   UNL     1       0.786   9.274  21.306  0.00  0.00    +0.000 A 
ATOM     12  C   UNL     1       1.822   8.571  20.739  0.00  0.00    +0.000 A 
ATOM     13  N   UNL     1       1.659   8.602  19.373  0.00  0.00    +0.000 N 
ATOM     14  C   UNL     1       0.592   9.423  19.046  0.00  0.00    +0.000 A 
ATOM     15  C   UNL     1       0.080   9.841  17.805  0.00  0.00    +0.000 A 
ATOM     16  C   UNL     1      -1.038  10.681  17.796  0.00  0.00    +0.000 A 
ATOM     17  C   UNL     1      -1.635  11.091  18.983  0.00  0.00    +0.000 A 
ATOM     18  C   UNL     1      -1.123  10.675  20.214  0.00  0.00    +0.000 A 
ATOM     19  C   UNL     1       0.013   9.838  20.254  0.00  0.00    +0.000 A 
BRANCH  11  21
ATOM     20  N   UNL     1       0.383   9.504  23.855  0.00  0.00    +0.000 NA
ATOM     21  C   UNL     1       0.561   9.407  22.709  0.00  0.00    +0.000 C 
ENDBRANCH  11  21
ENDBRANCH  10  13
ENDBRANCH   1  10
BRANCH   9  22
ATOM     22  C   UNL     1       4.857   5.888  17.747  0.00  0.00    +0.000 C 
BRANCH  22  23
ATOM     23  C   UNL     1       4.949   5.694  16.231  0.00  0.00    +0.000 C 
BRANCH  23  24
ATOM     24  C   UNL     1       5.746   4.467  15.780  0.00  0.00    +0.000 C 
BRANCH  24  25
ATOM     25  C   UNL     1       7.245   4.770  15.780  0.00  0.00    +0.000 C 
BRANCH  25  26
ATOM     26  O   UNL     1       7.875   4.153  16.894  0.00  0.00    +0.000 OA
ATOM     27  H   UNL     1       7.314   4.306  17.672  0.00  0.00    +0.000 HD
ENDBRANCH  25  26
ENDBRANCH  24  25
ENDBRANCH  23  24
ENDBRANCH  22  23
ENDBRANCH   9  22
TORSDOF 8
ENDMDL
MODEL 9
REMARK VINA RESULT:      -6.6      3.254      5.309
REMARK  Name = 
REMARK  8 active torsions:
REMARK  status: ('A' for Active; 'I' for Inactive)
REMARK    1  A    between atoms: C_2  and  C_3
REMARK    2  A    between atoms: N_5  and  C_6
REMARK    3  A    between atoms: C_6  and  C_7
REMARK    4  A    between atoms: N_15  and  C_16
REMARK    5  A    between atoms: C_16  and  C_17
REMARK    6  A    between atoms: C_17  and  C_18
REMARK    7  A    between atoms: C_18  and  C_19
REMARK    8  A    between atoms: C_19  and  O_20
REMARK                            x       y       z     vdW  Elec       q    Type
REMARK                         _______ _______ _______ _____ _____    ______ ____
ROOT
ATOM      1  C   UNL     1       1.577   8.779  19.114  0.00  0.00    +0.000 A 
ATOM      2  N   UNL     1       1.794   8.294  20.323  0.00  0.00    +0.000 NA
ATOM      3  C   UNL     1       0.966   8.979  21.167  0.00  0.00    +0.000 A 
ATOM      4  C   UNL     1       0.853   8.883  22.562  0.00  0.00    +0.000 A 
ATOM      5  C   UNL     1      -0.048   9.720  23.228  0.00  0.00    +0.000 A 
ATOM      6  C   UNL     1      -0.823  10.633  22.516  0.00  0.00    +0.000 A 
ATOM      7  C   UNL     1      -0.733  10.733  21.119  0.00  0.00    +0.000 A 
ATOM      8  C   UNL     1       0.175   9.884  20.465  0.00  0.00    +0.000 A 
ATOM      9  N   UNL     1       0.540   9.698  19.141  0.00  0.00    +0.000 N 
ENDROOT
BRANCH   1  10
ATOM     10  C   UNL     1       2.367   8.365  17.911  0.00  0.00    +0.000 C 
BRANCH  10  13
ATOM     11  C   UNL     1       2.252   4.745  18.114  0.00  0.00    +0.000 A 
ATOM     12  C   UNL     1       1.652   5.982  18.140  0.00  0.00    +0.000 A 
ATOM     13  N   UNL     1       2.622   6.929  17.905  0.00  0.00    +0.000 N 
ATOM     14  C   UNL     1       3.824   6.308  17.607  0.00  0.00    +0.000 A 
ATOM     15  C   UNL     1       5.073   6.823  17.219  0.00  0.00    +0.000 A 
ATOM     16  C   UNL     1       6.121   5.926  16.993  0.00  0.00    +0.000 A 
ATOM     17  C   UNL     1       5.939   4.557  17.152  0.00  0.00    +0.000 A 
ATOM     18  C   UNL     1       4.696   4.047  17.536  0.00  0.00    +0.000 A 
ATOM     19  C   UNL     1       3.616   4.929  17.757  0.00  0.00    +0.000 A 
BRANCH  11  21
ATOM     20  N   UNL     1       1.042   2.511  18.621  0.00  0.00    +0.000 NA
ATOM     21  C   UNL     1       1.590   3.511  18.390  0.00  0.00    +0.000 C 
ENDBRANCH  11  21
ENDBRANCH  10  13
ENDBRANCH   1  10
BRANCH   9  22
ATOM     22  C   UNL     1      -0.020  10.422  18.015  0.00  0.00    +0.000 C 
BRANCH  22  23
ATOM     23  C   UNL     1      -1.443  10.036  17.604  0.00  0.00    +0.000 C 
BRANCH  23  24
ATOM     24  C   UNL     1      -2.490  11.141  17.772  0.00  0.00    +0.000 C 
BRANCH  24  25
ATOM     25  C   UNL     1      -3.543  11.055  16.667  0.00  0.00    +0.000 C 
BRANCH  25  26
ATOM     26  O   UNL     1      -3.023  11.560  15.445  0.00  0.00    +0.000 OA
ATOM     27  H   UNL     1      -2.326  10.951  15.149  0.00  0.00    +0.000 HD
ENDBRANCH  25  26
ENDBRANCH  24  25
ENDBRANCH  23  24
ENDBRANCH  22  23
ENDBRANCH   9  22
TORSDOF 8
ENDMDL
