MODEL 1
REMARK VINA RESULT:      -7.3      0.000      0.000
REMARK  Name = 
REMARK  5 active torsions:
REMARK  status: ('A' for Active; 'I' for Inactive)
REMARK    1  A    between atoms: C_1  and  C_2
REMARK    2  A    between atoms: C_2  and  C_3
REMARK    3  A    between atoms: C_3  and  C_4
REMARK    4  A    between atoms: C_4  and  S_5
REMARK    5  A    between atoms: S_5  and  C_6
REMARK                            x       y       z     vdW  Elec       q    Type
REMARK                         _______ _______ _______ _____ _____    ______ ____
ROOT
ATOM      1  C   UNL     1       5.468   5.048  15.998  0.00  0.00    +0.000 A 
ATOM      2  N   UNL     1       5.536   6.394  15.978  0.00  0.00    +0.000 NA
ATOM      3  N   UNL     1       4.690   7.133  16.773  0.00  0.00    +0.000 NA
ATOM      4  C   UNL     1       3.806   6.496  17.572  0.00  0.00    +0.000 A 
ATOM      5  C   UNL     1       3.811   5.113  17.566  0.00  0.00    +0.000 A 
ATOM      6  N   UNL     1       4.615   4.362  16.777  0.00  0.00    +0.000 NA
ATOM      7  O   UNL     1       2.859   4.380  18.277  0.00  0.00    +0.000 OA
ATOM      8  C   UNL     1       3.010   4.601  19.619  0.00  0.00    +0.000 C 
ATOM      9  N   UNL     1       2.850   5.704  20.265  0.00  0.00    +0.000 NA
ATOM     10  C   UNL     1       2.431   6.884  19.628  0.00  0.00    +0.000 A 
ATOM     11  C   UNL     1       1.558   7.707  20.363  0.00  0.00    +0.000 A 
ATOM     12  C   UNL     1       1.108   8.924  19.852  0.00  0.00    +0.000 A 
ATOM     13  C   UNL     1       1.530   9.340  18.596  0.00  0.00    +0.000 A 
ATOM     14  C   UNL     1       2.410   8.542  17.863  0.00  0.00    +0.000 A 
ATOM     15  C   UNL     1       2.880   7.309  18.361  0.00  0.00    +0.000 A 
ENDROOT
BRANCH   1  16
ATOM     16  S   UNL     1       6.458   4.093  14.869  0.00  0.00    +0.000 S 
BRANCH  16  17
ATOM     17  C   UNL     1       5.375   4.016  13.398  0.00  0.00    +0.000 C 
BRANCH  17  18
ATOM     18  C   UNL     1       6.127   3.318  12.256  0.00  0.00    +0.000 C 
BRANCH  18  20
ATOM     19  C   UNL     1       3.921   3.141  11.033  0.00  0.00    +0.000 C 
ATOM     20  C   UNL     1       5.206   2.421  11.422  0.00  0.00    +0.000 C 
ENDBRANCH  18  20
ENDBRANCH  17  18
ENDBRANCH  16  17
ENDBRANCH   1  16
TORSDOF 4
ENDMDL
MODEL 2
REMARK VINA RESULT:      -7.3      1.174      1.506
REMARK  Name = 
REMARK  5 active torsions:
REMARK  status: ('A' for Active; 'I' for Inactive)
REMARK    1  A    between atoms: C_1  and  C_2
REMARK    2  A    between atoms: C_2  and  C_3
REMARK    3  A    between atoms: C_3  and  C_4
REMARK    4  A    between atoms: C_4  and  S_5
REMARK    5  A    between atoms: S_5  and  C_6
REMARK                            x       y       z     vdW  Elec       q    Type
REMARK                         _______ _______ _______ _____ _____    ______ ____
ROOT
ATOM      1  C   UNL     1       5.985   5.086  15.207  0.00  0.00    +0.000 A 
ATOM      2  N   UNL     1       5.961   6.344  15.689  0.00  0.00    +0.000 NA
ATOM      3  N   UNL     1       5.134   6.656  16.745  0.00  0.00    +0.000 NA
ATOM      4  C   UNL     1       4.362   5.691  17.289  0.00  0.00    +0.000 A 
ATOM      5  C   UNL     1       4.458   4.414  16.765  0.00  0.00    +0.000 A 
ATOM      6  N   UNL     1       5.245   4.085  15.713  0.00  0.00    +0.000 NA
ATOM      7  O   UNL     1       3.618   3.386  17.196  0.00  0.00    +0.000 OA
ATOM      8  C   UNL     1       3.861   3.108  18.513  0.00  0.00    +0.000 C 
ATOM      9  N   UNL     1       3.680   3.874  19.533  0.00  0.00    +0.000 NA
ATOM     10  C   UNL     1       3.134   5.163  19.406  0.00  0.00    +0.000 A 
ATOM     11  C   UNL     1       2.270   5.571  20.439  0.00  0.00    +0.000 A 
ATOM     12  C   UNL     1       1.700   6.845  20.445  0.00  0.00    +0.000 A 
ATOM     13  C   UNL     1       1.991   7.732  19.417  0.00  0.00    +0.000 A 
ATOM     14  C   UNL     1       2.860   7.346  18.395  0.00  0.00    +0.000 A 
ATOM     15  C   UNL     1       3.450   6.065  18.370  0.00  0.00    +0.000 A 
ENDROOT
BRANCH   1  16
ATOM     16  S   UNL     1       6.942   4.712  13.755  0.00  0.00    +0.000 S 
BRANCH  16  17
ATOM     17  C   UNL     1       6.005   3.313  13.041  0.00  0.00    +0.000 C 
BRANCH  17  18
ATOM     18  C   UNL     1       5.440   3.730  11.676  0.00  0.00    +0.000 C 
BRANCH  18  20
ATOM     19  C   UNL     1       3.387   3.794  10.200  0.00  0.00    +0.000 C 
ATOM     20  C   UNL     1       4.023   3.194  11.449  0.00  0.00    +0.000 C 
ENDBRANCH  18  20
ENDBRANCH  17  18
ENDBRANCH  16  17
ENDBRANCH   1  16
TORSDOF 4
ENDMDL
MODEL 3
REMARK VINA RESULT:      -7.1      1.640      3.057
REMARK  Name = 
REMARK  5 active torsions:
REMARK  status: ('A' for Active; 'I' for Inactive)
REMARK    1  A    between atoms: C_1  and  C_2
REMARK    2  A    between atoms: C_2  and  C_3
REMARK    3  A    between atoms: C_3  and  C_4
REMARK    4  A    between atoms: C_4  and  S_5
REMARK    5  A    between atoms: S_5  and  C_6
REMARK                            x       y       z     vdW  Elec       q    Type
REMARK                         _______ _______ _______ _____ _____    ______ ____
ROOT
ATOM      1  C   UNL     1       5.736   4.740  15.485  0.00  0.00    +0.000 A 
ATOM      2  N   UNL     1       5.320   3.520  15.876  0.00  0.00    +0.000 NA
ATOM      3  N   UNL     1       4.540   3.392  17.003  0.00  0.00    +0.000 NA
ATOM      4  C   UNL     1       4.194   4.497  17.699  0.00  0.00    +0.000 A 
ATOM      5  C   UNL     1       4.630   5.721  17.224  0.00  0.00    +0.000 A 
ATOM      6  N   UNL     1       5.418   5.874  16.133  0.00  0.00    +0.000 NA
ATOM      7  O   UNL     1       4.410   6.899  17.941  0.00  0.00    +0.000 OA
ATOM      8  C   UNL     1       3.068   7.152  18.019  0.00  0.00    +0.000 C 
ATOM      9  N   UNL     1       2.162   6.455  18.612  0.00  0.00    +0.000 NA
ATOM     10  C   UNL     1       2.474   5.291  19.335  0.00  0.00    +0.000 A 
ATOM     11  C   UNL     1       1.729   5.075  20.509  0.00  0.00    +0.000 A 
ATOM     12  C   UNL     1       1.920   3.934  21.289  0.00  0.00    +0.000 A 
ATOM     13  C   UNL     1       2.860   2.987  20.901  0.00  0.00    +0.000 A 
ATOM     14  C   UNL     1       3.593   3.180  19.729  0.00  0.00    +0.000 A 
ATOM     15  C   UNL     1       3.414   4.325  18.924  0.00  0.00    +0.000 A 
ENDROOT
BRANCH   1  16
ATOM     16  S   UNL     1       6.861   4.897  14.116  0.00  0.00    +0.000 S 
BRANCH  16  17
ATOM     17  C   UNL     1       6.305   3.543  13.020  0.00  0.00    +0.000 C 
BRANCH  17  18
ATOM     18  C   UNL     1       4.950   3.917  12.404  0.00  0.00    +0.000 C 
BRANCH  18  20
ATOM     19  C   UNL     1       3.350   3.477  10.497  0.00  0.00    +0.000 C 
ATOM     20  C   UNL     1       4.527   2.941  11.302  0.00  0.00    +0.000 C 
ENDBRANCH  18  20
ENDBRANCH  17  18
ENDBRANCH  16  17
ENDBRANCH   1  16
TORSDOF 4
ENDMDL
MODEL 4
REMARK VINA RESULT:      -7.0      1.438      1.841
REMARK  Name = 
REMARK  5 active torsions:
REMARK  status: ('A' for Active; 'I' for Inactive)
REMARK    1  A    between atoms: C_1  and  C_2
REMARK    2  A    between atoms: C_2  and  C_3
REMARK    3  A    between atoms: C_3  and  C_4
REMARK    4  A    between atoms: C_4  and  S_5
REMARK    5  A    between atoms: S_5  and  C_6
REMARK                            x       y       z     vdW  Elec       q    Type
REMARK                         _______ _______ _______ _____ _____    ______ ____
ROOT
ATOM      1  C   UNL     1       6.100   5.102  15.568  0.00  0.00    +0.000 A 
ATOM      2  N   UNL     1       6.047   6.307  16.170  0.00  0.00    +0.000 NA
ATOM      3  N   UNL     1       5.178   6.509  17.218  0.00  0.00    +0.000 NA
ATOM      4  C   UNL     1       4.393   5.491  17.635  0.00  0.00    +0.000 A 
ATOM      5  C   UNL     1       4.521   4.273  16.992  0.00  0.00    +0.000 A 
ATOM      6  N   UNL     1       5.350   4.053  15.944  0.00  0.00    +0.000 NA
ATOM      7  O   UNL     1       3.674   3.204  17.288  0.00  0.00    +0.000 OA
ATOM      8  C   UNL     1       3.869   2.799  18.580  0.00  0.00    +0.000 C 
ATOM      9  N   UNL     1       3.643   3.461  19.662  0.00  0.00    +0.000 NA
ATOM     10  C   UNL     1       3.091   4.753  19.641  0.00  0.00    +0.000 A 
ATOM     11  C   UNL     1       2.185   5.054  20.675  0.00  0.00    +0.000 A 
ATOM     12  C   UNL     1       1.603   6.318  20.783  0.00  0.00    +0.000 A 
ATOM     13  C   UNL     1       1.925   7.303  19.858  0.00  0.00    +0.000 A 
ATOM     14  C   UNL     1       2.837   7.023  18.838  0.00  0.00    +0.000 A 
ATOM     15  C   UNL     1       3.438   5.754  18.711  0.00  0.00    +0.000 A 
ENDROOT
BRANCH   1  16
ATOM     16  S   UNL     1       7.115   4.876  14.124  0.00  0.00    +0.000 S 
BRANCH  16  17
ATOM     17  C   UNL     1       6.182   3.599  13.208  0.00  0.00    +0.000 C 
BRANCH  17  18
ATOM     18  C   UNL     1       6.689   3.546  11.760  0.00  0.00    +0.000 C 
BRANCH  18  20
ATOM     19  C   UNL     1       5.980   1.176  11.234  0.00  0.00    +0.000 C 
ATOM     20  C   UNL     1       7.153   2.141  11.362  0.00  0.00    +0.000 C 
ENDBRANCH  18  20
ENDBRANCH  17  18
ENDBRANCH  16  17
ENDBRANCH   1  16
TORSDOF 4
ENDMDL
MODEL 5
REMARK VINA RESULT:      -6.9      3.348      7.824
REMARK  Name = 
REMARK  5 active torsions:
REMARK  status: ('A' for Active; 'I' for Inactive)
REMARK    1  A    between atoms: C_1  and  C_2
REMARK    2  A    between atoms: C_2  and  C_3
REMARK    3  A    between atoms: C_3  and  C_4
REMARK    4  A    between atoms: C_4  and  S_5
REMARK    5  A    between atoms: S_5  and  C_6
REMARK                            x       y       z     vdW  Elec       q    Type
REMARK                         _______ _______ _______ _____ _____    ______ ____
ROOT
ATOM      1  C   UNL     1       1.465   8.887  19.670  0.00  0.00    +0.000 A 
ATOM      2  N   UNL     1       1.850   9.189  18.414  0.00  0.00    +0.000 NA
ATOM      3  N   UNL     1       2.586   8.280  17.688  0.00  0.00    +0.000 NA
ATOM      4  C   UNL     1       2.907   7.091  18.244  0.00  0.00    +0.000 A 
ATOM      5  C   UNL     1       2.453   6.835  19.525  0.00  0.00    +0.000 A 
ATOM      6  N   UNL     1       1.748   7.719  20.270  0.00  0.00    +0.000 NA
ATOM      7  O   UNL     1       2.830   5.679  20.212  0.00  0.00    +0.000 OA
ATOM      8  C   UNL     1       2.335   4.576  19.572  0.00  0.00    +0.000 C 
ATOM      9  N   UNL     1       2.629   4.142  18.395  0.00  0.00    +0.000 NA
ATOM     10  C   UNL     1       3.591   4.774  17.589  0.00  0.00    +0.000 A 
ATOM     11  C   UNL     1       4.397   3.924  16.810  0.00  0.00    +0.000 A 
ATOM     12  C   UNL     1       5.360   4.437  15.939  0.00  0.00    +0.000 A 
ATOM     13  C   UNL     1       5.525   5.812  15.832  0.00  0.00    +0.000 A 
ATOM     14  C   UNL     1       4.720   6.667  16.585  0.00  0.00    +0.000 A 
ATOM     15  C   UNL     1       3.739   6.171  17.470  0.00  0.00    +0.000 A 
ENDROOT
BRANCH   1  16
ATOM     16  S   UNL     1       0.639  10.111  20.662  0.00  0.00    +0.000 S 
BRANCH  16  17
ATOM     17  C   UNL     1      -0.229   9.072  21.890  0.00  0.00    +0.000 C 
BRANCH  17  18
ATOM     18  C   UNL     1      -0.576   9.927  23.117  0.00  0.00    +0.000 C 
BRANCH  18  20
ATOM     19  C   UNL     1      -2.253  11.819  23.131  0.00  0.00    +0.000 C 
ATOM     20  C   UNL     1      -0.842  11.389  22.747  0.00  0.00    +0.000 C 
ENDBRANCH  18  20
ENDBRANCH  17  18
ENDBRANCH  16  17
ENDBRANCH   1  16
TORSDOF 4
ENDMDL
MODEL 6
REMARK VINA RESULT:      -6.9      3.150      6.850
REMARK  Name = 
REMARK  5 active torsions:
REMARK  status: ('A' for Active; 'I' for Inactive)
REMARK    1  A    between atoms: C_1  and  C_2
REMARK    2  A    between atoms: C_2  and  C_3
REMARK    3  A    between atoms: C_3  and  C_4
REMARK    4  A    between atoms: C_4  and  S_5
REMARK    5  A    between atoms: S_5  and  C_6
REMARK                            x       y       z     vdW  Elec       q    Type
REMARK                         _______ _______ _______ _____ _____    ______ ____
ROOT
ATOM      1  C   UNL     1       3.962   4.693  18.629  0.00  0.00    +0.000 A 
ATOM      2  N   UNL     1       3.902   3.545  17.926  0.00  0.00    +0.000 NA
ATOM      3  N   UNL     1       4.534   3.456  16.707  0.00  0.00    +0.000 NA
ATOM      4  C   UNL     1       5.215   4.523  16.233  0.00  0.00    +0.000 A 
ATOM      5  C   UNL     1       5.260   5.660  17.020  0.00  0.00    +0.000 A 
ATOM      6  N   UNL     1       4.628   5.783  18.212  0.00  0.00    +0.000 NA
ATOM      7  O   UNL     1       5.848   6.840  16.559  0.00  0.00    +0.000 OA
ATOM      8  C   UNL     1       7.188   6.646  16.363  0.00  0.00    +0.000 C 
ATOM      9  N   UNL     1       7.761   5.863  15.517  0.00  0.00    +0.000 NA
ATOM     10  C   UNL     1       7.026   5.091  14.601  0.00  0.00    +0.000 A 
ATOM     11  C   UNL     1       7.592   4.946  13.321  0.00  0.00    +0.000 A 
ATOM     12  C   UNL     1       6.975   4.168  12.341  0.00  0.00    +0.000 A 
ATOM     13  C   UNL     1       5.781   3.519  12.630  0.00  0.00    +0.000 A 
ATOM     14  C   UNL     1       5.218   3.640  13.901  0.00  0.00    +0.000 A 
ATOM     15  C   UNL     1       5.826   4.419  14.908  0.00  0.00    +0.000 A 
ENDROOT
BRANCH   1  16
ATOM     16  S   UNL     1       3.029   4.861  20.135  0.00  0.00    +0.000 S 
BRANCH  16  17
ATOM     17  C   UNL     1       2.942   3.129  20.713  0.00  0.00    +0.000 C 
BRANCH  17  18
ATOM     18  C   UNL     1       1.503   2.813  21.143  0.00  0.00    +0.000 C 
BRANCH  18  20
ATOM     19  C   UNL     1       0.738   2.284  18.792  0.00  0.00    +0.000 C 
ATOM     20  C   UNL     1       0.488   3.124  20.039  0.00  0.00    +0.000 C 
ENDBRANCH  18  20
ENDBRANCH  17  18
ENDBRANCH  16  17
ENDBRANCH   1  16
TORSDOF 4
ENDMDL
MODEL 7
REMARK VINA RESULT:      -6.9      3.385      6.815
REMARK  Name = 
REMARK  5 active torsions:
REMARK  status: ('A' for Active; 'I' for Inactive)
REMARK    1  A    between atoms: C_1  and  C_2
REMARK    2  A    between atoms: C_2  and  C_3
REMARK    3  A    between atoms: C_3  and  C_4
REMARK    4  A    between atoms: C_4  and  S_5
REMARK    5  A    between atoms: S_5  and  C_6
REMARK                            x       y       z     vdW  Elec       q    Type
REMARK                         _______ _______ _______ _____ _____    ______ ____
ROOT
ATOM      1  C   UNL     1       1.490   9.283  19.275  0.00  0.00    +0.000 A 
ATOM      2  N   UNL     1       1.959   9.459  18.024  0.00  0.00    +0.000 NA
ATOM      3  N   UNL     1       2.669   8.450  17.413  0.00  0.00    +0.000 NA
ATOM      4  C   UNL     1       2.880   7.292  18.074  0.00  0.00    +0.000 A 
ATOM      5  C   UNL     1       2.344   7.167  19.344  0.00  0.00    +0.000 A 
ATOM      6  N   UNL     1       1.662   8.151  19.978  0.00  0.00    +0.000 NA
ATOM      7  O   UNL     1       2.607   6.049  20.136  0.00  0.00    +0.000 OA
ATOM      8  C   UNL     1       2.073   4.931  19.555  0.00  0.00    +0.000 C 
ATOM      9  N   UNL     1       2.397   4.388  18.434  0.00  0.00    +0.000 NA
ATOM     10  C   UNL     1       3.440   4.891  17.638  0.00  0.00    +0.000 A 
ATOM     11  C   UNL     1       4.227   3.933  16.973  0.00  0.00    +0.000 A 
ATOM     12  C   UNL     1       5.266   4.313  16.122  0.00  0.00    +0.000 A 
ATOM     13  C   UNL     1       5.529   5.662  15.920  0.00  0.00    +0.000 A 
ATOM     14  C   UNL     1       4.744   6.623  16.559  0.00  0.00    +0.000 A 
ATOM     15  C   UNL     1       3.688   6.262  17.422  0.00  0.00    +0.000 A 
ENDROOT
BRANCH   1  16
ATOM     16  S   UNL     1       0.698  10.631  20.123  0.00  0.00    +0.000 S 
BRANCH  16  17
ATOM     17  C   UNL     1      -1.044  10.423  19.609  0.00  0.00    +0.000 C 
BRANCH  17  18
ATOM     18  C   UNL     1      -1.235  11.036  18.214  0.00  0.00    +0.000 C 
BRANCH  18  20
ATOM     19  C   UNL     1      -3.244   9.656  17.540  0.00  0.00    +0.000 C 
ATOM     20  C   UNL     1      -1.802  10.026  17.212  0.00  0.00    +0.000 C 
ENDBRANCH  18  20
ENDBRANCH  17  18
ENDBRANCH  16  17
ENDBRANCH   1  16
TORSDOF 4
ENDMDL
MODEL 8
REMARK VINA RESULT:      -6.8      4.059      6.853
REMARK  Name = 
REMARK  5 active torsions:
REMARK  status: ('A' for Active; 'I' for Inactive)
REMARK    1  A    between atoms: C_1  and  C_2
REMARK    2  A    between atoms: C_2  and  C_3
REMARK    3  A    between atoms: C_3  and  C_4
REMARK    4  A    between atoms: C_4  and  S_5
REMARK    5  A    between atoms: S_5  and  C_6
REMARK                            x       y       z     vdW  Elec       q    Type
REMARK                         _______ _______ _______ _____ _____    ______ ____
ROOT
ATOM      1  C   UNL     1       1.363   9.210  19.447  0.00  0.00    +0.000 A 
ATOM      2  N   UNL     1       1.101   8.605  20.622  0.00  0.00    +0.000 NA
ATOM      3  N   UNL     1       1.510   7.307  20.829  0.00  0.00    +0.000 NA
ATOM      4  C   UNL     1       2.177   6.658  19.850  0.00  0.00    +0.000 A 
ATOM      5  C   UNL     1       2.439   7.349  18.680  0.00  0.00    +0.000 A 
ATOM      6  N   UNL     1       2.028   8.617  18.441  0.00  0.00    +0.000 NA
ATOM      7  O   UNL     1       3.025   6.719  17.581  0.00  0.00    +0.000 OA
ATOM      8  C   UNL     1       4.295   6.320  17.896  0.00  0.00    +0.000 C 
ATOM      9  N   UNL     1       4.658   5.445  18.769  0.00  0.00    +0.000 NA
ATOM     10  C   UNL     1       3.724   4.717  19.524  0.00  0.00    +0.000 A 
ATOM     11  C   UNL     1       4.054   3.374  19.785  0.00  0.00    +0.000 A 
ATOM     12  C   UNL     1       3.224   2.562  20.560  0.00  0.00    +0.000 A 
ATOM     13  C   UNL     1       2.052   3.086  21.090  0.00  0.00    +0.000 A 
ATOM     14  C   UNL     1       1.722   4.422  20.854  0.00  0.00    +0.000 A 
ATOM     15  C   UNL     1       2.547   5.261  20.076  0.00  0.00    +0.000 A 
ENDROOT
BRANCH   1  16
ATOM     16  S   UNL     1       0.713  10.833  19.121  0.00  0.00    +0.000 S 
BRANCH  16  17
ATOM     17  C   UNL     1      -1.066  10.484  18.885  0.00  0.00    +0.000 C 
BRANCH  17  18
ATOM     18  C   UNL     1      -1.291   9.953  17.463  0.00  0.00    +0.000 C 
BRANCH  18  20
ATOM     19  C   UNL     1      -2.928   9.842  15.539  0.00  0.00    +0.000 C 
ATOM     20  C   UNL     1      -2.762  10.034  17.042  0.00  0.00    +0.000 C 
ENDBRANCH  18  20
ENDBRANCH  17  18
ENDBRANCH  16  17
ENDBRANCH   1  16
TORSDOF 4
ENDMDL
MODEL 9
REMARK VINA RESULT:      -6.8      2.953      6.871
REMARK  Name = 
REMARK  5 active torsions:
REMARK  status: ('A' for Active; 'I' for Inactive)
REMARK    1  A    between atoms: C_1  and  C_2
REMARK    2  A    between atoms: C_2  and  C_3
REMARK    3  A    between atoms: C_3  and  C_4
REMARK    4  A    between atoms: C_4  and  S_5
REMARK    5  A    between atoms: S_5  and  C_6
REMARK                            x       y       z     vdW  Elec       q    Type
REMARK                         _______ _______ _______ _____ _____    ______ ____
ROOT
ATOM      1  C   UNL     1       3.208   5.006  18.460  0.00  0.00    +0.000 A 
ATOM      2  N   UNL     1       3.131   3.884  17.718  0.00  0.00    +0.000 NA
ATOM      3  N   UNL     1       3.930   3.744  16.606  0.00  0.00    +0.000 NA
ATOM      4  C   UNL     1       4.790   4.734  16.278  0.00  0.00    +0.000 A 
ATOM      5  C   UNL     1       4.839   5.844  17.102  0.00  0.00    +0.000 A 
ATOM      6  N   UNL     1       4.048   6.018  18.188  0.00  0.00    +0.000 NA
ATOM      7  O   UNL     1       5.618   6.956  16.776  0.00  0.00    +0.000 OA
ATOM      8  C   UNL     1       6.943   6.613  16.780  0.00  0.00    +0.000 C 
ATOM      9  N   UNL     1       7.550   5.784  16.003  0.00  0.00    +0.000 NA
ATOM     10  C   UNL     1       6.883   5.117  14.961  0.00  0.00    +0.000 A 
ATOM     11  C   UNL     1       7.621   4.930  13.777  0.00  0.00    +0.000 A 
ATOM     12  C   UNL     1       7.080   4.245  12.688  0.00  0.00    +0.000 A 
ATOM     13  C   UNL     1       5.792   3.733  12.770  0.00  0.00    +0.000 A 
ATOM     14  C   UNL     1       5.056   3.896  13.945  0.00  0.00    +0.000 A 
ATOM     15  C   UNL     1       5.583   4.582  15.059  0.00  0.00    +0.000 A 
ENDROOT
BRANCH   1  16
ATOM     16  S   UNL     1       2.079   5.253  19.812  0.00  0.00    +0.000 S 
BRANCH  16  17
ATOM     17  C   UNL     1       1.041   3.751  19.712  0.00  0.00    +0.000 C 
BRANCH  17  18
ATOM     18  C   UNL     1       1.136   2.983  21.037  0.00  0.00    +0.000 C 
BRANCH  18  20
ATOM     19  C   UNL     1       3.514   2.150  20.820  0.00  0.00    +0.000 C 
ATOM     20  C   UNL     1       2.551   3.016  21.624  0.00  0.00    +0.000 C 
ENDBRANCH  18  20
ENDBRANCH  17  18
ENDBRANCH  16  17
ENDBRANCH   1  16
TORSDOF 4
ENDMDL
