MODEL 1
REMARK VINA RESULT:      -9.8      0.000      0.000
REMARK  Name = 
REMARK  9 active torsions:
REMARK  status: ('A' for Active; 'I' for Inactive)
REMARK    1  A    between atoms: C_2  and  C_3
REMARK    2  A    between atoms: C_3  and  C_4
REMARK    3  A    between atoms: N_10  and  C_11
REMARK    4  A    between atoms: C_14  and  N_15
REMARK    5  A    between atoms: N_15  and  C_16
REMARK    6  A    between atoms: C_16  and  C_17
REMARK    7  A    between atoms: C_23  and  C_25
REMARK    8  A    between atoms: C_28  and  O_29
REMARK    9  A    between atoms: C_31  and  O_32
REMARK                            x       y       z     vdW  Elec       q    Type
REMARK                         _______ _______ _______ _____ _____    ______ ____
ROOT
ATOM      1  N   UNL     1       5.420   4.645  16.695  0.00  0.00    +0.000 N 
ATOM      2  C   UNL     1       4.096   4.412  17.157  0.00  0.00    +0.000 C 
ATOM      3  O   UNL     1       3.422   3.497  16.674  0.00  0.00    +0.000 OA
ENDROOT
BRANCH   1   7
ATOM      4  C   UNL     1       7.994   7.474  18.488  0.00  0.00    +0.000 A 
ATOM      5  C   UNL     1       7.935   6.163  18.979  0.00  0.00    +0.000 A 
ATOM      6  C   UNL     1       7.092   5.207  18.394  0.00  0.00    +0.000 A 
ATOM      7  C   UNL     1       6.325   5.555  17.286  0.00  0.00    +0.000 A 
ATOM      8  C   UNL     1       6.393   6.857  16.777  0.00  0.00    +0.000 A 
ATOM      9  C   UNL     1       7.187   7.824  17.402  0.00  0.00    +0.000 A 
BRANCH   4  12
ATOM     10  O   UNL     1       8.095  10.339  17.850  0.00  0.00    +0.000 OA
ATOM     11  C   UNL     1       8.850   9.808  18.657  0.00  0.00    +0.000 C 
ATOM     12  N   UNL     1       8.821   8.476  19.045  0.00  0.00    +0.000 N 
ATOM     13  H   UNL     1       9.320   8.239  19.892  0.00  0.00    +0.000 HD
BRANCH  11  14
ATOM     14  C   UNL     1       9.932  10.627  19.344  0.00  0.00    +0.000 C 
BRANCH  14  15
ATOM     15  C   UNL     1      10.285  11.902  18.621  0.00  0.00    +0.000 A 
ATOM     16  C   UNL     1      11.262  11.902  17.616  0.00  0.00    +0.000 A 
ATOM     17  C   UNL     1      11.578  13.079  16.934  0.00  0.00    +0.000 A 
ATOM     18  C   UNL     1      10.911  14.263  17.233  0.00  0.00    +0.000 A 
ATOM     19  C   UNL     1       9.923  14.272  18.216  0.00  0.00    +0.000 A 
ATOM     20  C   UNL     1       9.607  13.099  18.904  0.00  0.00    +0.000 A 
ENDBRANCH  14  15
ENDBRANCH  11  14
ENDBRANCH   4  12
ENDBRANCH   1   7
BRANCH   2  21
ATOM     21  C   UNL     1       3.442   5.298  18.184  0.00  0.00    +0.000 A 
ATOM     22  C   UNL     1       3.038   6.600  17.853  0.00  0.00    +0.000 A 
ATOM     23  C   UNL     1       2.478   7.460  18.798  0.00  0.00    +0.000 A 
ATOM     24  C   UNL     1       2.207   6.985  20.070  0.00  0.00    +0.000 A 
ATOM     25  C   UNL     1       2.490   5.667  20.405  0.00  0.00    +0.000 A 
ATOM     26  C   UNL     1       3.120   4.831  19.471  0.00  0.00    +0.000 A 
BRANCH  24  27
ATOM     27  O   UNL     1       1.646   7.787  21.017  0.00  0.00    +0.000 OA
ATOM     28  H   UNL     1       1.490   8.665  20.627  0.00  0.00    +0.000 HD
ENDBRANCH  24  27
BRANCH  26  29
ATOM     29  O   UNL     1       3.424   3.553  19.859  0.00  0.00    +0.000 OA
ATOM     30  H   UNL     1       4.360   3.371  19.666  0.00  0.00    +0.000 HD
ENDBRANCH  26  29
ENDBRANCH   2  21
BRANCH   1  31
ATOM     31  C   UNL     1       5.946   3.624  15.779  0.00  0.00    +0.000 C 
BRANCH  31  32
ATOM     32  C   UNL     1       6.317   3.995  14.357  0.00  0.00    +0.000 A 
ATOM     33  C   UNL     1       7.351   4.911  14.105  0.00  0.00    +0.000 A 
ATOM     34  C   UNL     1       7.800   5.137  12.800  0.00  0.00    +0.000 A 
ATOM     35  C   UNL     1       7.212   4.464  11.732  0.00  0.00    +0.000 A 
ATOM     36  C   UNL     1       6.157   3.585  11.964  0.00  0.00    +0.000 A 
ATOM     37  C   UNL     1       5.710   3.353  13.267  0.00  0.00    +0.000 A 
ENDBRANCH  31  32
ENDBRANCH   1  31
TORSDOF 9
ENDMDL
MODEL 2
REMARK VINA RESULT:      -9.7      0.237      1.191
REMARK  Name = 
REMARK  9 active torsions:
REMARK  status: ('A' for Active; 'I' for Inactive)
REMARK    1  A    between atoms: C_2  and  C_3
REMARK    2  A    between atoms: C_3  and  C_4
REMARK    3  A    between atoms: N_10  and  C_11
REMARK    4  A    between atoms: C_14  and  N_15
REMARK    5  A    between atoms: N_15  and  C_16
REMARK    6  A    between atoms: C_16  and  C_17
REMARK    7  A    between atoms: C_23  and  C_25
REMARK    8  A    between atoms: C_28  and  O_29
REMARK    9  A    between atoms: C_31  and  O_32
REMARK                            x       y       z     vdW  Elec       q    Type
REMARK                         _______ _______ _______ _____ _____    ______ ____
ROOT
ATOM      1  N   UNL     1       5.499   4.701  16.804  0.00  0.00    +0.000 N 
ATOM      2  C   UNL     1       4.219   4.331  17.300  0.00  0.00    +0.000 C 
ATOM      3  O   UNL     1       3.655   3.321  16.869  0.00  0.00    +0.000 OA
ENDROOT
BRANCH   1   7
ATOM      4  C   UNL     1       8.018   7.707  18.374  0.00  0.00    +0.000 A 
ATOM      5  C   UNL     1       7.134   8.002  17.328  0.00  0.00    +0.000 A 
ATOM      6  C   UNL     1       6.285   7.020  16.797  0.00  0.00    +0.000 A 
ATOM      7  C   UNL     1       6.295   5.739  17.339  0.00  0.00    +0.000 A 
ATOM      8  C   UNL     1       7.161   5.441  18.398  0.00  0.00    +0.000 A 
ATOM      9  C   UNL     1       8.051   6.405  18.881  0.00  0.00    +0.000 A 
BRANCH   4  12
ATOM     10  O   UNL     1       8.175  10.595  17.868  0.00  0.00    +0.000 OA
ATOM     11  C   UNL     1       8.950  10.005  18.613  0.00  0.00    +0.000 C 
ATOM     12  N   UNL     1       8.899   8.657  18.939  0.00  0.00    +0.000 N 
ATOM     13  H   UNL     1       9.429   8.366  19.750  0.00  0.00    +0.000 HD
BRANCH  11  14
ATOM     14  C   UNL     1      10.086  10.760  19.287  0.00  0.00    +0.000 C 
BRANCH  14  15
ATOM     15  C   UNL     1      10.455  12.050  18.599  0.00  0.00    +0.000 A 
ATOM     16  C   UNL     1       9.927  13.269  19.046  0.00  0.00    +0.000 A 
ATOM     17  C   UNL     1      10.281  14.467  18.420  0.00  0.00    +0.000 A 
ATOM     18  C   UNL     1      11.178  14.463  17.356  0.00  0.00    +0.000 A 
ATOM     19  C   UNL     1      11.725  13.259  16.915  0.00  0.00    +0.000 A 
ATOM     20  C   UNL     1      11.370  12.060  17.535  0.00  0.00    +0.000 A 
ENDBRANCH  14  15
ENDBRANCH  11  14
ENDBRANCH   4  12
ENDBRANCH   1   7
BRANCH   2  21
ATOM     21  C   UNL     1       3.476   5.177  18.300  0.00  0.00    +0.000 A 
ATOM     22  C   UNL     1       3.055   6.474  17.969  0.00  0.00    +0.000 A 
ATOM     23  C   UNL     1       2.412   7.298  18.893  0.00  0.00    +0.000 A 
ATOM     24  C   UNL     1       2.075   6.788  20.136  0.00  0.00    +0.000 A 
ATOM     25  C   UNL     1       2.375   5.472  20.463  0.00  0.00    +0.000 A 
ATOM     26  C   UNL     1       3.087   4.674  19.555  0.00  0.00    +0.000 A 
BRANCH  24  27
ATOM     27  O   UNL     1       1.433   7.555  21.061  0.00  0.00    +0.000 OA
ATOM     28  H   UNL     1       0.820   6.987  21.561  0.00  0.00    +0.000 HD
ENDBRANCH  24  27
BRANCH  26  29
ATOM     29  O   UNL     1       3.404   3.397  19.937  0.00  0.00    +0.000 OA
ATOM     30  H   UNL     1       2.664   2.804  19.722  0.00  0.00    +0.000 HD
ENDBRANCH  26  29
ENDBRANCH   2  21
BRANCH   1  31
ATOM     31  C   UNL     1       6.132   3.711  15.923  0.00  0.00    +0.000 C 
BRANCH  31  32
ATOM     32  C   UNL     1       6.425   4.056  14.477  0.00  0.00    +0.000 A 
ATOM     33  C   UNL     1       7.462   4.945  14.150  0.00  0.00    +0.000 A 
ATOM     34  C   UNL     1       7.836   5.144  12.818  0.00  0.00    +0.000 A 
ATOM     35  C   UNL     1       7.170   4.472  11.797  0.00  0.00    +0.000 A 
ATOM     36  C   UNL     1       6.111   3.620  12.103  0.00  0.00    +0.000 A 
ATOM     37  C   UNL     1       5.739   3.415  13.434  0.00  0.00    +0.000 A 
ENDBRANCH  31  32
ENDBRANCH   1  31
TORSDOF 9
ENDMDL
MODEL 3
REMARK VINA RESULT:      -9.5      1.119      1.936
REMARK  Name = 
REMARK  9 active torsions:
REMARK  status: ('A' for Active; 'I' for Inactive)
REMARK    1  A    between atoms: C_2  and  C_3
REMARK    2  A    between atoms: C_3  and  C_4
REMARK    3  A    between atoms: N_10  and  C_11
REMARK    4  A    between atoms: C_14  and  N_15
REMARK    5  A    between atoms: N_15  and  C_16
REMARK    6  A    between atoms: C_16  and  C_17
REMARK    7  A    between atoms: C_23  and  C_25
REMARK    8  A    between atoms: C_28  and  O_29
REMARK    9  A    between atoms: C_31  and  O_32
REMARK                            x       y       z     vdW  Elec       q    Type
REMARK                         _______ _______ _______ _____ _____    ______ ____
ROOT
ATOM      1  N   UNL     1       5.324   4.735  16.829  0.00  0.00    +0.000 N 
ATOM      2  C   UNL     1       4.031   4.428  17.333  0.00  0.00    +0.000 C 
ATOM      3  O   UNL     1       3.415   3.446  16.908  0.00  0.00    +0.000 OA
ENDROOT
BRANCH   1   7
ATOM      4  C   UNL     1       7.995   7.617  18.379  0.00  0.00    +0.000 A 
ATOM      5  C   UNL     1       7.129   7.950  17.328  0.00  0.00    +0.000 A 
ATOM      6  C   UNL     1       6.231   7.009  16.804  0.00  0.00    +0.000 A 
ATOM      7  C   UNL     1       6.172   5.734  17.357  0.00  0.00    +0.000 A 
ATOM      8  C   UNL     1       7.020   5.399  18.419  0.00  0.00    +0.000 A 
ATOM      9  C   UNL     1       7.959   6.319  18.897  0.00  0.00    +0.000 A 
BRANCH   4  12
ATOM     10  O   UNL     1       8.149  10.530  18.041  0.00  0.00    +0.000 OA
ATOM     11  C   UNL     1       8.967   9.889  18.692  0.00  0.00    +0.000 C 
ATOM     12  N   UNL     1       8.923   8.524  18.937  0.00  0.00    +0.000 N 
ATOM     13  H   UNL     1       9.505   8.179  19.690  0.00  0.00    +0.000 HD
BRANCH  11  14
ATOM     14  C   UNL     1      10.156  10.593  19.329  0.00  0.00    +0.000 C 
BRANCH  14  15
ATOM     15  C   UNL     1       9.774  11.638  20.347  0.00  0.00    +0.000 A 
ATOM     16  C   UNL     1       9.000  11.292  21.464  0.00  0.00    +0.000 A 
ATOM     17  C   UNL     1       8.660  12.256  22.416  0.00  0.00    +0.000 A 
ATOM     18  C   UNL     1       9.102  13.568  22.274  0.00  0.00    +0.000 A 
ATOM     19  C   UNL     1       9.888  13.920  21.178  0.00  0.00    +0.000 A 
ATOM     20  C   UNL     1      10.227  12.961  20.222  0.00  0.00    +0.000 A 
ENDBRANCH  14  15
ENDBRANCH  11  14
ENDBRANCH   4  12
ENDBRANCH   1   7
BRANCH   2  21
ATOM     21  C   UNL     1       3.335   5.311  18.335  0.00  0.00    +0.000 A 
ATOM     22  C   UNL     1       2.970   6.624  18.003  0.00  0.00    +0.000 A 
ATOM     23  C   UNL     1       2.373   7.480  18.929  0.00  0.00    +0.000 A 
ATOM     24  C   UNL     1       2.026   6.991  20.176  0.00  0.00    +0.000 A 
ATOM     25  C   UNL     1       2.269   5.664  20.507  0.00  0.00    +0.000 A 
ATOM     26  C   UNL     1       2.936   4.831  19.597  0.00  0.00    +0.000 A 
BRANCH  24  27
ATOM     27  O   UNL     1       1.427   7.790  21.104  0.00  0.00    +0.000 OA
ATOM     28  H   UNL     1       1.698   7.492  21.991  0.00  0.00    +0.000 HD
ENDBRANCH  24  27
BRANCH  26  29
ATOM     29  O   UNL     1       3.199   3.543  19.981  0.00  0.00    +0.000 OA
ATOM     30  H   UNL     1       4.154   3.440  20.132  0.00  0.00    +0.000 HD
ENDBRANCH  26  29
ENDBRANCH   2  21
BRANCH   1  31
ATOM     31  C   UNL     1       5.902   3.714  15.945  0.00  0.00    +0.000 C 
BRANCH  31  32
ATOM     32  C   UNL     1       6.279   4.065  14.520  0.00  0.00    +0.000 A 
ATOM     33  C   UNL     1       7.350   4.934  14.257  0.00  0.00    +0.000 A 
ATOM     34  C   UNL     1       7.799   5.137  12.949  0.00  0.00    +0.000 A 
ATOM     35  C   UNL     1       7.174   4.487  11.887  0.00  0.00    +0.000 A 
ATOM     36  C   UNL     1       6.083   3.656  12.129  0.00  0.00    +0.000 A 
ATOM     37  C   UNL     1       5.636   3.447  13.436  0.00  0.00    +0.000 A 
ENDBRANCH  31  32
ENDBRANCH   1  31
TORSDOF 9
ENDMDL
MODEL 4
REMARK VINA RESULT:      -9.4      0.242      1.191
REMARK  Name = 
REMARK  9 active torsions:
REMARK  status: ('A' for Active; 'I' for Inactive)
REMARK    1  A    between atoms: C_2  and  C_3
REMARK    2  A    between atoms: C_3  and  C_4
REMARK    3  A    between atoms: N_10  and  C_11
REMARK    4  A    between atoms: C_14  and  N_15
REMARK    5  A    between atoms: N_15  and  C_16
REMARK    6  A    between atoms: C_16  and  C_17
REMARK    7  A    between atoms: C_23  and  C_25
REMARK    8  A    between atoms: C_28  and  O_29
REMARK    9  A    between atoms: C_31  and  O_32
REMARK                            x       y       z     vdW  Elec       q    Type
REMARK                         _______ _______ _______ _____ _____    ______ ____
ROOT
ATOM      1  N   UNL     1       5.425   4.727  16.708  0.00  0.00    +0.000 N 
ATOM      2  C   UNL     1       4.077   4.558  17.126  0.00  0.00    +0.000 C 
ATOM      3  O   UNL     1       3.394   3.640  16.662  0.00  0.00    +0.000 OA
ENDROOT
BRANCH   1   7
ATOM      4  C   UNL     1       8.015   7.563  18.466  0.00  0.00    +0.000 A 
ATOM      5  C   UNL     1       7.929   6.266  18.990  0.00  0.00    +0.000 A 
ATOM      6  C   UNL     1       7.080   5.308  18.417  0.00  0.00    +0.000 A 
ATOM      7  C   UNL     1       6.335   5.639  17.289  0.00  0.00    +0.000 A 
ATOM      8  C   UNL     1       6.430   6.926  16.748  0.00  0.00    +0.000 A 
ATOM      9  C   UNL     1       7.228   7.897  17.360  0.00  0.00    +0.000 A 
BRANCH   4  12
ATOM     10  O   UNL     1       8.095  10.430  17.832  0.00  0.00    +0.000 OA
ATOM     11  C   UNL     1       8.866   9.899  18.624  0.00  0.00    +0.000 C 
ATOM     12  N   UNL     1       8.848   8.567  19.011  0.00  0.00    +0.000 N 
ATOM     13  H   UNL     1       9.363   8.330  19.848  0.00  0.00    +0.000 HD
BRANCH  11  14
ATOM     14  C   UNL     1       9.958  10.721  19.293  0.00  0.00    +0.000 C 
BRANCH  14  15
ATOM     15  C   UNL     1      10.366  11.946  18.513  0.00  0.00    +0.000 A 
ATOM     16  C   UNL     1       9.646  13.141  18.640  0.00  0.00    +0.000 A 
ATOM     17  C   UNL     1      10.033  14.281  17.930  0.00  0.00    +0.000 A 
ATOM     18  C   UNL     1      11.151  14.244  17.103  0.00  0.00    +0.000 A 
ATOM     19  C   UNL     1      11.888  13.067  16.984  0.00  0.00    +0.000 A 
ATOM     20  C   UNL     1      11.501  11.925  17.688  0.00  0.00    +0.000 A 
ENDBRANCH  14  15
ENDBRANCH  11  14
ENDBRANCH   4  12
ENDBRANCH   1   7
BRANCH   2  21
ATOM     21  C   UNL     1       3.412   5.516  18.078  0.00  0.00    +0.000 A 
ATOM     22  C   UNL     1       3.062   6.810  17.666  0.00  0.00    +0.000 A 
ATOM     23  C   UNL     1       2.492   7.735  18.542  0.00  0.00    +0.000 A 
ATOM     24  C   UNL     1       2.158   7.334  19.824  0.00  0.00    +0.000 A 
ATOM     25  C   UNL     1       2.386   6.028  20.238  0.00  0.00    +0.000 A 
ATOM     26  C   UNL     1       3.026   5.126  19.374  0.00  0.00    +0.000 A 
BRANCH  24  27
ATOM     27  O   UNL     1       1.586   8.201  20.707  0.00  0.00    +0.000 OA
ATOM     28  H   UNL     1       1.564   9.086  20.301  0.00  0.00    +0.000 HD
ENDBRANCH  24  27
BRANCH  26  29
ATOM     29  O   UNL     1       3.275   3.862  19.839  0.00  0.00    +0.000 OA
ATOM     30  H   UNL     1       4.112   3.539  19.463  0.00  0.00    +0.000 HD
ENDBRANCH  26  29
ENDBRANCH   2  21
BRANCH   1  31
ATOM     31  C   UNL     1       5.953   3.644  15.866  0.00  0.00    +0.000 C 
BRANCH  31  32
ATOM     32  C   UNL     1       6.459   3.944  14.470  0.00  0.00    +0.000 A 
ATOM     33  C   UNL     1       5.830   3.383  13.346  0.00  0.00    +0.000 A 
ATOM     34  C   UNL     1       6.193   3.778  12.055  0.00  0.00    +0.000 A 
ATOM     35  C   UNL     1       7.199   4.724  11.871  0.00  0.00    +0.000 A 
ATOM     36  C   UNL     1       7.860   5.257  12.975  0.00  0.00    +0.000 A 
ATOM     37  C   UNL     1       7.495   4.868  14.266  0.00  0.00    +0.000 A 
ENDBRANCH  31  32
ENDBRANCH   1  31
TORSDOF 9
ENDMDL
MODEL 5
REMARK VINA RESULT:      -9.3      0.973      1.527
REMARK  Name = 
REMARK  9 active torsions:
REMARK  status: ('A' for Active; 'I' for Inactive)
REMARK    1  A    between atoms: C_2  and  C_3
REMARK    2  A    between atoms: C_3  and  C_4
REMARK    3  A    between atoms: N_10  and  C_11
REMARK    4  A    between atoms: C_14  and  N_15
REMARK    5  A    between atoms: N_15  and  C_16
REMARK    6  A    between atoms: C_16  and  C_17
REMARK    7  A    between atoms: C_23  and  C_25
REMARK    8  A    between atoms: C_28  and  O_29
REMARK    9  A    between atoms: C_31  and  O_32
REMARK                            x       y       z     vdW  Elec       q    Type
REMARK                         _______ _______ _______ _____ _____    ______ ____
ROOT
ATOM      1  N   UNL     1       5.327   4.643  16.676  0.00  0.00    +0.000 N 
ATOM      2  C   UNL     1       4.005   4.434  17.155  0.00  0.00    +0.000 C 
ATOM      3  O   UNL     1       3.311   3.527  16.686  0.00  0.00    +0.000 OA
ENDROOT
BRANCH   1   7
ATOM      4  C   UNL     1       7.968   7.439  18.424  0.00  0.00    +0.000 A 
ATOM      5  C   UNL     1       7.902   6.128  18.915  0.00  0.00    +0.000 A 
ATOM      6  C   UNL     1       7.036   5.183  18.345  0.00  0.00    +0.000 A 
ATOM      7  C   UNL     1       6.254   5.542  17.251  0.00  0.00    +0.000 A 
ATOM      8  C   UNL     1       6.328   6.844  16.743  0.00  0.00    +0.000 A 
ATOM      9  C   UNL     1       7.144   7.800  17.354  0.00  0.00    +0.000 A 
BRANCH   4  12
ATOM     10  O   UNL     1       8.027  10.320  17.857  0.00  0.00    +0.000 OA
ATOM     11  C   UNL     1       8.822   9.771  18.613  0.00  0.00    +0.000 C 
ATOM     12  N   UNL     1       8.816   8.430  18.967  0.00  0.00    +0.000 N 
ATOM     13  H   UNL     1       9.356   8.174  19.783  0.00  0.00    +0.000 HD
BRANCH  11  14
ATOM     14  C   UNL     1       9.933  10.578  19.269  0.00  0.00    +0.000 C 
BRANCH  14  15
ATOM     15  C   UNL     1       9.446  11.795  20.015  0.00  0.00    +0.000 A 
ATOM     16  C   UNL     1       9.273  13.016  19.348  0.00  0.00    +0.000 A 
ATOM     17  C   UNL     1       8.806  14.139  20.034  0.00  0.00    +0.000 A 
ATOM     18  C   UNL     1       8.489  14.052  21.386  0.00  0.00    +0.000 A 
ATOM     19  C   UNL     1       8.637  12.839  22.056  0.00  0.00    +0.000 A 
ATOM     20  C   UNL     1       9.108  11.715  21.375  0.00  0.00    +0.000 A 
ENDBRANCH  14  15
ENDBRANCH  11  14
ENDBRANCH   4  12
ENDBRANCH   1   7
BRANCH   2  21
ATOM     21  C   UNL     1       3.378   5.336  18.184  0.00  0.00    +0.000 A 
ATOM     22  C   UNL     1       2.986   6.641  17.850  0.00  0.00    +0.000 A 
ATOM     23  C   UNL     1       2.450   7.516  18.797  0.00  0.00    +0.000 A 
ATOM     24  C   UNL     1       2.192   7.053  20.076  0.00  0.00    +0.000 A 
ATOM     25  C   UNL     1       2.463   5.734  20.417  0.00  0.00    +0.000 A 
ATOM     26  C   UNL     1       3.069   4.883  19.480  0.00  0.00    +0.000 A 
BRANCH  24  27
ATOM     27  O   UNL     1       1.656   7.869  21.026  0.00  0.00    +0.000 OA
ATOM     28  H   UNL     1       1.806   8.794  20.760  0.00  0.00    +0.000 HD
ENDBRANCH  24  27
BRANCH  26  29
ATOM     29  O   UNL     1       3.362   3.604  19.873  0.00  0.00    +0.000 OA
ATOM     30  H   UNL     1       3.242   3.000  19.121  0.00  0.00    +0.000 HD
ENDBRANCH  26  29
ENDBRANCH   2  21
BRANCH   1  31
ATOM     31  C   UNL     1       5.825   3.609  15.759  0.00  0.00    +0.000 C 
BRANCH  31  32
ATOM     32  C   UNL     1       6.250   3.979  14.353  0.00  0.00    +0.000 A 
ATOM     33  C   UNL     1       7.295   4.892  14.139  0.00  0.00    +0.000 A 
ATOM     34  C   UNL     1       7.793   5.117  12.852  0.00  0.00    +0.000 A 
ATOM     35  C   UNL     1       7.243   4.445  11.763  0.00  0.00    +0.000 A 
ATOM     36  C   UNL     1       6.178   3.568  11.955  0.00  0.00    +0.000 A 
ATOM     37  C   UNL     1       5.683   3.338  13.241  0.00  0.00    +0.000 A 
ENDBRANCH  31  32
ENDBRANCH   1  31
TORSDOF 9
ENDMDL
MODEL 6
REMARK VINA RESULT:      -9.0      1.108      2.040
REMARK  Name = 
REMARK  9 active torsions:
REMARK  status: ('A' for Active; 'I' for Inactive)
REMARK    1  A    between atoms: C_2  and  C_3
REMARK    2  A    between atoms: C_3  and  C_4
REMARK    3  A    between atoms: N_10  and  C_11
REMARK    4  A    between atoms: C_14  and  N_15
REMARK    5  A    between atoms: N_15  and  C_16
REMARK    6  A    between atoms: C_16  and  C_17
REMARK    7  A    between atoms: C_23  and  C_25
REMARK    8  A    between atoms: C_28  and  O_29
REMARK    9  A    between atoms: C_31  and  O_32
REMARK                            x       y       z     vdW  Elec       q    Type
REMARK                         _______ _______ _______ _____ _____    ______ ____
ROOT
ATOM      1  N   UNL     1       5.184   4.749  16.880  0.00  0.00    +0.000 N 
ATOM      2  C   UNL     1       3.868   4.525  17.367  0.00  0.00    +0.000 C 
ATOM      3  O   UNL     1       3.220   3.548  16.980  0.00  0.00    +0.000 OA
ENDROOT
BRANCH   1   7
ATOM      4  C   UNL     1       7.944   7.601  18.327  0.00  0.00    +0.000 A 
ATOM      5  C   UNL     1       7.046   7.942  17.305  0.00  0.00    +0.000 A 
ATOM      6  C   UNL     1       6.119   7.012  16.816  0.00  0.00    +0.000 A 
ATOM      7  C   UNL     1       6.063   5.739  17.375  0.00  0.00    +0.000 A 
ATOM      8  C   UNL     1       6.943   5.396  18.409  0.00  0.00    +0.000 A 
ATOM      9  C   UNL     1       7.909   6.305  18.850  0.00  0.00    +0.000 A 
BRANCH   4  12
ATOM     10  O   UNL     1       8.102  10.516  18.005  0.00  0.00    +0.000 OA
ATOM     11  C   UNL     1       8.944   9.864  18.613  0.00  0.00    +0.000 C 
ATOM     12  N   UNL     1       8.903   8.498  18.850  0.00  0.00    +0.000 N 
ATOM     13  H   UNL     1       9.516   8.143  19.573  0.00  0.00    +0.000 HD
BRANCH  11  14
ATOM     14  C   UNL     1      10.166  10.556  19.202  0.00  0.00    +0.000 C 
BRANCH  14  15
ATOM     15  C   UNL     1       9.837  11.590  20.248  0.00  0.00    +0.000 A 
ATOM     16  C   UNL     1      10.264  12.917  20.095  0.00  0.00    +0.000 A 
ATOM     17  C   UNL     1       9.946  13.880  21.055  0.00  0.00    +0.000 A 
ATOM     18  C   UNL     1       9.184  13.535  22.168  0.00  0.00    +0.000 A 
ATOM     19  C   UNL     1       8.736  12.224  22.322  0.00  0.00    +0.000 A 
ATOM     20  C   UNL     1       9.056  11.257  21.366  0.00  0.00    +0.000 A 
ENDBRANCH  14  15
ENDBRANCH  11  14
ENDBRANCH   4  12
ENDBRANCH   1   7
BRANCH   2  21
ATOM     21  C   UNL     1       3.189   5.490  18.304  0.00  0.00    +0.000 A 
ATOM     22  C   UNL     1       2.845   6.781  17.877  0.00  0.00    +0.000 A 
ATOM     23  C   UNL     1       2.264   7.712  18.738  0.00  0.00    +0.000 A 
ATOM     24  C   UNL     1       1.911   7.321  20.019  0.00  0.00    +0.000 A 
ATOM     25  C   UNL     1       2.133   6.017  20.444  0.00  0.00    +0.000 A 
ATOM     26  C   UNL     1       2.784   5.109  19.596  0.00  0.00    +0.000 A 
BRANCH  24  27
ATOM     27  O   UNL     1       1.327   8.194  20.886  0.00  0.00    +0.000 OA
ATOM     28  H   UNL     1       1.745   9.066  20.777  0.00  0.00    +0.000 HD
ENDBRANCH  24  27
BRANCH  26  29
ATOM     29  O   UNL     1       3.026   3.848  20.073  0.00  0.00    +0.000 OA
ATOM     30  H   UNL     1       2.182   3.380  20.189  0.00  0.00    +0.000 HD
ENDBRANCH  26  29
ENDBRANCH   2  21
BRANCH   1  31
ATOM     31  C   UNL     1       5.738   3.658  16.067  0.00  0.00    +0.000 C 
BRANCH  31  32
ATOM     32  C   UNL     1       6.323   3.948  14.699  0.00  0.00    +0.000 A 
ATOM     33  C   UNL     1       5.755   3.385  13.545  0.00  0.00    +0.000 A 
ATOM     34  C   UNL     1       6.192   3.773  12.275  0.00  0.00    +0.000 A 
ATOM     35  C   UNL     1       7.210   4.714  12.143  0.00  0.00    +0.000 A 
ATOM     36  C   UNL     1       7.811   5.249  13.280  0.00  0.00    +0.000 A 
ATOM     37  C   UNL     1       7.373   4.867  14.550  0.00  0.00    +0.000 A 
ENDBRANCH  31  32
ENDBRANCH   1  31
TORSDOF 9
ENDMDL
MODEL 7
REMARK VINA RESULT:      -9.0      4.979      9.325
REMARK  Name = 
REMARK  9 active torsions:
REMARK  status: ('A' for Active; 'I' for Inactive)
REMARK    1  A    between atoms: C_2  and  C_3
REMARK    2  A    between atoms: C_3  and  C_4
REMARK    3  A    between atoms: N_10  and  C_11
REMARK    4  A    between atoms: C_14  and  N_15
REMARK    5  A    between atoms: N_15  and  C_16
REMARK    6  A    between atoms: C_16  and  C_17
REMARK    7  A    between atoms: C_23  and  C_25
REMARK    8  A    between atoms: C_28  and  O_29
REMARK    9  A    between atoms: C_31  and  O_32
REMARK                            x       y       z     vdW  Elec       q    Type
REMARK                         _______ _______ _______ _____ _____    ______ ____
ROOT
ATOM      1  N   UNL     1      -0.540  11.008  18.957  0.00  0.00    +0.000 N 
ATOM      2  C   UNL     1      -0.327  12.373  19.290  0.00  0.00    +0.000 C 
ATOM      3  O   UNL     1      -1.288  13.140  19.412  0.00  0.00    +0.000 OA
ENDROOT
BRANCH   1   7
ATOM      4  C   UNL     1       2.363   7.940  19.001  0.00  0.00    +0.000 A 
ATOM      5  C   UNL     1       2.085   8.632  17.814  0.00  0.00    +0.000 A 
ATOM      6  C   UNL     1       1.129   9.658  17.780  0.00  0.00    +0.000 A 
ATOM      7  C   UNL     1       0.469  10.019  18.950  0.00  0.00    +0.000 A 
ATOM      8  C   UNL     1       0.755   9.346  20.144  0.00  0.00    +0.000 A 
ATOM      9  C   UNL     1       1.662   8.282  20.160  0.00  0.00    +0.000 A 
BRANCH   4  12
ATOM     10  O   UNL     1       1.908   5.039  18.958  0.00  0.00    +0.000 OA
ATOM     11  C   UNL     1       3.017   5.539  19.112  0.00  0.00    +0.000 C 
ATOM     12  N   UNL     1       3.310   6.895  19.087  0.00  0.00    +0.000 N 
ATOM     13  H   UNL     1       4.283   7.147  18.969  0.00  0.00    +0.000 HD
BRANCH  11  14
ATOM     14  C   UNL     1       4.230   4.649  19.341  0.00  0.00    +0.000 C 
BRANCH  14  15
ATOM     15  C   UNL     1       5.139   4.535  18.143  0.00  0.00    +0.000 A 
ATOM     16  C   UNL     1       4.610   4.265  16.873  0.00  0.00    +0.000 A 
ATOM     17  C   UNL     1       5.449   4.175  15.760  0.00  0.00    +0.000 A 
ATOM     18  C   UNL     1       6.820   4.371  15.899  0.00  0.00    +0.000 A 
ATOM     19  C   UNL     1       7.356   4.660  17.153  0.00  0.00    +0.000 A 
ATOM     20  C   UNL     1       6.521   4.746  18.268  0.00  0.00    +0.000 A 
ENDBRANCH  14  15
ENDBRANCH  11  14
ENDBRANCH   4  12
ENDBRANCH   1   7
BRANCH   2  21
ATOM     21  C   UNL     1       1.055  12.953  19.434  0.00  0.00    +0.000 A 
ATOM     22  C   UNL     1       1.840  13.224  18.304  0.00  0.00    +0.000 A 
ATOM     23  C   UNL     1       3.143  13.712  18.410  0.00  0.00    +0.000 A 
ATOM     24  C   UNL     1       3.640  14.046  19.659  0.00  0.00    +0.000 A 
ATOM     25  C   UNL     1       2.854  13.898  20.794  0.00  0.00    +0.000 A 
ATOM     26  C   UNL     1       1.572  13.338  20.685  0.00  0.00    +0.000 A 
BRANCH  24  27
ATOM     27  O   UNL     1       4.902  14.540  19.805  0.00  0.00    +0.000 OA
ATOM     28  H   UNL     1       4.878  15.260  20.460  0.00  0.00    +0.000 HD
ENDBRANCH  24  27
BRANCH  26  29
ATOM     29  O   UNL     1       0.849  13.165  21.835  0.00  0.00    +0.000 OA
ATOM     30  H   UNL     1       0.254  13.924  21.959  0.00  0.00    +0.000 HD
ENDBRANCH  26  29
ENDBRANCH   2  21
BRANCH   1  31
ATOM     31  C   UNL     1      -1.946  10.580  18.966  0.00  0.00    +0.000 C 
BRANCH  31  32
ATOM     32  C   UNL     1      -2.734  10.529  17.673  0.00  0.00    +0.000 A 
ATOM     33  C   UNL     1      -3.867  11.339  17.494  0.00  0.00    +0.000 A 
ATOM     34  C   UNL     1      -4.503  11.410  16.251  0.00  0.00    +0.000 A 
ATOM     35  C   UNL     1      -4.025  10.662  15.178  0.00  0.00    +0.000 A 
ATOM     36  C   UNL     1      -2.928   9.822  15.352  0.00  0.00    +0.000 A 
ATOM     37  C   UNL     1      -2.288   9.753  16.592  0.00  0.00    +0.000 A 
ENDBRANCH  31  32
ENDBRANCH   1  31
TORSDOF 9
ENDMDL
MODEL 8
REMARK VINA RESULT:      -8.9      0.641      1.172
REMARK  Name = 
REMARK  9 active torsions:
REMARK  status: ('A' for Active; 'I' for Inactive)
REMARK    1  A    between atoms: C_2  and  C_3
REMARK    2  A    between atoms: C_3  and  C_4
REMARK    3  A    between atoms: N_10  and  C_11
REMARK    4  A    between atoms: C_14  and  N_15
REMARK    5  A    between atoms: N_15  and  C_16
REMARK    6  A    between atoms: C_16  and  C_17
REMARK    7  A    between atoms: C_23  and  C_25
REMARK    8  A    between atoms: C_28  and  O_29
REMARK    9  A    between atoms: C_31  and  O_32
REMARK                            x       y       z     vdW  Elec       q    Type
REMARK                         _______ _______ _______ _____ _____    ______ ____
ROOT
ATOM      1  N   UNL     1       5.505   4.670  16.711  0.00  0.00    +0.000 N 
ATOM      2  C   UNL     1       4.181   4.420  17.164  0.00  0.00    +0.000 C 
ATOM      3  O   UNL     1       3.519   3.502  16.671  0.00  0.00    +0.000 OA
ENDROOT
BRANCH   1   7
ATOM      4  C   UNL     1       8.042   7.517  18.527  0.00  0.00    +0.000 A 
ATOM      5  C   UNL     1       7.928   6.228  19.066  0.00  0.00    +0.000 A 
ATOM      6  C   UNL     1       7.096   5.267  18.475  0.00  0.00    +0.000 A 
ATOM      7  C   UNL     1       6.397   5.585  17.314  0.00  0.00    +0.000 A 
ATOM      8  C   UNL     1       6.521   6.864  16.758  0.00  0.00    +0.000 A 
ATOM      9  C   UNL     1       7.302   7.839  17.387  0.00  0.00    +0.000 A 
BRANCH   4  12
ATOM     10  O   UNL     1       8.146  10.378  17.873  0.00  0.00    +0.000 OA
ATOM     11  C   UNL     1       8.892   9.853  18.693  0.00  0.00    +0.000 C 
ATOM     12  N   UNL     1       8.860   8.524  19.089  0.00  0.00    +0.000 N 
ATOM     13  H   UNL     1       9.350   8.293  19.944  0.00  0.00    +0.000 HD
BRANCH  11  14
ATOM     14  C   UNL     1       9.964  10.679  19.388  0.00  0.00    +0.000 C 
BRANCH  14  15
ATOM     15  C   UNL     1      10.345  11.935  18.646  0.00  0.00    +0.000 A 
ATOM     16  C   UNL     1      11.377  11.914  17.697  0.00  0.00    +0.000 A 
ATOM     17  C   UNL     1      11.720  13.073  16.997  0.00  0.00    +0.000 A 
ATOM     18  C   UNL     1      11.027  14.258  17.222  0.00  0.00    +0.000 A 
ATOM     19  C   UNL     1       9.986  14.287  18.149  0.00  0.00    +0.000 A 
ATOM     20  C   UNL     1       9.643  13.132  18.854  0.00  0.00    +0.000 A 
ENDBRANCH  14  15
ENDBRANCH  11  14
ENDBRANCH   4  12
ENDBRANCH   1   7
BRANCH   2  21
ATOM     21  C   UNL     1       3.512   5.292  18.193  0.00  0.00    +0.000 A 
ATOM     22  C   UNL     1       3.296   4.824  19.498  0.00  0.00    +0.000 A 
ATOM     23  C   UNL     1       2.631   5.591  20.456  0.00  0.00    +0.000 A 
ATOM     24  C   UNL     1       2.272   6.893  20.150  0.00  0.00    +0.000 A 
ATOM     25  C   UNL     1       2.568   7.432  18.904  0.00  0.00    +0.000 A 
ATOM     26  C   UNL     1       3.170   6.630  17.923  0.00  0.00    +0.000 A 
BRANCH  24  27
ATOM     27  O   UNL     1       1.636   7.681  21.061  0.00  0.00    +0.000 OA
ATOM     28  H   UNL     1       1.593   8.588  20.710  0.00  0.00    +0.000 HD
ENDBRANCH  24  27
BRANCH  26  29
ATOM     29  O   UNL     1       3.400   7.187  16.694  0.00  0.00    +0.000 OA
ATOM     30  H   UNL     1       2.720   7.858  16.511  0.00  0.00    +0.000 HD
ENDBRANCH  26  29
ENDBRANCH   2  21
BRANCH   1  31
ATOM     31  C   UNL     1       6.046   3.661  15.790  0.00  0.00    +0.000 C 
BRANCH  31  32
ATOM     32  C   UNL     1       6.379   4.036  14.361  0.00  0.00    +0.000 A 
ATOM     33  C   UNL     1       7.428   4.927  14.082  0.00  0.00    +0.000 A 
ATOM     34  C   UNL     1       7.839   5.154  12.765  0.00  0.00    +0.000 A 
ATOM     35  C   UNL     1       7.198   4.506  11.711  0.00  0.00    +0.000 A 
ATOM     36  C   UNL     1       6.129   3.652  11.971  0.00  0.00    +0.000 A 
ATOM     37  C   UNL     1       5.720   3.420  13.286  0.00  0.00    +0.000 A 
ENDBRANCH  31  32
ENDBRANCH   1  31
TORSDOF 9
ENDMDL
MODEL 9
REMARK VINA RESULT:      -8.5      5.184      9.401
REMARK  Name = 
REMARK  9 active torsions:
REMARK  status: ('A' for Active; 'I' for Inactive)
REMARK    1  A    between atoms: C_2  and  C_3
REMARK    2  A    between atoms: C_3  and  C_4
REMARK    3  A    between atoms: N_10  and  C_11
REMARK    4  A    between atoms: C_14  and  N_15
REMARK    5  A    between atoms: N_15  and  C_16
REMARK    6  A    between atoms: C_16  and  C_17
REMARK    7  A    between atoms: C_23  and  C_25
REMARK    8  A    between atoms: C_28  and  O_29
REMARK    9  A    between atoms: C_31  and  O_32
REMARK                            x       y       z     vdW  Elec       q    Type
REMARK                         _______ _______ _______ _____ _____    ______ ____
ROOT
ATOM      1  N   UNL     1      -0.705  11.372  19.259  0.00  0.00    +0.000 N 
ATOM      2  C   UNL     1      -0.435  12.734  19.565  0.00  0.00    +0.000 C 
ATOM      3  O   UNL     1      -1.356  13.555  19.607  0.00  0.00    +0.000 OA
ENDROOT
BRANCH   1   7
ATOM      4  C   UNL     1       2.011   8.150  19.559  0.00  0.00    +0.000 A 
ATOM      5  C   UNL     1       1.876   8.850  18.352  0.00  0.00    +0.000 A 
ATOM      6  C   UNL     1       0.985   9.926  18.234  0.00  0.00    +0.000 A 
ATOM      7  C   UNL     1       0.245  10.330  19.342  0.00  0.00    +0.000 A 
ATOM      8  C   UNL     1       0.388   9.649  20.556  0.00  0.00    +0.000 A 
ATOM      9  C   UNL     1       1.230   8.536  20.653  0.00  0.00    +0.000 A 
BRANCH   4  12
ATOM     10  O   UNL     1       2.082   5.608  18.090  0.00  0.00    +0.000 OA
ATOM     11  C   UNL     1       2.830   5.859  19.029  0.00  0.00    +0.000 C 
ATOM     12  N   UNL     1       2.888   7.055  19.729  0.00  0.00    +0.000 N 
ATOM     13  H   UNL     1       3.712   7.211  20.295  0.00  0.00    +0.000 HD
BRANCH  11  14
ATOM     14  C   UNL     1       3.822   4.812  19.515  0.00  0.00    +0.000 C 
BRANCH  14  15
ATOM     15  C   UNL     1       5.112   4.784  18.734  0.00  0.00    +0.000 A 
ATOM     16  C   UNL     1       5.154   4.219  17.452  0.00  0.00    +0.000 A 
ATOM     17  C   UNL     1       6.344   4.208  16.721  0.00  0.00    +0.000 A 
ATOM     18  C   UNL     1       7.499   4.774  17.253  0.00  0.00    +0.000 A 
ATOM     19  C   UNL     1       7.465   5.356  18.519  0.00  0.00    +0.000 A 
ATOM     20  C   UNL     1       6.279   5.366  19.254  0.00  0.00    +0.000 A 
ENDBRANCH  14  15
ENDBRANCH  11  14
ENDBRANCH   4  12
ENDBRANCH   1   7
BRANCH   2  21
ATOM     21  C   UNL     1       0.967  13.241  19.775  0.00  0.00    +0.000 A 
ATOM     22  C   UNL     1       1.461  13.468  21.068  0.00  0.00    +0.000 A 
ATOM     23  C   UNL     1       2.737  13.988  21.289  0.00  0.00    +0.000 A 
ATOM     24  C   UNL     1       3.585  14.181  20.212  0.00  0.00    +0.000 A 
ATOM     25  C   UNL     1       3.173  13.863  18.924  0.00  0.00    +0.000 A 
ATOM     26  C   UNL     1       1.863  13.411  18.703  0.00  0.00    +0.000 A 
BRANCH  24  27
ATOM     27  O   UNL     1       4.844  14.672  20.386  0.00  0.00    +0.000 OA
ATOM     28  H   UNL     1       5.292  14.141  21.069  0.00  0.00    +0.000 HD
ENDBRANCH  24  27
BRANCH  26  29
ATOM     29  O   UNL     1       1.483  13.155  17.413  0.00  0.00    +0.000 OA
ATOM     30  H   UNL     1       1.388  13.995  16.932  0.00  0.00    +0.000 HD
ENDBRANCH  26  29
ENDBRANCH   2  21
BRANCH   1  31
ATOM     31  C   UNL     1      -2.131  11.022  19.196  0.00  0.00    +0.000 C 
BRANCH  31  32
ATOM     32  C   UNL     1      -2.797  10.782  17.856  0.00  0.00    +0.000 A 
ATOM     33  C   UNL     1      -3.938  11.512  17.484  0.00  0.00    +0.000 A 
ATOM     34  C   UNL     1      -4.461  11.406  16.192  0.00  0.00    +0.000 A 
ATOM     35  C   UNL     1      -3.862  10.559  15.263  0.00  0.00    +0.000 A 
ATOM     36  C   UNL     1      -2.756   9.797  15.632  0.00  0.00    +0.000 A 
ATOM     37  C   UNL     1      -2.228   9.905  16.920  0.00  0.00    +0.000 A 
ENDBRANCH  31  32
ENDBRANCH   1  31
TORSDOF 9
ENDMDL
