MODEL 1
REMARK VINA RESULT:      -8.7      0.000      0.000
REMARK  Name = 
REMARK  8 active torsions:
REMARK  status: ('A' for Active; 'I' for Inactive)
REMARK    1  A    between atoms: C_1  and  C_2
REMARK    2  A    between atoms: C_2  and  C_3
REMARK    3  A    between atoms: C_2  and  O_4
REMARK    4  A    between atoms: O_4  and  C_5
REMARK    5  A    between atoms: C_8  and  S_9
REMARK    6  A    between atoms: S_9  and  N_12
REMARK    7  A    between atoms: C_19  and  N_20
REMARK    8  A    between atoms: C_21  and  C_23
REMARK                            x       y       z     vdW  Elec       q    Type
REMARK                         _______ _______ _______ _____ _____    ______ ____
ROOT
ATOM      1  C   UNL     1       2.862   4.550  18.053  0.00  0.00    +0.000 A 
ATOM      2  C   UNL     1       3.564   3.558  17.351  0.00  0.00    +0.000 A 
ATOM      3  C   UNL     1       4.800   3.827  16.761  0.00  0.00    +0.000 A 
ATOM      4  C   UNL     1       5.358   5.095  16.873  0.00  0.00    +0.000 A 
ATOM      5  C   UNL     1       4.686   6.093  17.584  0.00  0.00    +0.000 A 
ATOM      6  C   UNL     1       3.421   5.856  18.146  0.00  0.00    +0.000 A 
ENDROOT
BRANCH   6   7
ATOM      7  N   UNL     1       2.712   6.896  18.817  0.00  0.00    +0.000 N 
ATOM      8  C   UNL     1       2.399   8.140  18.272  0.00  0.00    +0.000 C 
ATOM      9  O   UNL     1       2.566   8.453  17.095  0.00  0.00    +0.000 OA
ATOM     10  H   UNL     1       2.294   6.635  19.705  0.00  0.00    +0.000 HD
BRANCH   8  11
ATOM     11  C   UNL     1       1.729   9.114  19.241  0.00  0.00    +0.000 C 
ATOM     12  C   UNL     1       0.443   9.742  18.715  0.00  0.00    +0.000 C 
ATOM     13  C   UNL     1      -0.190  10.331  19.972  0.00  0.00    +0.000 C 
ATOM     14  C   UNL     1       0.150   9.354  21.093  0.00  0.00    +0.000 C 
ATOM     15  C   UNL     1       1.237   8.437  20.531  0.00  0.00    +0.000 C 
ENDBRANCH   8  11
ENDBRANCH   6   7
BRANCH   4  16
ATOM     16  S   UNL     1       6.990   5.404  16.215  0.00  0.00    +0.000 S 
ATOM     17  O   UNL     1       7.279   6.809  16.398  0.00  0.00    +0.000 OA
ATOM     18  O   UNL     1       7.855   4.378  16.761  0.00  0.00    +0.000 OA
BRANCH  16  19
ATOM     19  N   UNL     1       6.814   5.099  14.528  0.00  0.00    +0.000 NA
ATOM     20  C   UNL     1       7.984   5.486  13.700  0.00  0.00    +0.000 C 
ATOM     21  C   UNL     1       7.694   5.347  12.210  0.00  0.00    +0.000 C 
ATOM     22  C   UNL     1       7.197   3.948  11.885  0.00  0.00    +0.000 C 
ATOM     23  C   UNL     1       5.935   3.668  12.687  0.00  0.00    +0.000 C 
ATOM     24  C   UNL     1       6.196   3.790  14.186  0.00  0.00    +0.000 C 
ENDBRANCH  16  19
ENDBRANCH   4  16
BRANCH   1  25
ATOM     25  O   UNL     1       1.626   4.311  18.627  0.00  0.00    +0.000 OA
BRANCH  25  27
ATOM     26  C   UNL     1       1.053   3.576  20.844  0.00  0.00    +0.000 C 
ATOM     27  C   UNL     1       1.500   3.126  19.450  0.00  0.00    +0.000 C 
ATOM     28  C   UNL     1       0.460   2.133  18.917  0.00  0.00    +0.000 C 
ENDBRANCH  25  27
ENDBRANCH   1  25
TORSDOF 6
ENDMDL
MODEL 2
REMARK VINA RESULT:      -8.3      2.809      7.902
REMARK  Name = 
REMARK  8 active torsions:
REMARK  status: ('A' for Active; 'I' for Inactive)
REMARK    1  A    between atoms: C_1  and  C_2
REMARK    2  A    between atoms: C_2  and  C_3
REMARK    3  A    between atoms: C_2  and  O_4
REMARK    4  A    between atoms: O_4  and  C_5
REMARK    5  A    between atoms: C_8  and  S_9
REMARK    6  A    between atoms: S_9  and  N_12
REMARK    7  A    between atoms: C_19  and  N_20
REMARK    8  A    between atoms: C_21  and  C_23
REMARK                            x       y       z     vdW  Elec       q    Type
REMARK                         _______ _______ _______ _____ _____    ______ ____
ROOT
ATOM      1  C   UNL     1       2.067   6.326  19.822  0.00  0.00    +0.000 A 
ATOM      2  C   UNL     1       1.383   6.951  20.876  0.00  0.00    +0.000 A 
ATOM      3  C   UNL     1       1.103   8.319  20.847  0.00  0.00    +0.000 A 
ATOM      4  C   UNL     1       1.499   9.082  19.755  0.00  0.00    +0.000 A 
ATOM      5  C   UNL     1       2.164   8.477  18.686  0.00  0.00    +0.000 A 
ATOM      6  C   UNL     1       2.495   7.113  18.715  0.00  0.00    +0.000 A 
ENDROOT
BRANCH   6   7
ATOM      7  N   UNL     1       3.229   6.514  17.649  0.00  0.00    +0.000 N 
ATOM      8  C   UNL     1       4.582   6.182  17.689  0.00  0.00    +0.000 C 
ATOM      9  O   UNL     1       5.287   6.229  18.694  0.00  0.00    +0.000 OA
ATOM     10  H   UNL     1       2.672   6.189  16.866  0.00  0.00    +0.000 HD
BRANCH   8  11
ATOM     11  C   UNL     1       5.151   5.653  16.373  0.00  0.00    +0.000 C 
ATOM     12  C   UNL     1       6.672   5.714  16.274  0.00  0.00    +0.000 C 
ATOM     13  C   UNL     1       6.976   4.805  15.087  0.00  0.00    +0.000 C 
ATOM     14  C   UNL     1       5.947   3.681  15.164  0.00  0.00    +0.000 C 
ATOM     15  C   UNL     1       4.888   4.153  16.162  0.00  0.00    +0.000 C 
ENDBRANCH   8  11
ENDBRANCH   6   7
BRANCH   4  16
ATOM     16  S   UNL     1       1.040  10.806  19.669  0.00  0.00    +0.000 S 
ATOM     17  O   UNL     1       1.141  11.356  21.003  0.00  0.00    +0.000 OA
ATOM     18  O   UNL     1       1.781  11.374  18.561  0.00  0.00    +0.000 OA
BRANCH  16  19
ATOM     19  N   UNL     1      -0.623  10.764  19.221  0.00  0.00    +0.000 NA
ATOM     20  C   UNL     1      -1.362  12.032  19.448  0.00  0.00    +0.000 C 
ATOM     21  C   UNL     1      -2.855  11.871  19.192  0.00  0.00    +0.000 C 
ATOM     22  C   UNL     1      -3.107  11.300  17.806  0.00  0.00    +0.000 C 
ATOM     23  C   UNL     1      -2.413   9.951  17.690  0.00  0.00    +0.000 C 
ATOM     24  C   UNL     1      -0.912  10.081  17.932  0.00  0.00    +0.000 C 
ENDBRANCH  16  19
ENDBRANCH   4  16
BRANCH   1  25
ATOM     25  O   UNL     1       2.373   4.978  19.841  0.00  0.00    +0.000 OA
BRANCH  25  27
ATOM     26  C   UNL     1       1.377   3.304  18.430  0.00  0.00    +0.000 C 
ATOM     27  C   UNL     1       1.264   4.049  19.762  0.00  0.00    +0.000 C 
ATOM     28  C   UNL     1       1.272   3.009  20.889  0.00  0.00    +0.000 C 
ENDBRANCH  25  27
ENDBRANCH   1  25
TORSDOF 6
ENDMDL
MODEL 3
REMARK VINA RESULT:      -8.3      0.708      1.017
REMARK  Name = 
REMARK  8 active torsions:
REMARK  status: ('A' for Active; 'I' for Inactive)
REMARK    1  A    between atoms: C_1  and  C_2
REMARK    2  A    between atoms: C_2  and  C_3
REMARK    3  A    between atoms: C_2  and  O_4
REMARK    4  A    between atoms: O_4  and  C_5
REMARK    5  A    between atoms: C_8  and  S_9
REMARK    6  A    between atoms: S_9  and  N_12
REMARK    7  A    between atoms: C_19  and  N_20
REMARK    8  A    between atoms: C_21  and  C_23
REMARK                            x       y       z     vdW  Elec       q    Type
REMARK                         _______ _______ _______ _____ _____    ______ ____
ROOT
ATOM      1  C   UNL     1       3.125   4.523  18.667  0.00  0.00    +0.000 A 
ATOM      2  C   UNL     1       4.049   3.516  18.347  0.00  0.00    +0.000 A 
ATOM      3  C   UNL     1       5.206   3.801  17.619  0.00  0.00    +0.000 A 
ATOM      4  C   UNL     1       5.460   5.105  17.207  0.00  0.00    +0.000 A 
ATOM      5  C   UNL     1       4.563   6.126  17.532  0.00  0.00    +0.000 A 
ATOM      6  C   UNL     1       3.372   5.853  18.223  0.00  0.00    +0.000 A 
ENDROOT
BRANCH   6   7
ATOM      7  N   UNL     1       2.430   6.889  18.498  0.00  0.00    +0.000 N 
ATOM      8  C   UNL     1       2.414   8.144  17.891  0.00  0.00    +0.000 C 
ATOM      9  O   UNL     1       3.119   8.474  16.940  0.00  0.00    +0.000 OA
ATOM     10  H   UNL     1       1.642   6.618  19.077  0.00  0.00    +0.000 HD
BRANCH   8  11
ATOM     11  C   UNL     1       1.367   9.109  18.446  0.00  0.00    +0.000 C 
ATOM     12  C   UNL     1       1.182   9.038  19.958  0.00  0.00    +0.000 C 
ATOM     13  C   UNL     1       0.409  10.316  20.270  0.00  0.00    +0.000 C 
ATOM     14  C   UNL     1       0.950  11.363  19.301  0.00  0.00    +0.000 C 
ATOM     15  C   UNL     1       1.747  10.587  18.251  0.00  0.00    +0.000 C 
ENDBRANCH   8  11
ENDBRANCH   6   7
BRANCH   4  16
ATOM     16  S   UNL     1       6.994   5.486  16.376  0.00  0.00    +0.000 S 
ATOM     17  O   UNL     1       7.205   6.913  16.473  0.00  0.00    +0.000 OA
ATOM     18  O   UNL     1       7.976   4.543  16.871  0.00  0.00    +0.000 OA
BRANCH  16  19
ATOM     19  N   UNL     1       6.675   5.093  14.729  0.00  0.00    +0.000 NA
ATOM     20  C   UNL     1       7.821   5.293  13.807  0.00  0.00    +0.000 C 
ATOM     21  C   UNL     1       7.419   5.091  12.351  0.00  0.00    +0.000 C 
ATOM     22  C   UNL     1       6.755   3.738  12.157  0.00  0.00    +0.000 C 
ATOM     23  C   UNL     1       5.526   3.653  13.051  0.00  0.00    +0.000 C 
ATOM     24  C   UNL     1       5.899   3.841  14.519  0.00  0.00    +0.000 C 
ENDBRANCH  16  19
ENDBRANCH   4  16
BRANCH   1  25
ATOM     25  O   UNL     1       1.963   4.258  19.369  0.00  0.00    +0.000 OA
BRANCH  25  27
ATOM     26  C   UNL     1       1.267   2.854  21.192  0.00  0.00    +0.000 C 
ATOM     27  C   UNL     1       1.709   2.878  19.727  0.00  0.00    +0.000 C 
ATOM     28  C   UNL     1       0.598   2.235  18.886  0.00  0.00    +0.000 C 
ENDBRANCH  25  27
ENDBRANCH   1  25
TORSDOF 6
ENDMDL
MODEL 4
REMARK VINA RESULT:      -8.2      2.644      7.694
REMARK  Name = 
REMARK  8 active torsions:
REMARK  status: ('A' for Active; 'I' for Inactive)
REMARK    1  A    between atoms: C_1  and  C_2
REMARK    2  A    between atoms: C_2  and  C_3
REMARK    3  A    between atoms: C_2  and  O_4
REMARK    4  A    between atoms: O_4  and  C_5
REMARK    5  A    between atoms: C_8  and  S_9
REMARK    6  A    between atoms: S_9  and  N_12
REMARK    7  A    between atoms: C_19  and  N_20
REMARK    8  A    between atoms: C_21  and  C_23
REMARK                            x       y       z     vdW  Elec       q    Type
REMARK                         _______ _______ _______ _____ _____    ______ ____
ROOT
ATOM      1  C   UNL     1       2.126   6.129  20.046  0.00  0.00    +0.000 A 
ATOM      2  C   UNL     1       1.343   6.982  20.840  0.00  0.00    +0.000 A 
ATOM      3  C   UNL     1       1.131   8.314  20.481  0.00  0.00    +0.000 A 
ATOM      4  C   UNL     1       1.695   8.812  19.312  0.00  0.00    +0.000 A 
ATOM      5  C   UNL     1       2.462   7.976  18.496  0.00  0.00    +0.000 A 
ATOM      6  C   UNL     1       2.725   6.647  18.863  0.00  0.00    +0.000 A 
ENDROOT
BRANCH   6   7
ATOM      7  N   UNL     1       3.560   5.817  18.057  0.00  0.00    +0.000 N 
ATOM      8  C   UNL     1       4.867   5.445  18.368  0.00  0.00    +0.000 C 
ATOM      9  O   UNL     1       5.423   5.665  19.442  0.00  0.00    +0.000 OA
ATOM     10  H   UNL     1       3.099   5.363  17.275  0.00  0.00    +0.000 HD
BRANCH   8  11
ATOM     11  C   UNL     1       5.580   4.640  17.282  0.00  0.00    +0.000 C 
ATOM     12  C   UNL     1       4.760   4.431  16.013  0.00  0.00    +0.000 C 
ATOM     13  C   UNL     1       5.805   3.967  15.002  0.00  0.00    +0.000 C 
ATOM     14  C   UNL     1       7.074   4.740  15.348  0.00  0.00    +0.000 C 
ATOM     15  C   UNL     1       6.828   5.348  16.729  0.00  0.00    +0.000 C 
ENDBRANCH   8  11
ENDBRANCH   6   7
BRANCH   4  16
ATOM     16  S   UNL     1       1.329  10.483  18.796  0.00  0.00    +0.000 S 
ATOM     17  O   UNL     1       1.725  11.371  19.866  0.00  0.00    +0.000 OA
ATOM     18  O   UNL     1       1.865  10.627  17.458  0.00  0.00    +0.000 OA
BRANCH  16  19
ATOM     19  N   UNL     1      -0.390  10.505  18.677  0.00  0.00    +0.000 NA
ATOM     20  C   UNL     1      -1.023  11.797  19.044  0.00  0.00    +0.000 C 
ATOM     21  C   UNL     1      -2.543  11.693  19.081  0.00  0.00    +0.000 C 
ATOM     22  C   UNL     1      -3.078  11.144  17.768  0.00  0.00    +0.000 C 
ATOM     23  C   UNL     1      -2.470   9.771  17.518  0.00  0.00    +0.000 C 
ATOM     24  C   UNL     1      -0.947   9.845  17.466  0.00  0.00    +0.000 C 
ENDBRANCH  16  19
ENDBRANCH   4  16
BRANCH   1  25
ATOM     25  O   UNL     1       2.366   4.813  20.395  0.00  0.00    +0.000 OA
BRANCH  25  27
ATOM     26  C   UNL     1       1.065   3.268  19.091  0.00  0.00    +0.000 C 
ATOM     27  C   UNL     1       1.221   3.930  20.463  0.00  0.00    +0.000 C 
ATOM     28  C   UNL     1       1.381   2.819  21.509  0.00  0.00    +0.000 C 
ENDBRANCH  25  27
ENDBRANCH   1  25
TORSDOF 6
ENDMDL
MODEL 5
REMARK VINA RESULT:      -8.0      2.737      7.658
REMARK  Name = 
REMARK  8 active torsions:
REMARK  status: ('A' for Active; 'I' for Inactive)
REMARK    1  A    between atoms: C_1  and  C_2
REMARK    2  A    between atoms: C_2  and  C_3
REMARK    3  A    between atoms: C_2  and  O_4
REMARK    4  A    between atoms: O_4  and  C_5
REMARK    5  A    between atoms: C_8  and  S_9
REMARK    6  A    between atoms: S_9  and  N_12
REMARK    7  A    between atoms: C_19  and  N_20
REMARK    8  A    between atoms: C_21  and  C_23
REMARK                            x       y       z     vdW  Elec       q    Type
REMARK                         _______ _______ _______ _____ _____    ______ ____
ROOT
ATOM      1  C   UNL     1       2.033   6.447  19.981  0.00  0.00    +0.000 A 
ATOM      2  C   UNL     1       1.373   7.260  20.915  0.00  0.00    +0.000 A 
ATOM      3  C   UNL     1       1.166   8.620  20.673  0.00  0.00    +0.000 A 
ATOM      4  C   UNL     1       1.611   9.185  19.484  0.00  0.00    +0.000 A 
ATOM      5  C   UNL     1       2.254   8.391  18.531  0.00  0.00    +0.000 A 
ATOM      6  C   UNL     1       2.512   7.032  18.774  0.00  0.00    +0.000 A 
ENDROOT
BRANCH   6   7
ATOM      7  N   UNL     1       3.223   6.240  17.824  0.00  0.00    +0.000 N 
ATOM      8  C   UNL     1       4.531   5.783  17.976  0.00  0.00    +0.000 C 
ATOM      9  O   UNL     1       5.194   5.879  19.005  0.00  0.00    +0.000 OA
ATOM     10  H   UNL     1       2.668   5.881  17.054  0.00  0.00    +0.000 HD
BRANCH   8  11
ATOM     11  C   UNL     1       5.097   5.047  16.761  0.00  0.00    +0.000 C 
ATOM     12  C   UNL     1       5.252   5.913  15.516  0.00  0.00    +0.000 C 
ATOM     13  C   UNL     1       6.160   5.073  14.623  0.00  0.00    +0.000 C 
ATOM     14  C   UNL     1       7.126   4.373  15.574  0.00  0.00    +0.000 C 
ATOM     15  C   UNL     1       6.537   4.552  16.974  0.00  0.00    +0.000 C 
ENDBRANCH   8  11
ENDBRANCH   6   7
BRANCH   4  16
ATOM     16  S   UNL     1       1.245  10.897  19.128  0.00  0.00    +0.000 S 
ATOM     17  O   UNL     1       1.161  11.601  20.388  0.00  0.00    +0.000 OA
ATOM     18  O   UNL     1       2.171  11.309  18.093  0.00  0.00    +0.000 OA
BRANCH  16  19
ATOM     19  N   UNL     1      -0.330  10.841  18.429  0.00  0.00    +0.000 NA
ATOM     20  C   UNL     1      -0.599   9.641  17.597  0.00  0.00    +0.000 C 
ATOM     21  C   UNL     1      -1.939   9.741  16.878  0.00  0.00    +0.000 C 
ATOM     22  C   UNL     1      -3.062  10.020  17.864  0.00  0.00    +0.000 C 
ATOM     23  C   UNL     1      -2.769  11.322  18.596  0.00  0.00    +0.000 C 
ATOM     24  C   UNL     1      -1.436  11.249  19.336  0.00  0.00    +0.000 C 
ENDBRANCH  16  19
ENDBRANCH   4  16
BRANCH   1  25
ATOM     25  O   UNL     1       2.267   5.104  20.210  0.00  0.00    +0.000 OA
BRANCH  25  27
ATOM     26  C   UNL     1       1.132   3.586  18.731  0.00  0.00    +0.000 C 
ATOM     27  C   UNL     1       1.129   4.213  20.128  0.00  0.00    +0.000 C 
ATOM     28  C   UNL     1       1.180   3.077  21.157  0.00  0.00    +0.000 C 
ENDBRANCH  25  27
ENDBRANCH   1  25
TORSDOF 6
ENDMDL
MODEL 6
REMARK VINA RESULT:      -8.0      2.584      8.022
REMARK  Name = 
REMARK  8 active torsions:
REMARK  status: ('A' for Active; 'I' for Inactive)
REMARK    1  A    between atoms: C_1  and  C_2
REMARK    2  A    between atoms: C_2  and  C_3
REMARK    3  A    between atoms: C_2  and  O_4
REMARK    4  A    between atoms: O_4  and  C_5
REMARK    5  A    between atoms: C_8  and  S_9
REMARK    6  A    between atoms: S_9  and  N_12
REMARK    7  A    between atoms: C_19  and  N_20
REMARK    8  A    between atoms: C_21  and  C_23
REMARK                            x       y       z     vdW  Elec       q    Type
REMARK                         _______ _______ _______ _____ _____    ______ ____
ROOT
ATOM      1  C   UNL     1       2.396   6.058  20.040  0.00  0.00    +0.000 A 
ATOM      2  C   UNL     1       1.597   6.900  20.828  0.00  0.00    +0.000 A 
ATOM      3  C   UNL     1       1.246   8.180  20.395  0.00  0.00    +0.000 A 
ATOM      4  C   UNL     1       1.685   8.634  19.157  0.00  0.00    +0.000 A 
ATOM      5  C   UNL     1       2.466   7.806  18.346  0.00  0.00    +0.000 A 
ATOM      6  C   UNL     1       2.867   6.534  18.783  0.00  0.00    +0.000 A 
ENDROOT
BRANCH   6   7
ATOM      7  N   UNL     1       3.716   5.717  17.978  0.00  0.00    +0.000 N 
ATOM      8  C   UNL     1       5.063   5.462  18.228  0.00  0.00    +0.000 C 
ATOM      9  O   UNL     1       5.661   5.790  19.250  0.00  0.00    +0.000 OA
ATOM     10  H   UNL     1       3.246   5.182  17.254  0.00  0.00    +0.000 HD
BRANCH   8  11
ATOM     11  C   UNL     1       5.772   4.644  17.149  0.00  0.00    +0.000 C 
ATOM     12  C   UNL     1       4.886   4.255  15.970  0.00  0.00    +0.000 C 
ATOM     13  C   UNL     1       5.895   3.813  14.914  0.00  0.00    +0.000 C 
ATOM     14  C   UNL     1       7.100   4.730  15.097  0.00  0.00    +0.000 C 
ATOM     15  C   UNL     1       6.897   5.422  16.446  0.00  0.00    +0.000 C 
ENDBRANCH   8  11
ENDBRANCH   6   7
BRANCH   4  16
ATOM     16  S   UNL     1       1.141  10.227  18.556  0.00  0.00    +0.000 S 
ATOM     17  O   UNL     1       2.251  10.836  17.857  0.00  0.00    +0.000 OA
ATOM     18  O   UNL     1      -0.133  10.007  17.902  0.00  0.00    +0.000 OA
BRANCH  16  19
ATOM     19  N   UNL     1       0.844  11.126  19.995  0.00  0.00    +0.000 NA
ATOM     20  C   UNL     1       1.352  12.520  19.975  0.00  0.00    +0.000 C 
ATOM     21  C   UNL     1       1.207  13.196  21.333  0.00  0.00    +0.000 C 
ATOM     22  C   UNL     1      -0.229  13.115  21.826  0.00  0.00    +0.000 C 
ATOM     23  C   UNL     1      -0.639  11.654  21.927  0.00  0.00    +0.000 C 
ATOM     24  C   UNL     1      -0.514  10.951  20.578  0.00  0.00    +0.000 C 
ENDBRANCH  16  19
ENDBRANCH   4  16
BRANCH   1  25
ATOM     25  O   UNL     1       2.772   4.795  20.460  0.00  0.00    +0.000 OA
BRANCH  25  27
ATOM     26  C   UNL     1       0.927   3.423  19.759  0.00  0.00    +0.000 C 
ATOM     27  C   UNL     1       1.727   3.929  20.962  0.00  0.00    +0.000 C 
ATOM     28  C   UNL     1       2.270   2.709  21.716  0.00  0.00    +0.000 C 
ENDBRANCH  25  27
ENDBRANCH   1  25
TORSDOF 6
ENDMDL
MODEL 7
REMARK VINA RESULT:      -7.9      0.691      1.173
REMARK  Name = 
REMARK  8 active torsions:
REMARK  status: ('A' for Active; 'I' for Inactive)
REMARK    1  A    between atoms: C_1  and  C_2
REMARK    2  A    between atoms: C_2  and  C_3
REMARK    3  A    between atoms: C_2  and  O_4
REMARK    4  A    between atoms: O_4  and  C_5
REMARK    5  A    between atoms: C_8  and  S_9
REMARK    6  A    between atoms: S_9  and  N_12
REMARK    7  A    between atoms: C_19  and  N_20
REMARK    8  A    between atoms: C_21  and  C_23
REMARK                            x       y       z     vdW  Elec       q    Type
REMARK                         _______ _______ _______ _____ _____    ______ ____
ROOT
ATOM      1  C   UNL     1       3.285   4.459  18.852  0.00  0.00    +0.000 A 
ATOM      2  C   UNL     1       4.046   3.375  18.386  0.00  0.00    +0.000 A 
ATOM      3  C   UNL     1       5.187   3.573  17.607  0.00  0.00    +0.000 A 
ATOM      4  C   UNL     1       5.590   4.865  17.288  0.00  0.00    +0.000 A 
ATOM      5  C   UNL     1       4.859   5.960  17.756  0.00  0.00    +0.000 A 
ATOM      6  C   UNL     1       3.684   5.781  18.503  0.00  0.00    +0.000 A 
ENDROOT
BRANCH   6   7
ATOM      7  N   UNL     1       2.907   6.901  18.926  0.00  0.00    +0.000 N 
ATOM      8  C   UNL     1       2.574   7.996  18.131  0.00  0.00    +0.000 C 
ATOM      9  O   UNL     1       2.783   8.077  16.923  0.00  0.00    +0.000 OA
ATOM     10  H   UNL     1       2.460   6.803  19.832  0.00  0.00    +0.000 HD
BRANCH   8  11
ATOM     11  C   UNL     1       1.827   9.113  18.861  0.00  0.00    +0.000 C 
ATOM     12  C   UNL     1       0.591   9.625  18.130  0.00  0.00    +0.000 C 
ATOM     13  C   UNL     1      -0.146  10.412  19.211  0.00  0.00    +0.000 C 
ATOM     14  C   UNL     1       0.097   9.644  20.506  0.00  0.00    +0.000 C 
ATOM     15  C   UNL     1       1.226   8.659  20.202  0.00  0.00    +0.000 C 
ENDBRANCH   8  11
ENDBRANCH   6   7
BRANCH   4  16
ATOM     16  S   UNL     1       7.112   5.119  16.387  0.00  0.00    +0.000 S 
ATOM     17  O   UNL     1       7.298   6.544  16.231  0.00  0.00    +0.000 OA
ATOM     18  O   UNL     1       8.113   4.293  17.030  0.00  0.00    +0.000 OA
BRANCH  16  19
ATOM     19  N   UNL     1       6.787   4.438  14.838  0.00  0.00    +0.000 NA
ATOM     20  C   UNL     1       5.348   4.235  14.535  0.00  0.00    +0.000 C 
ATOM     21  C   UNL     1       5.145   3.477  13.229  0.00  0.00    +0.000 C 
ATOM     22  C   UNL     1       5.881   4.161  12.088  0.00  0.00    +0.000 C 
ATOM     23  C   UNL     1       7.364   4.230  12.422  0.00  0.00    +0.000 C 
ATOM     24  C   UNL     1       7.601   4.993  13.723  0.00  0.00    +0.000 C 
ENDBRANCH  16  19
ENDBRANCH   4  16
BRANCH   1  25
ATOM     25  O   UNL     1       2.140   4.284  19.607  0.00  0.00    +0.000 OA
BRANCH  25  27
ATOM     26  C   UNL     1       1.286   2.845  21.334  0.00  0.00    +0.000 C 
ATOM     27  C   UNL     1       1.725   2.922  19.869  0.00  0.00    +0.000 C 
ATOM     28  C   UNL     1       0.545   2.476  18.997  0.00  0.00    +0.000 C 
ENDBRANCH  25  27
ENDBRANCH   1  25
TORSDOF 6
ENDMDL
MODEL 8
REMARK VINA RESULT:      -7.8      0.897      1.299
REMARK  Name = 
REMARK  8 active torsions:
REMARK  status: ('A' for Active; 'I' for Inactive)
REMARK    1  A    between atoms: C_1  and  C_2
REMARK    2  A    between atoms: C_2  and  C_3
REMARK    3  A    between atoms: C_2  and  O_4
REMARK    4  A    between atoms: O_4  and  C_5
REMARK    5  A    between atoms: C_8  and  S_9
REMARK    6  A    between atoms: S_9  and  N_12
REMARK    7  A    between atoms: C_19  and  N_20
REMARK    8  A    between atoms: C_21  and  C_23
REMARK                            x       y       z     vdW  Elec       q    Type
REMARK                         _______ _______ _______ _____ _____    ______ ____
ROOT
ATOM      1  C   UNL     1       2.598   4.745  18.193  0.00  0.00    +0.000 A 
ATOM      2  C   UNL     1       3.375   3.687  17.694  0.00  0.00    +0.000 A 
ATOM      3  C   UNL     1       4.621   3.918  17.109  0.00  0.00    +0.000 A 
ATOM      4  C   UNL     1       5.114   5.215  17.021  0.00  0.00    +0.000 A 
ATOM      5  C   UNL     1       4.366   6.281  17.528  0.00  0.00    +0.000 A 
ATOM      6  C   UNL     1       3.092   6.076  18.080  0.00  0.00    +0.000 A 
ENDROOT
BRANCH   6   7
ATOM      7  N   UNL     1       2.307   7.175  18.539  0.00  0.00    +0.000 N 
ATOM      8  C   UNL     1       2.254   8.433  17.941  0.00  0.00    +0.000 C 
ATOM      9  O   UNL     1       2.763   8.719  16.861  0.00  0.00    +0.000 OA
ATOM     10  H   UNL     1       1.642   6.957  19.274  0.00  0.00    +0.000 HD
BRANCH   8  11
ATOM     11  C   UNL     1       1.420   9.467  18.698  0.00  0.00    +0.000 C 
ATOM     12  C   UNL     1       1.923  10.900  18.566  0.00  0.00    +0.000 C 
ATOM     13  C   UNL     1       0.741  11.727  19.063  0.00  0.00    +0.000 C 
ATOM     14  C   UNL     1      -0.502  10.976  18.596  0.00  0.00    +0.000 C 
ATOM     15  C   UNL     1      -0.015   9.594  18.159  0.00  0.00    +0.000 C 
ENDBRANCH   8  11
ENDBRANCH   6   7
BRANCH   4  16
ATOM     16  S   UNL     1       6.755   5.495  16.375  0.00  0.00    +0.000 S 
ATOM     17  O   UNL     1       7.045   6.906  16.503  0.00  0.00    +0.000 OA
ATOM     18  O   UNL     1       7.610   4.491  16.975  0.00  0.00    +0.000 OA
BRANCH  16  19
ATOM     19  N   UNL     1       6.604   5.120  14.699  0.00  0.00    +0.000 NA
ATOM     20  C   UNL     1       7.815   5.397  13.887  0.00  0.00    +0.000 C 
ATOM     21  C   UNL     1       7.555   5.205  12.398  0.00  0.00    +0.000 C 
ATOM     22  C   UNL     1       6.983   3.823  12.124  0.00  0.00    +0.000 C 
ATOM     23  C   UNL     1       5.686   3.658  12.903  0.00  0.00    +0.000 C 
ATOM     24  C   UNL     1       5.917   3.835  14.401  0.00  0.00    +0.000 C 
ENDBRANCH  16  19
ENDBRANCH   4  16
BRANCH   1  25
ATOM     25  O   UNL     1       1.352   4.541  18.757  0.00  0.00    +0.000 OA
BRANCH  25  27
ATOM     26  C   UNL     1       1.510   2.486  19.997  0.00  0.00    +0.000 C 
ATOM     27  C   UNL     1       1.318   4.002  20.101  0.00  0.00    +0.000 C 
ATOM     28  C   UNL     1       2.430   4.559  20.999  0.00  0.00    +0.000 C 
ENDBRANCH  25  27
ENDBRANCH   1  25
TORSDOF 6
ENDMDL
MODEL 9
REMARK VINA RESULT:      -7.8      2.373      3.027
REMARK  Name = 
REMARK  8 active torsions:
REMARK  status: ('A' for Active; 'I' for Inactive)
REMARK    1  A    between atoms: C_1  and  C_2
REMARK    2  A    between atoms: C_2  and  C_3
REMARK    3  A    between atoms: C_2  and  O_4
REMARK    4  A    between atoms: O_4  and  C_5
REMARK    5  A    between atoms: C_8  and  S_9
REMARK    6  A    between atoms: S_9  and  N_12
REMARK    7  A    between atoms: C_19  and  N_20
REMARK    8  A    between atoms: C_21  and  C_23
REMARK                            x       y       z     vdW  Elec       q    Type
REMARK                         _______ _______ _______ _____ _____    ______ ____
ROOT
ATOM      1  C   UNL     1       2.031   4.492  18.446  0.00  0.00    +0.000 A 
ATOM      2  C   UNL     1       2.523   3.528  17.552  0.00  0.00    +0.000 A 
ATOM      3  C   UNL     1       3.595   3.809  16.702  0.00  0.00    +0.000 A 
ATOM      4  C   UNL     1       4.197   5.061  16.740  0.00  0.00    +0.000 A 
ATOM      5  C   UNL     1       3.735   6.030  17.636  0.00  0.00    +0.000 A 
ATOM      6  C   UNL     1       2.631   5.783  18.466  0.00  0.00    +0.000 A 
ENDROOT
BRANCH   6   7
ATOM      7  N   UNL     1       2.126   6.796  19.334  0.00  0.00    +0.000 N 
ATOM      8  C   UNL     1       1.853   8.112  18.963  0.00  0.00    +0.000 C 
ATOM      9  O   UNL     1       1.876   8.535  17.810  0.00  0.00    +0.000 OA
ATOM     10  H   UNL     1       1.820   6.475  20.247  0.00  0.00    +0.000 HD
BRANCH   8  11
ATOM     11  C   UNL     1       1.425   9.026  20.111  0.00  0.00    +0.000 C 
ATOM     12  C   UNL     1       0.135   9.798  19.854  0.00  0.00    +0.000 C 
ATOM     13  C   UNL     1      -0.250  10.297  21.243  0.00  0.00    +0.000 C 
ATOM     14  C   UNL     1       0.166   9.185  22.202  0.00  0.00    +0.000 C 
ATOM     15  C   UNL     1       1.072   8.255  21.394  0.00  0.00    +0.000 C 
ENDBRANCH   8  11
ENDBRANCH   6   7
BRANCH   4  16
ATOM     16  S   UNL     1       5.637   5.380  15.734  0.00  0.00    +0.000 S 
ATOM     17  O   UNL     1       5.972   4.155  15.043  0.00  0.00    +0.000 OA
ATOM     18  O   UNL     1       5.370   6.606  15.010  0.00  0.00    +0.000 OA
BRANCH  16  19
ATOM     19  N   UNL     1       6.875   5.711  16.886  0.00  0.00    +0.000 NA
ATOM     20  C   UNL     1       6.918   7.114  17.369  0.00  0.00    +0.000 C 
ATOM     21  C   UNL     1       8.135   7.374  18.248  0.00  0.00    +0.000 C 
ATOM     22  C   UNL     1       8.199   6.372  19.390  0.00  0.00    +0.000 C 
ATOM     23  C   UNL     1       8.267   4.965  18.814  0.00  0.00    +0.000 C 
ATOM     24  C   UNL     1       7.054   4.671  17.935  0.00  0.00    +0.000 C 
ENDBRANCH  16  19
ENDBRANCH   4  16
BRANCH   1  25
ATOM     25  O   UNL     1       0.958   4.241  19.281  0.00  0.00    +0.000 OA
BRANCH  25  27
ATOM     26  C   UNL     1       1.724   2.053  19.919  0.00  0.00    +0.000 C 
ATOM     27  C   UNL     1       1.202   3.397  20.432  0.00  0.00    +0.000 C 
ATOM     28  C   UNL     1       2.251   3.977  21.390  0.00  0.00    +0.000 C 
ENDBRANCH  25  27
ENDBRANCH   1  25
TORSDOF 6
ENDMDL
