MODEL 1
REMARK VINA RESULT:      -7.8      0.000      0.000
REMARK  Name = 
REMARK  3 active torsions:
REMARK  status: ('A' for Active; 'I' for Inactive)
REMARK    1  A    between atoms: C_2  and  C_5
REMARK    2  A    between atoms: N_9  and  C_10
REMARK    3  A    between atoms: C_17  and  C_18
REMARK                            x       y       z     vdW  Elec       q    Type
REMARK                         _______ _______ _______ _____ _____    ______ ____
ROOT
ATOM      1  C   UNL     1       2.706   3.840  20.050  0.00  0.00    +0.000 A 
ATOM      2  C   UNL     1       3.720   2.959  19.730  0.00  0.00    +0.000 A 
ATOM      3  N   UNL     1       4.875   3.306  19.134  0.00  0.00    +0.000 NA
ATOM      4  C   UNL     1       5.022   4.590  18.819  0.00  0.00    +0.000 A 
ATOM      5  N   UNL     1       6.208   4.926  18.189  0.00  0.00    +0.000 N 
ATOM      6  N   UNL     1       4.117   5.525  19.124  0.00  0.00    +0.000 NA
ATOM      7  C   UNL     1       2.974   5.157  19.755  0.00  0.00    +0.000 A 
ATOM      8  H   UNL     1       6.870   4.179  18.361  0.00  0.00    +0.000 HD
ENDROOT
BRANCH   7   9
ATOM      9  C   UNL     1       2.117   6.306  20.093  0.00  0.00    +0.000 A 
ATOM     10  C   UNL     1       1.499   6.498  21.316  0.00  0.00    +0.000 A 
ATOM     11  N   UNL     1       0.836   7.697  21.295  0.00  0.00    +0.000 N 
ATOM     12  C   UNL     1       1.100   8.367  20.129  0.00  0.00    +0.000 A 
ATOM     13  C   UNL     1       0.721   9.650  19.715  0.00  0.00    +0.000 A 
ATOM     14 BR   UNL     1      -0.331  10.766  20.818  0.00  0.00    +0.000 Br
ATOM     15  C   UNL     1       1.162  10.104  18.472  0.00  0.00    +0.000 A 
ATOM     16  C   UNL     1       1.943   9.287  17.662  0.00  0.00    +0.000 A 
ATOM     17  C   UNL     1       2.309   8.000  18.081  0.00  0.00    +0.000 A 
ATOM     18  C   UNL     1       1.893   7.523  19.346  0.00  0.00    +0.000 A 
ATOM     19  H   UNL     1       0.282   8.076  22.052  0.00  0.00    +0.000 HD
ENDBRANCH   7   9
BRANCH   5  20
ATOM     20  C   UNL     1       6.683   6.293  18.378  0.00  0.00    +0.000 C 
ATOM     21  C   UNL     1       8.147   6.320  18.838  0.00  0.00    +0.000 C 
ATOM     22  C   UNL     1       8.617   7.765  18.973  0.00  0.00    +0.000 C 
ATOM     23  C   UNL     1       8.419   8.539  17.672  0.00  0.00    +0.000 C 
ATOM     24  N   UNL     1       7.037   8.475  17.192  0.00  0.00    +0.000 NA
ATOM     25  C   UNL     1       6.569   7.088  17.054  0.00  0.00    +0.000 C 
ATOM     26  H   UNL     1       6.966   8.948  16.292  0.00  0.00    +0.000 HD
ENDBRANCH   5  20
BRANCH   1  28
ATOM     27  F   UNL     1       0.341   3.966  20.185  0.00  0.00    +0.000 F 
ATOM     28  C   UNL     1       1.451   3.311  20.641  0.00  0.00    +0.000 C 
ATOM     29  F   UNL     1       1.392   3.421  21.995  0.00  0.00    +0.000 F 
ATOM     30  F   UNL     1       1.217   2.003  20.344  0.00  0.00    +0.000 F 
ENDBRANCH   1  28
TORSDOF 3
ENDMDL
MODEL 2
REMARK VINA RESULT:      -7.8      4.773      7.509
REMARK  Name = 
REMARK  3 active torsions:
REMARK  status: ('A' for Active; 'I' for Inactive)
REMARK    1  A    between atoms: C_2  and  C_5
REMARK    2  A    between atoms: N_9  and  C_10
REMARK    3  A    between atoms: C_17  and  C_18
REMARK                            x       y       z     vdW  Elec       q    Type
REMARK                         _______ _______ _______ _____ _____    ______ ____
ROOT
ATOM      1  C   UNL     1      -0.693  11.504  18.422  0.00  0.00    +0.000 A 
ATOM      2  C   UNL     1      -0.875  12.819  18.042  0.00  0.00    +0.000 A 
ATOM      3  N   UNL     1      -0.192  13.863  18.545  0.00  0.00    +0.000 NA
ATOM      4  C   UNL     1       0.702  13.589  19.492  0.00  0.00    +0.000 A 
ATOM      5  N   UNL     1       1.381  14.678  20.014  0.00  0.00    +0.000 N 
ATOM      6  N   UNL     1       0.978  12.347  19.899  0.00  0.00    +0.000 NA
ATOM      7  C   UNL     1       0.301  11.308  19.353  0.00  0.00    +0.000 A 
ATOM      8  H   UNL     1       1.285  15.443  19.358  0.00  0.00    +0.000 HD
ENDROOT
BRANCH   7   9
ATOM      9  C   UNL     1       0.773  10.001  19.844  0.00  0.00    +0.000 A 
ATOM     10  C   UNL     1       0.365   9.406  21.025  0.00  0.00    +0.000 A 
ATOM     11  N   UNL     1       0.958   8.176  21.130  0.00  0.00    +0.000 N 
ATOM     12  C   UNL     1       1.656   7.884  19.987  0.00  0.00    +0.000 A 
ATOM     13  C   UNL     1       2.333   6.717  19.611  0.00  0.00    +0.000 A 
ATOM     14 BR   UNL     1       2.401   5.212  20.751  0.00  0.00    +0.000 Br
ATOM     15  C   UNL     1       2.940   6.677  18.356  0.00  0.00    +0.000 A 
ATOM     16  C   UNL     1       2.885   7.781  17.512  0.00  0.00    +0.000 A 
ATOM     17  C   UNL     1       2.212   8.948  17.902  0.00  0.00    +0.000 A 
ATOM     18  C   UNL     1       1.569   9.008  19.160  0.00  0.00    +0.000 A 
ATOM     19  H   UNL     1       0.850   7.535  21.906  0.00  0.00    +0.000 HD
ENDBRANCH   7   9
BRANCH   5  20
ATOM     20  C   UNL     1       2.716  14.420  20.544  0.00  0.00    +0.000 C 
ATOM     21  C   UNL     1       3.791  15.178  19.754  0.00  0.00    +0.000 C 
ATOM     22  C   UNL     1       5.162  14.922  20.372  0.00  0.00    +0.000 C 
ATOM     23  C   UNL     1       5.182  15.293  21.853  0.00  0.00    +0.000 C 
ATOM     24  N   UNL     1       4.126  14.618  22.610  0.00  0.00    +0.000 NA
ATOM     25  C   UNL     1       2.797  14.858  22.028  0.00  0.00    +0.000 C 
ATOM     26  H   UNL     1       4.136  14.944  23.576  0.00  0.00    +0.000 HD
ENDBRANCH   5  20
BRANCH   1  28
ATOM     27  F   UNL     1      -2.468  10.967  16.942  0.00  0.00    +0.000 F 
ATOM     28  C   UNL     1      -1.568  10.457  17.837  0.00  0.00    +0.000 C 
ATOM     29  F   UNL     1      -2.322   9.796  18.755  0.00  0.00    +0.000 F 
ATOM     30  F   UNL     1      -0.890   9.511  17.131  0.00  0.00    +0.000 F 
ENDBRANCH   1  28
TORSDOF 3
ENDMDL
MODEL 3
REMARK VINA RESULT:      -7.7      1.403      2.196
REMARK  Name = 
REMARK  3 active torsions:
REMARK  status: ('A' for Active; 'I' for Inactive)
REMARK    1  A    between atoms: C_2  and  C_5
REMARK    2  A    between atoms: N_9  and  C_10
REMARK    3  A    between atoms: C_17  and  C_18
REMARK                            x       y       z     vdW  Elec       q    Type
REMARK                         _______ _______ _______ _____ _____    ______ ____
ROOT
ATOM      1  C   UNL     1       2.963   4.273  19.615  0.00  0.00    +0.000 A 
ATOM      2  C   UNL     1       3.792   3.182  19.789  0.00  0.00    +0.000 A 
ATOM      3  N   UNL     1       5.049   3.092  19.318  0.00  0.00    +0.000 NA
ATOM      4  C   UNL     1       5.498   4.130  18.617  0.00  0.00    +0.000 A 
ATOM      5  N   UNL     1       6.786   4.013  18.122  0.00  0.00    +0.000 N 
ATOM      6  N   UNL     1       4.788   5.246  18.429  0.00  0.00    +0.000 NA
ATOM      7  C   UNL     1       3.536   5.327  18.941  0.00  0.00    +0.000 A 
ATOM      8  H   UNL     1       7.252   3.283  18.648  0.00  0.00    +0.000 HD
ENDROOT
BRANCH   7   9
ATOM      9  C   UNL     1       2.915   6.644  18.719  0.00  0.00    +0.000 A 
ATOM     10  C   UNL     1       2.714   7.224  17.479  0.00  0.00    +0.000 A 
ATOM     11  N   UNL     1       2.058   8.415  17.647  0.00  0.00    +0.000 N 
ATOM     12  C   UNL     1       1.707   8.585  18.961  0.00  0.00    +0.000 A 
ATOM     13  C   UNL     1       0.953   9.593  19.575  0.00  0.00    +0.000 A 
ATOM     14 BR   UNL     1       0.239  11.029  18.577  0.00  0.00    +0.000 Br
ATOM     15  C   UNL     1       0.715   9.501  20.946  0.00  0.00    +0.000 A 
ATOM     16  C   UNL     1       1.234   8.441  21.681  0.00  0.00    +0.000 A 
ATOM     17  C   UNL     1       1.995   7.442  21.058  0.00  0.00    +0.000 A 
ATOM     18  C   UNL     1       2.234   7.498  19.665  0.00  0.00    +0.000 A 
ATOM     19  H   UNL     1       1.804   9.056  16.906  0.00  0.00    +0.000 HD
ENDBRANCH   7   9
BRANCH   5  20
ATOM     20  C   UNL     1       7.521   5.257  17.916  0.00  0.00    +0.000 C 
ATOM     21  C   UNL     1       6.745   6.225  17.013  0.00  0.00    +0.000 C 
ATOM     22  C   UNL     1       7.524   7.528  16.865  0.00  0.00    +0.000 C 
ATOM     23  C   UNL     1       7.834   8.148  18.226  0.00  0.00    +0.000 C 
ATOM     24  N   UNL     1       8.526   7.216  19.117  0.00  0.00    +0.000 NA
ATOM     25  C   UNL     1       7.785   5.955  19.272  0.00  0.00    +0.000 C 
ATOM     26  H   UNL     1       8.653   7.648  20.032  0.00  0.00    +0.000 HD
ENDBRANCH   5  20
BRANCH   1  28
ATOM     27  F   UNL     1       1.147   2.925  20.332  0.00  0.00    +0.000 F 
ATOM     28  C   UNL     1       1.571   4.209  20.126  0.00  0.00    +0.000 C 
ATOM     29  F   UNL     1       0.652   4.751  19.284  0.00  0.00    +0.000 F 
ATOM     30  F   UNL     1       1.404   4.817  21.333  0.00  0.00    +0.000 F 
ENDBRANCH   1  28
TORSDOF 3
ENDMDL
MODEL 4
REMARK VINA RESULT:      -7.6      1.511      2.008
REMARK  Name = 
REMARK  3 active torsions:
REMARK  status: ('A' for Active; 'I' for Inactive)
REMARK    1  A    between atoms: C_2  and  C_5
REMARK    2  A    between atoms: N_9  and  C_10
REMARK    3  A    between atoms: C_17  and  C_18
REMARK                            x       y       z     vdW  Elec       q    Type
REMARK                         _______ _______ _______ _____ _____    ______ ____
ROOT
ATOM      1  C   UNL     1       2.317   2.902  18.638  0.00  0.00    +0.000 A 
ATOM      2  C   UNL     1       2.996   1.950  17.903  0.00  0.00    +0.000 A 
ATOM      3  N   UNL     1       4.080   2.197  17.145  0.00  0.00    +0.000 NA
ATOM      4  C   UNL     1       4.497   3.460  17.096  0.00  0.00    +0.000 A 
ATOM      5  N   UNL     1       5.600   3.700  16.295  0.00  0.00    +0.000 N 
ATOM      6  N   UNL     1       3.932   4.444  17.802  0.00  0.00    +0.000 NA
ATOM      7  C   UNL     1       2.862   4.164  18.585  0.00  0.00    +0.000 A 
ATOM      8  H   UNL     1       6.066   2.815  16.139  0.00  0.00    +0.000 HD
ENDROOT
BRANCH   7   9
ATOM      9  C   UNL     1       2.404   5.331  19.360  0.00  0.00    +0.000 A 
ATOM     10  C   UNL     1       2.301   5.374  20.739  0.00  0.00    +0.000 A 
ATOM     11  N   UNL     1       1.904   6.630  21.115  0.00  0.00    +0.000 N 
ATOM     12  C   UNL     1       1.860   7.462  20.027  0.00  0.00    +0.000 A 
ATOM     13  C   UNL     1       1.603   8.836  19.947  0.00  0.00    +0.000 A 
ATOM     14 BR   UNL     1       1.228   9.856  21.493  0.00  0.00    +0.000 Br
ATOM     15  C   UNL     1       1.655   9.449  18.695  0.00  0.00    +0.000 A 
ATOM     16  C   UNL     1       1.937   8.702  17.557  0.00  0.00    +0.000 A 
ATOM     17  C   UNL     1       2.185   7.325  17.647  0.00  0.00    +0.000 A 
ATOM     18  C   UNL     1       2.160   6.682  18.907  0.00  0.00    +0.000 A 
ATOM     19  H   UNL     1       1.731   6.931  22.066  0.00  0.00    +0.000 HD
ENDBRANCH   7   9
BRANCH   5  20
ATOM     20  C   UNL     1       6.439   4.836  16.664  0.00  0.00    +0.000 C 
ATOM     21  C   UNL     1       5.637   6.144  16.685  0.00  0.00    +0.000 C 
ATOM     22  C   UNL     1       6.538   7.294  17.125  0.00  0.00    +0.000 C 
ATOM     23  C   UNL     1       7.187   7.007  18.477  0.00  0.00    +0.000 C 
ATOM     24  N   UNL     1       7.911   5.734  18.487  0.00  0.00    +0.000 NA
ATOM     25  C   UNL     1       7.054   4.615  18.068  0.00  0.00    +0.000 C 
ATOM     26  H   UNL     1       8.271   5.554  19.423  0.00  0.00    +0.000 HD
ENDBRANCH   5  20
BRANCH   1  28
ATOM     27  F   UNL     1       0.423   1.478  18.764  0.00  0.00    +0.000 F 
ATOM     28  C   UNL     1       1.091   2.504  19.374  0.00  0.00    +0.000 C 
ATOM     29  F   UNL     1       0.172   3.500  19.489  0.00  0.00    +0.000 F 
ATOM     30  F   UNL     1       1.333   2.048  20.633  0.00  0.00    +0.000 F 
ENDBRANCH   1  28
TORSDOF 3
ENDMDL
MODEL 5
REMARK VINA RESULT:      -7.3      4.831      7.506
REMARK  Name = 
REMARK  3 active torsions:
REMARK  status: ('A' for Active; 'I' for Inactive)
REMARK    1  A    between atoms: C_2  and  C_5
REMARK    2  A    between atoms: N_9  and  C_10
REMARK    3  A    between atoms: C_17  and  C_18
REMARK                            x       y       z     vdW  Elec       q    Type
REMARK                         _______ _______ _______ _____ _____    ______ ____
ROOT
ATOM      1  C   UNL     1      -0.597  11.714  18.455  0.00  0.00    +0.000 A 
ATOM      2  C   UNL     1      -0.907  13.054  18.575  0.00  0.00    +0.000 A 
ATOM      3  N   UNL     1      -0.042  14.009  18.964  0.00  0.00    +0.000 NA
ATOM      4  C   UNL     1       1.189  13.608  19.272  0.00  0.00    +0.000 A 
ATOM      5  N   UNL     1       2.060  14.599  19.690  0.00  0.00    +0.000 N 
ATOM      6  N   UNL     1       1.597  12.341  19.149  0.00  0.00    +0.000 NA
ATOM      7  C   UNL     1       0.716  11.403  18.723  0.00  0.00    +0.000 A 
ATOM      8  H   UNL     1       1.680  15.489  19.389  0.00  0.00    +0.000 HD
ENDROOT
BRANCH   7   9
ATOM      9  C   UNL     1       1.335  10.075  18.563  0.00  0.00    +0.000 A 
ATOM     10  C   UNL     1       2.203   9.726  17.544  0.00  0.00    +0.000 A 
ATOM     11  N   UNL     1       2.628   8.438  17.745  0.00  0.00    +0.000 N 
ATOM     12  C   UNL     1       2.158   7.963  18.941  0.00  0.00    +0.000 A 
ATOM     13  C   UNL     1       2.409   6.751  19.596  0.00  0.00    +0.000 A 
ATOM     14 BR   UNL     1       3.548   5.445  18.842  0.00  0.00    +0.000 Br
ATOM     15  C   UNL     1       1.818   6.534  20.841  0.00  0.00    +0.000 A 
ATOM     16  C   UNL     1       0.985   7.496  21.401  0.00  0.00    +0.000 A 
ATOM     17  C   UNL     1       0.734   8.703  20.733  0.00  0.00    +0.000 A 
ATOM     18  C   UNL     1       1.337   8.958  19.480  0.00  0.00    +0.000 A 
ATOM     19  H   UNL     1       3.253   7.924  17.138  0.00  0.00    +0.000 HD
ENDBRANCH   7   9
BRANCH   5  20
ATOM     20  C   UNL     1       3.480  14.366  19.445  0.00  0.00    +0.000 C 
ATOM     21  C   UNL     1       3.901  14.869  18.058  0.00  0.00    +0.000 C 
ATOM     22  C   UNL     1       5.399  14.653  17.864  0.00  0.00    +0.000 C 
ATOM     23  C   UNL     1       6.205  15.319  18.977  0.00  0.00    +0.000 C 
ATOM     24  N   UNL     1       5.776  14.889  20.309  0.00  0.00    +0.000 NA
ATOM     25  C   UNL     1       4.334  15.094  20.512  0.00  0.00    +0.000 C 
ATOM     26  H   UNL     1       6.295  15.406  21.019  0.00  0.00    +0.000 HD
ENDBRANCH   5  20
BRANCH   1  28
ATOM     27  F   UNL     1      -1.386  10.071  16.937  0.00  0.00    +0.000 F 
ATOM     28  C   UNL     1      -1.669  10.757  18.085  0.00  0.00    +0.000 C 
ATOM     29  F   UNL     1      -2.873  11.344  17.855  0.00  0.00    +0.000 F 
ATOM     30  F   UNL     1      -1.878   9.785  19.016  0.00  0.00    +0.000 F 
ENDBRANCH   1  28
TORSDOF 3
ENDMDL
MODEL 6
REMARK VINA RESULT:      -7.2      2.945      5.721
REMARK  Name = 
REMARK  3 active torsions:
REMARK  status: ('A' for Active; 'I' for Inactive)
REMARK    1  A    between atoms: C_2  and  C_5
REMARK    2  A    between atoms: N_9  and  C_10
REMARK    3  A    between atoms: C_17  and  C_18
REMARK                            x       y       z     vdW  Elec       q    Type
REMARK                         _______ _______ _______ _____ _____    ______ ____
ROOT
ATOM      1  C   UNL     1       2.283   3.299  19.351  0.00  0.00    +0.000 A 
ATOM      2  C   UNL     1       1.351   3.559  20.336  0.00  0.00    +0.000 A 
ATOM      3  N   UNL     1       1.112   4.774  20.863  0.00  0.00    +0.000 NA
ATOM      4  C   UNL     1       1.854   5.778  20.403  0.00  0.00    +0.000 A 
ATOM      5  N   UNL     1       1.610   7.017  20.971  0.00  0.00    +0.000 N 
ATOM      6  N   UNL     1       2.751   5.635  19.424  0.00  0.00    +0.000 NA
ATOM      7  C   UNL     1       2.951   4.407  18.885  0.00  0.00    +0.000 A 
ATOM      8  H   UNL     1       0.699   6.979  21.412  0.00  0.00    +0.000 HD
ENDROOT
BRANCH   7   9
ATOM      9  C   UNL     1       3.909   4.427  17.767  0.00  0.00    +0.000 A 
ATOM     10  C   UNL     1       3.639   3.976  16.487  0.00  0.00    +0.000 A 
ATOM     11  N   UNL     1       4.735   4.203  15.696  0.00  0.00    +0.000 N 
ATOM     12  C   UNL     1       5.684   4.909  16.388  0.00  0.00    +0.000 A 
ATOM     13  C   UNL     1       6.909   5.439  15.963  0.00  0.00    +0.000 A 
ATOM     14 BR   UNL     1       7.502   5.230  14.182  0.00  0.00    +0.000 Br
ATOM     15  C   UNL     1       7.677   6.153  16.882  0.00  0.00    +0.000 A 
ATOM     16  C   UNL     1       7.239   6.314  18.192  0.00  0.00    +0.000 A 
ATOM     17  C   UNL     1       6.015   5.772  18.609  0.00  0.00    +0.000 A 
ATOM     18  C   UNL     1       5.206   5.061  17.693  0.00  0.00    +0.000 A 
ATOM     19  H   UNL     1       4.817   3.952  14.719  0.00  0.00    +0.000 HD
ENDBRANCH   7   9
BRANCH   5  20
ATOM     20  C   UNL     1       1.898   8.183  20.141  0.00  0.00    +0.000 C 
ATOM     21  C   UNL     1       1.815   7.843  18.647  0.00  0.00    +0.000 C 
ATOM     22  C   UNL     1       2.072   9.098  17.818  0.00  0.00    +0.000 C 
ATOM     23  C   UNL     1       1.110  10.222  18.197  0.00  0.00    +0.000 C 
ATOM     24  N   UNL     1       1.138  10.519  19.631  0.00  0.00    +0.000 NA
ATOM     25  C   UNL     1       0.889   9.319  20.443  0.00  0.00    +0.000 C 
ATOM     26  H   UNL     1       0.437  11.226  19.847  0.00  0.00    +0.000 HD
ENDBRANCH   5  20
BRANCH   1  28
ATOM     27  F   UNL     1       1.735   1.006  19.619  0.00  0.00    +0.000 F 
ATOM     28  C   UNL     1       2.494   1.897  18.912  0.00  0.00    +0.000 C 
ATOM     29  F   UNL     1       3.774   1.462  19.061  0.00  0.00    +0.000 F 
ATOM     30  F   UNL     1       2.153   1.674  17.613  0.00  0.00    +0.000 F 
ENDBRANCH   1  28
TORSDOF 3
ENDMDL
MODEL 7
REMARK VINA RESULT:      -7.1      1.404      1.779
REMARK  Name = 
REMARK  3 active torsions:
REMARK  status: ('A' for Active; 'I' for Inactive)
REMARK    1  A    between atoms: C_2  and  C_5
REMARK    2  A    between atoms: N_9  and  C_10
REMARK    3  A    between atoms: C_17  and  C_18
REMARK                            x       y       z     vdW  Elec       q    Type
REMARK                         _______ _______ _______ _____ _____    ______ ____
ROOT
ATOM      1  C   UNL     1       2.686   3.206  20.237  0.00  0.00    +0.000 A 
ATOM      2  C   UNL     1       3.427   2.160  19.723  0.00  0.00    +0.000 A 
ATOM      3  N   UNL     1       4.206   2.238  18.629  0.00  0.00    +0.000 NA
ATOM      4  C   UNL     1       4.232   3.410  17.999  0.00  0.00    +0.000 A 
ATOM      5  N   UNL     1       5.023   3.467  16.864  0.00  0.00    +0.000 N 
ATOM      6  N   UNL     1       3.583   4.491  18.440  0.00  0.00    +0.000 NA
ATOM      7  C   UNL     1       2.831   4.397  19.564  0.00  0.00    +0.000 A 
ATOM      8  H   UNL     1       5.672   2.690  16.902  0.00  0.00    +0.000 HD
ENDROOT
BRANCH   7   9
ATOM      9  C   UNL     1       2.245   5.688  19.965  0.00  0.00    +0.000 A 
ATOM     10  C   UNL     1       1.849   6.011  21.251  0.00  0.00    +0.000 A 
ATOM     11  N   UNL     1       1.411   7.309  21.267  0.00  0.00    +0.000 N 
ATOM     12  C   UNL     1       1.620   7.898  20.047  0.00  0.00    +0.000 A 
ATOM     13  C   UNL     1       1.418   9.220  19.633  0.00  0.00    +0.000 A 
ATOM     14 BR   UNL     1       0.744  10.528  20.819  0.00  0.00    +0.000 Br
ATOM     15  C   UNL     1       1.751   9.564  18.323  0.00  0.00    +0.000 A 
ATOM     16  C   UNL     1       2.254   8.605  17.451  0.00  0.00    +0.000 A 
ATOM     17  C   UNL     1       2.444   7.281  17.873  0.00  0.00    +0.000 A 
ATOM     18  C   UNL     1       2.135   6.911  19.202  0.00  0.00    +0.000 A 
ATOM     19  H   UNL     1       1.044   7.796  22.075  0.00  0.00    +0.000 HD
ENDBRANCH   7   9
BRANCH   5  20
ATOM     20  C   UNL     1       5.570   4.774  16.515  0.00  0.00    +0.000 C 
ATOM     21  C   UNL     1       5.627   5.704  17.735  0.00  0.00    +0.000 C 
ATOM     22  C   UNL     1       6.250   7.038  17.338  0.00  0.00    +0.000 C 
ATOM     23  C   UNL     1       7.629   6.842  16.710  0.00  0.00    +0.000 C 
ATOM     24  N   UNL     1       7.599   5.914  15.579  0.00  0.00    +0.000 NA
ATOM     25  C   UNL     1       7.003   4.622  15.947  0.00  0.00    +0.000 C 
ATOM     26  H   UNL     1       8.547   5.764  15.235  0.00  0.00    +0.000 HD
ENDBRANCH   5  20
BRANCH   1  28
ATOM     27  F   UNL     1       1.825   1.653  21.811  0.00  0.00    +0.000 F 
ATOM     28  C   UNL     1       1.811   2.961  21.410  0.00  0.00    +0.000 C 
ATOM     29  F   UNL     1       0.500   3.244  21.186  0.00  0.00    +0.000 F 
ATOM     30  F   UNL     1       2.178   3.657  22.521  0.00  0.00    +0.000 F 
ENDBRANCH   1  28
TORSDOF 3
ENDMDL
MODEL 8
REMARK VINA RESULT:      -7.0      1.821      2.428
REMARK  Name = 
REMARK  3 active torsions:
REMARK  status: ('A' for Active; 'I' for Inactive)
REMARK    1  A    between atoms: C_2  and  C_5
REMARK    2  A    between atoms: N_9  and  C_10
REMARK    3  A    between atoms: C_17  and  C_18
REMARK                            x       y       z     vdW  Elec       q    Type
REMARK                         _______ _______ _______ _____ _____    ______ ____
ROOT
ATOM      1  C   UNL     1       3.653   4.785  17.404  0.00  0.00    +0.000 A 
ATOM      2  C   UNL     1       4.722   4.404  16.618  0.00  0.00    +0.000 A 
ATOM      3  N   UNL     1       5.809   5.161  16.384  0.00  0.00    +0.000 NA
ATOM      4  C   UNL     1       5.825   6.369  16.942  0.00  0.00    +0.000 A 
ATOM      5  N   UNL     1       6.942   7.143  16.675  0.00  0.00    +0.000 N 
ATOM      6  N   UNL     1       4.858   6.813  17.751  0.00  0.00    +0.000 NA
ATOM      7  C   UNL     1       3.788   6.019  17.998  0.00  0.00    +0.000 A 
ATOM      8  H   UNL     1       7.675   6.523  16.353  0.00  0.00    +0.000 HD
ENDROOT
BRANCH   7   9
ATOM      9  C   UNL     1       2.852   6.613  18.968  0.00  0.00    +0.000 A 
ATOM     10  C   UNL     1       2.588   6.104  20.227  0.00  0.00    +0.000 A 
ATOM     11  N   UNL     1       1.720   6.944  20.872  0.00  0.00    +0.000 N 
ATOM     12  C   UNL     1       1.493   8.067  20.119  0.00  0.00    +0.000 A 
ATOM     13  C   UNL     1       0.760   9.223  20.413  0.00  0.00    +0.000 A 
ATOM     14 BR   UNL     1      -0.131   9.425  22.067  0.00  0.00    +0.000 Br
ATOM     15  C   UNL     1       0.721  10.243  19.463  0.00  0.00    +0.000 A 
ATOM     16  C   UNL     1       1.382  10.099  18.248  0.00  0.00    +0.000 A 
ATOM     17  C   UNL     1       2.106   8.934  17.960  0.00  0.00    +0.000 A 
ATOM     18  C   UNL     1       2.180   7.892  18.914  0.00  0.00    +0.000 A 
ATOM     19  H   UNL     1       1.344   6.801  21.801  0.00  0.00    +0.000 HD
ENDBRANCH   7   9
BRANCH   5  20
ATOM     20  C   UNL     1       7.304   8.135  17.682  0.00  0.00    +0.000 C 
ATOM     21  C   UNL     1       8.489   7.663  18.536  0.00  0.00    +0.000 C 
ATOM     22  C   UNL     1       8.866   8.748  19.539  0.00  0.00    +0.000 C 
ATOM     23  C   UNL     1       9.164  10.073  18.839  0.00  0.00    +0.000 C 
ATOM     24  N   UNL     1       8.064  10.507  17.978  0.00  0.00    +0.000 NA
ATOM     25  C   UNL     1       7.690   9.472  17.003  0.00  0.00    +0.000 C 
ATOM     26  H   UNL     1       8.332  11.357  17.483  0.00  0.00    +0.000 HD
ENDBRANCH   5  20
BRANCH   1  28
ATOM     27  F   UNL     1       2.390   3.295  18.751  0.00  0.00    +0.000 F 
ATOM     28  C   UNL     1       2.483   3.879  17.518  0.00  0.00    +0.000 C 
ATOM     29  F   UNL     1       2.505   2.841  16.640  0.00  0.00    +0.000 F 
ATOM     30  F   UNL     1       1.287   4.507  17.351  0.00  0.00    +0.000 F 
ENDBRANCH   1  28
TORSDOF 3
ENDMDL
MODEL 9
REMARK VINA RESULT:      -7.0      5.961      8.515
REMARK  Name = 
REMARK  3 active torsions:
REMARK  status: ('A' for Active; 'I' for Inactive)
REMARK    1  A    between atoms: C_2  and  C_5
REMARK    2  A    between atoms: N_9  and  C_10
REMARK    3  A    between atoms: C_17  and  C_18
REMARK                            x       y       z     vdW  Elec       q    Type
REMARK                         _______ _______ _______ _____ _____    ______ ____
ROOT
ATOM      1  C   UNL     1       1.082  11.104  18.515  0.00  0.00    +0.000 A 
ATOM      2  C   UNL     1       2.401  11.433  18.275  0.00  0.00    +0.000 A 
ATOM      3  N   UNL     1       2.867  12.689  18.151  0.00  0.00    +0.000 NA
ATOM      4  C   UNL     1       1.971  13.668  18.247  0.00  0.00    +0.000 A 
ATOM      5  N   UNL     1       2.464  14.954  18.097  0.00  0.00    +0.000 N 
ATOM      6  N   UNL     1       0.681  13.454  18.518  0.00  0.00    +0.000 NA
ATOM      7  C   UNL     1       0.241  12.181  18.672  0.00  0.00    +0.000 A 
ATOM      8  H   UNL     1       3.465  14.918  18.246  0.00  0.00    +0.000 HD
ENDROOT
BRANCH   7   9
ATOM      9  C   UNL     1      -1.183  12.113  19.044  0.00  0.00    +0.000 A 
ATOM     10  C   UNL     1      -1.706  12.548  20.249  0.00  0.00    +0.000 A 
ATOM     11  N   UNL     1      -3.067  12.389  20.224  0.00  0.00    +0.000 N 
ATOM     12  C   UNL     1      -3.477  11.973  18.984  0.00  0.00    +0.000 A 
ATOM     13  C   UNL     1      -4.766  11.773  18.475  0.00  0.00    +0.000 A 
ATOM     14 BR   UNL     1      -6.298  12.071  19.540  0.00  0.00    +0.000 Br
ATOM     15  C   UNL     1      -4.899  11.373  17.146  0.00  0.00    +0.000 A 
ATOM     16  C   UNL     1      -3.773  11.160  16.358  0.00  0.00    +0.000 A 
ATOM     17  C   UNL     1      -2.486  11.355  16.881  0.00  0.00    +0.000 A 
ATOM     18  C   UNL     1      -2.322  11.782  18.219  0.00  0.00    +0.000 A 
ATOM     19  H   UNL     1      -3.698  12.609  20.985  0.00  0.00    +0.000 HD
ENDBRANCH   7   9
BRANCH   5  20
ATOM     20  C   UNL     1       1.728  16.018  18.773  0.00  0.00    +0.000 C 
ATOM     21  C   UNL     1       2.191  16.186  20.226  0.00  0.00    +0.000 C 
ATOM     22  C   UNL     1       1.434  17.339  20.878  0.00  0.00    +0.000 C 
ATOM     23  C   UNL     1       1.595  18.631  20.080  0.00  0.00    +0.000 C 
ATOM     24  N   UNL     1       1.208  18.470  18.677  0.00  0.00    +0.000 NA
ATOM     25  C   UNL     1       1.932  17.363  18.033  0.00  0.00    +0.000 C 
ATOM     26  H   UNL     1       1.393  19.335  18.170  0.00  0.00    +0.000 HD
ENDBRANCH   5  20
BRANCH   1  28
ATOM     27  F   UNL     1       0.049   9.338  19.716  0.00  0.00    +0.000 F 
ATOM     28  C   UNL     1       0.692   9.672  18.557  0.00  0.00    +0.000 C 
ATOM     29  F   UNL     1       1.745   8.815  18.481  0.00  0.00    +0.000 F 
ATOM     30  F   UNL     1      -0.177   9.314  17.572  0.00  0.00    +0.000 F 
ENDBRANCH   1  28
TORSDOF 3
ENDMDL
