MODEL 1
REMARK VINA RESULT:      -8.3      0.000      0.000
REMARK  Name = 
REMARK  10 active torsions:
REMARK  status: ('A' for Active; 'I' for Inactive)
REMARK    1  A    between atoms: C_1  and  C_2
REMARK    2  A    between atoms: C_2  and  C_3
REMARK    3  A    between atoms: C_3  and  C_4
REMARK    4  A    between atoms: C_4  and  C_5
REMARK    5  A    between atoms: C_5  and  C_6
REMARK    6  A    between atoms: C_6  and  O_7
REMARK    7  A    between atoms: C_6  and  C_8
REMARK    8  A    between atoms: C_6  and  C_23
REMARK    9  A    between atoms: N_10  and  C_11
REMARK   10  A    between atoms: C_19  and  C_20
REMARK                            x       y       z     vdW  Elec       q    Type
REMARK                         _______ _______ _______ _____ _____    ______ ____
ROOT
ATOM      1  C   UNL     1       3.882   4.055  18.906  0.00  0.00    +0.000 C 
ENDROOT
BRANCH   1   2
ATOM      2  C   UNL     1       2.847   5.188  18.685  0.00  0.00    +0.000 C 
ATOM      3  O   UNL     1       1.854   5.040  17.968  0.00  0.00    +0.000 OA
ATOM      4  N   UNL     1       3.165   6.384  19.332  0.00  0.00    +0.000 N 
ATOM      5  H   UNL     1       4.141   6.483  19.601  0.00  0.00    +0.000 HD
BRANCH   4   6
ATOM      6  C   UNL     1       2.368   7.538  19.297  0.00  0.00    +0.000 A 
ATOM      7  C   UNL     1       2.177   8.137  18.054  0.00  0.00    +0.000 A 
ATOM      8  C   UNL     1       1.241   9.160  17.914  0.00  0.00    +0.000 A 
ATOM      9  C   UNL     1       0.543   9.636  19.036  0.00  0.00    +0.000 A 
ATOM     10  C   UNL     1      -0.490  10.667  18.879  0.00  0.00    +0.000 A 
ATOM     11  O   UNL     1      -0.776  11.037  17.732  0.00  0.00    +0.000 OA
ATOM     12  O   UNL     1      -1.101  11.154  19.967  0.00  0.00    +0.000 OA
ATOM     13  N   UNL     1      -0.775  10.698  21.255  0.00  0.00    +0.000 NA
ATOM     14  C   UNL     1       0.107   9.764  21.404  0.00  0.00    +0.000 A 
ATOM     15  C   UNL     1       0.388   9.321  22.825  0.00  0.00    +0.000 C 
ATOM     16  C   UNL     1       0.826   9.129  20.293  0.00  0.00    +0.000 A 
ATOM     17  C   UNL     1       1.738   8.076  20.430  0.00  0.00    +0.000 A 
ENDBRANCH   4   6
ENDBRANCH   1   2
BRANCH   1  18
ATOM     18  C   UNL     1       3.091   3.029  19.758  0.00  0.00    +0.000 C 
ATOM     19  F   UNL     1       2.232   3.605  20.614  0.00  0.00    +0.000 F 
ATOM     20  F   UNL     1       2.413   2.154  18.975  0.00  0.00    +0.000 F 
ATOM     21  F   UNL     1       3.881   2.253  20.546  0.00  0.00    +0.000 F 
ENDBRANCH   1  18
BRANCH   1  22
ATOM     22  O   UNL     1       4.945   4.685  19.681  0.00  0.00    +0.000 OA
ATOM     23  H   UNL     1       4.961   5.633  19.451  0.00  0.00    +0.000 HD
ENDBRANCH   1  22
BRANCH   1  24
ATOM     24  C   UNL     1       4.464   3.558  17.505  0.00  0.00    +0.000 C 
BRANCH  24  25
ATOM     25  C   UNL     1       5.295   4.483  16.500  0.00  0.00    +0.000 C 
ATOM     26  C   UNL     1       4.328   5.454  15.755  0.00  0.00    +0.000 C 
ATOM     27  C   UNL     1       4.896   6.840  15.464  0.00  0.00    +0.000 C 
ATOM     28  C   UNL     1       5.470   7.478  16.711  0.00  0.00    +0.000 C 
ATOM     29  C   UNL     1       6.454   6.571  17.420  0.00  0.00    +0.000 A 
ATOM     30  C   UNL     1       7.374   7.154  18.307  0.00  0.00    +0.000 A 
ATOM     31  C   UNL     1       8.293   6.364  19.008  0.00  0.00    +0.000 A 
ATOM     32  C   UNL     1       8.327   4.999  18.789  0.00  0.00    +0.000 A 
ATOM     33  C   UNL     1       7.421   4.408  17.912  0.00  0.00    +0.000 A 
ATOM     34  C   UNL     1       6.417   5.181  17.273  0.00  0.00    +0.000 A 
BRANCH  25  35
ATOM     35  C   UNL     1       5.974   3.565  15.387  0.00  0.00    +0.000 C 
BRANCH  35  37
ATOM     36  C   UNL     1       6.185   3.628  12.833  0.00  0.00    +0.000 C 
ATOM     37  C   UNL     1       6.493   4.325  14.148  0.00  0.00    +0.000 C 
ENDBRANCH  35  37
ENDBRANCH  25  35
ENDBRANCH  24  25
ENDBRANCH   1  24
TORSDOF 8
ENDMDL
MODEL 2
REMARK VINA RESULT:      -8.2      1.653      3.779
REMARK  Name = 
REMARK  10 active torsions:
REMARK  status: ('A' for Active; 'I' for Inactive)
REMARK    1  A    between atoms: C_1  and  C_2
REMARK    2  A    between atoms: C_2  and  C_3
REMARK    3  A    between atoms: C_3  and  C_4
REMARK    4  A    between atoms: C_4  and  C_5
REMARK    5  A    between atoms: C_5  and  C_6
REMARK    6  A    between atoms: C_6  and  O_7
REMARK    7  A    between atoms: C_6  and  C_8
REMARK    8  A    between atoms: C_6  and  C_23
REMARK    9  A    between atoms: N_10  and  C_11
REMARK   10  A    between atoms: C_19  and  C_20
REMARK                            x       y       z     vdW  Elec       q    Type
REMARK                         _______ _______ _______ _____ _____    ______ ____
ROOT
ATOM      1  C   UNL     1       3.549   5.710  18.829  0.00  0.00    +0.000 C 
ENDROOT
BRANCH   1   2
ATOM      2  C   UNL     1       2.442   6.389  19.677  0.00  0.00    +0.000 C 
ATOM      3  O   UNL     1       1.772   5.765  20.504  0.00  0.00    +0.000 OA
ATOM      4  N   UNL     1       2.251   7.742  19.387  0.00  0.00    +0.000 N 
ATOM      5  H   UNL     1       2.612   8.045  18.486  0.00  0.00    +0.000 HD
BRANCH   4   6
ATOM      6  C   UNL     1       1.325   8.567  20.040  0.00  0.00    +0.000 A 
ATOM      7  C   UNL     1       1.368   8.590  21.432  0.00  0.00    +0.000 A 
ATOM      8  C   UNL     1       0.619   9.532  22.135  0.00  0.00    +0.000 A 
ATOM      9  C   UNL     1      -0.233  10.411  21.447  0.00  0.00    +0.000 A 
ATOM     10  C   UNL     1      -0.971  11.447  22.179  0.00  0.00    +0.000 A 
ATOM     11  O   UNL     1      -0.757  11.568  23.392  0.00  0.00    +0.000 OA
ATOM     12  O   UNL     1      -1.828  12.235  21.516  0.00  0.00    +0.000 OA
ATOM     13  N   UNL     1      -2.033  12.092  20.133  0.00  0.00    +0.000 NA
ATOM     14  C   UNL     1      -1.361  11.207  19.469  0.00  0.00    +0.000 A 
ATOM     15  C   UNL     1      -1.633  11.129  17.981  0.00  0.00    +0.000 C 
ATOM     16  C   UNL     1      -0.374  10.303  20.073  0.00  0.00    +0.000 A 
ATOM     17  C   UNL     1       0.405   9.384  19.363  0.00  0.00    +0.000 A 
ENDBRANCH   4   6
ENDBRANCH   1   2
BRANCH   1  18
ATOM     18  C   UNL     1       2.750   4.693  17.975  0.00  0.00    +0.000 C 
ATOM     19  F   UNL     1       2.442   3.569  18.642  0.00  0.00    +0.000 F 
ATOM     20  F   UNL     1       1.611   5.242  17.487  0.00  0.00    +0.000 F 
ATOM     21  F   UNL     1       3.426   4.257  16.877  0.00  0.00    +0.000 F 
ENDBRANCH   1  18
BRANCH   1  22
ATOM     22  O   UNL     1       4.391   5.037  19.812  0.00  0.00    +0.000 OA
ATOM     23  H   UNL     1       3.841   4.838  20.593  0.00  0.00    +0.000 HD
ENDBRANCH   1  22
BRANCH   1  24
ATOM     24  C   UNL     1       4.405   6.812  18.056  0.00  0.00    +0.000 C 
BRANCH  24  25
ATOM     25  C   UNL     1       5.946   6.639  17.663  0.00  0.00    +0.000 C 
ATOM     26  C   UNL     1       6.742   6.081  18.883  0.00  0.00    +0.000 C 
ATOM     27  C   UNL     1       7.873   5.119  18.536  0.00  0.00    +0.000 C 
ATOM     28  C   UNL     1       7.396   4.004  17.629  0.00  0.00    +0.000 C 
ATOM     29  C   UNL     1       6.667   4.527  16.410  0.00  0.00    +0.000 A 
ATOM     30  C   UNL     1       6.554   3.684  15.291  0.00  0.00    +0.000 A 
ATOM     31  C   UNL     1       5.872   4.104  14.144  0.00  0.00    +0.000 A 
ATOM     32  C   UNL     1       5.344   5.382  14.091  0.00  0.00    +0.000 A 
ATOM     33  C   UNL     1       5.449   6.227  15.193  0.00  0.00    +0.000 A 
ATOM     34  C   UNL     1       6.046   5.780  16.400  0.00  0.00    +0.000 A 
BRANCH  25  35
ATOM     35  C   UNL     1       6.562   8.070  17.325  0.00  0.00    +0.000 C 
BRANCH  35  37
ATOM     36  C   UNL     1       8.375   9.708  18.098  0.00  0.00    +0.000 C 
ATOM     37  C   UNL     1       8.027   8.266  17.768  0.00  0.00    +0.000 C 
ENDBRANCH  35  37
ENDBRANCH  25  35
ENDBRANCH  24  25
ENDBRANCH   1  24
TORSDOF 8
ENDMDL
MODEL 3
REMARK VINA RESULT:      -8.0      3.546      9.189
REMARK  Name = 
REMARK  10 active torsions:
REMARK  status: ('A' for Active; 'I' for Inactive)
REMARK    1  A    between atoms: C_1  and  C_2
REMARK    2  A    between atoms: C_2  and  C_3
REMARK    3  A    between atoms: C_3  and  C_4
REMARK    4  A    between atoms: C_4  and  C_5
REMARK    5  A    between atoms: C_5  and  C_6
REMARK    6  A    between atoms: C_6  and  O_7
REMARK    7  A    between atoms: C_6  and  C_8
REMARK    8  A    between atoms: C_6  and  C_23
REMARK    9  A    between atoms: N_10  and  C_11
REMARK   10  A    between atoms: C_19  and  C_20
REMARK                            x       y       z     vdW  Elec       q    Type
REMARK                         _______ _______ _______ _____ _____    ______ ____
ROOT
ATOM      1  C   UNL     1       0.209   9.807  21.377  0.00  0.00    +0.000 C 
ENDROOT
BRANCH   1   2
ATOM      2  C   UNL     1       1.279   8.690  21.271  0.00  0.00    +0.000 C 
ATOM      3  O   UNL     1       2.182   8.563  22.102  0.00  0.00    +0.000 OA
ATOM      4  N   UNL     1       1.149   7.882  20.139  0.00  0.00    +0.000 N 
ATOM      5  H   UNL     1       0.597   8.283  19.384  0.00  0.00    +0.000 HD
BRANCH   4   6
ATOM      6  C   UNL     1       1.985   6.796  19.842  0.00  0.00    +0.000 A 
ATOM      7  C   UNL     1       3.015   7.022  18.931  0.00  0.00    +0.000 A 
ATOM      8  C   UNL     1       4.000   6.052  18.744  0.00  0.00    +0.000 A 
ATOM      9  C   UNL     1       3.916   4.823  19.416  0.00  0.00    +0.000 A 
ATOM     10  C   UNL     1       4.986   3.828  19.271  0.00  0.00    +0.000 A 
ATOM     11  O   UNL     1       5.986   4.139  18.610  0.00  0.00    +0.000 OA
ATOM     12  O   UNL     1       4.859   2.636  19.869  0.00  0.00    +0.000 OA
ATOM     13  N   UNL     1       3.724   2.319  20.634  0.00  0.00    +0.000 NA
ATOM     14  C   UNL     1       2.791   3.199  20.800  0.00  0.00    +0.000 A 
ATOM     15  C   UNL     1       1.610   2.779  21.651  0.00  0.00    +0.000 C 
ATOM     16  C   UNL     1       2.824   4.549  20.222  0.00  0.00    +0.000 A 
ATOM     17  C   UNL     1       1.855   5.533  20.441  0.00  0.00    +0.000 A 
ENDBRANCH   4   6
ENDBRANCH   1   2
BRANCH   1  18
ATOM     18  C   UNL     1      -0.458   9.511  22.746  0.00  0.00    +0.000 C 
ATOM     19  F   UNL     1      -1.428  10.385  23.061  0.00  0.00    +0.000 F 
ATOM     20  F   UNL     1      -0.965   8.255  22.788  0.00  0.00    +0.000 F 
ATOM     21  F   UNL     1       0.405   9.575  23.795  0.00  0.00    +0.000 F 
ENDBRANCH   1  18
BRANCH   1  22
ATOM     22  O   UNL     1      -0.702   9.537  20.270  0.00  0.00    +0.000 OA
ATOM     23  H   UNL     1      -1.331  10.280  20.212  0.00  0.00    +0.000 HD
ENDBRANCH   1  22
BRANCH   1  24
ATOM     24  C   UNL     1       0.883  11.239  21.180  0.00  0.00    +0.000 C 
BRANCH  24  25
ATOM     25  C   UNL     1       0.245  12.419  20.308  0.00  0.00    +0.000 C 
ATOM     26  C   UNL     1       0.097  11.957  18.825  0.00  0.00    +0.000 C 
ATOM     27  C   UNL     1      -1.135  12.490  18.099  0.00  0.00    +0.000 C 
ATOM     28  C   UNL     1      -2.400  12.232  18.889  0.00  0.00    +0.000 C 
ATOM     29  C   UNL     1      -2.296  12.723  20.318  0.00  0.00    +0.000 A 
ATOM     30  C   UNL     1      -3.485  12.954  21.029  0.00  0.00    +0.000 A 
ATOM     31  C   UNL     1      -3.451  13.387  22.360  0.00  0.00    +0.000 A 
ATOM     32  C   UNL     1      -2.233  13.634  22.967  0.00  0.00    +0.000 A 
ATOM     33  C   UNL     1      -1.047  13.409  22.274  0.00  0.00    +0.000 A 
ATOM     34  C   UNL     1      -1.062  12.873  20.960  0.00  0.00    +0.000 A 
BRANCH  25  35
ATOM     35  C   UNL     1       1.242  13.663  20.306  0.00  0.00    +0.000 C 
BRANCH  35  37
ATOM     36  C   UNL     1       0.984  16.210  20.163  0.00  0.00    +0.000 C 
ATOM     37  C   UNL     1       0.767  14.873  19.473  0.00  0.00    +0.000 C 
ENDBRANCH  35  37
ENDBRANCH  25  35
ENDBRANCH  24  25
ENDBRANCH   1  24
TORSDOF 8
ENDMDL
MODEL 4
REMARK VINA RESULT:      -7.7      3.869      9.407
REMARK  Name = 
REMARK  10 active torsions:
REMARK  status: ('A' for Active; 'I' for Inactive)
REMARK    1  A    between atoms: C_1  and  C_2
REMARK    2  A    between atoms: C_2  and  C_3
REMARK    3  A    between atoms: C_3  and  C_4
REMARK    4  A    between atoms: C_4  and  C_5
REMARK    5  A    between atoms: C_5  and  C_6
REMARK    6  A    between atoms: C_6  and  O_7
REMARK    7  A    between atoms: C_6  and  C_8
REMARK    8  A    between atoms: C_6  and  C_23
REMARK    9  A    between atoms: N_10  and  C_11
REMARK   10  A    between atoms: C_19  and  C_20
REMARK                            x       y       z     vdW  Elec       q    Type
REMARK                         _______ _______ _______ _____ _____    ______ ____
ROOT
ATOM      1  C   UNL     1       0.757  10.994  19.566  0.00  0.00    +0.000 C 
ENDROOT
BRANCH   1   2
ATOM      2  C   UNL     1       1.100   9.591  19.002  0.00  0.00    +0.000 C 
ATOM      3  O   UNL     1       0.794   9.250  17.856  0.00  0.00    +0.000 OA
ATOM      4  N   UNL     1       1.742   8.751  19.915  0.00  0.00    +0.000 N 
ATOM      5  H   UNL     1       1.637   9.015  20.892  0.00  0.00    +0.000 HD
BRANCH   4   6
ATOM      6  C   UNL     1       2.169   7.447  19.625  0.00  0.00    +0.000 A 
ATOM      7  C   UNL     1       1.659   6.423  20.420  0.00  0.00    +0.000 A 
ATOM      8  C   UNL     1       1.880   5.093  20.064  0.00  0.00    +0.000 A 
ATOM      9  C   UNL     1       2.675   4.784  18.949  0.00  0.00    +0.000 A 
ATOM     10  C   UNL     1       2.854   3.387  18.535  0.00  0.00    +0.000 A 
ATOM     11  O   UNL     1       2.225   2.513  19.144  0.00  0.00    +0.000 OA
ATOM     12  O   UNL     1       3.667   3.106  17.507  0.00  0.00    +0.000 OA
ATOM     13  N   UNL     1       4.350   4.122  16.817  0.00  0.00    +0.000 NA
ATOM     14  C   UNL     1       4.173   5.359  17.148  0.00  0.00    +0.000 A 
ATOM     15  C   UNL     1       4.937   6.390  16.343  0.00  0.00    +0.000 C 
ATOM     16  C   UNL     1       3.289   5.799  18.235  0.00  0.00    +0.000 A 
ATOM     17  C   UNL     1       3.038   7.135  18.567  0.00  0.00    +0.000 A 
ENDBRANCH   4   6
ENDBRANCH   1   2
BRANCH   1  18
ATOM     18  C   UNL     1       1.748  11.917  18.812  0.00  0.00    +0.000 C 
ATOM     19  F   UNL     1       1.170  12.615  17.821  0.00  0.00    +0.000 F 
ATOM     20  F   UNL     1       2.363  12.779  19.659  0.00  0.00    +0.000 F 
ATOM     21  F   UNL     1       2.761  11.244  18.202  0.00  0.00    +0.000 F 
ENDBRANCH   1  18
BRANCH   1  22
ATOM     22  O   UNL     1       1.087  10.901  20.984  0.00  0.00    +0.000 OA
ATOM     23  H   UNL     1       1.149   9.956  21.216  0.00  0.00    +0.000 HD
ENDBRANCH   1  22
BRANCH   1  24
ATOM     24  C   UNL     1      -0.802  11.290  19.397  0.00  0.00    +0.000 C 
BRANCH  24  25
ATOM     25  C   UNL     1      -1.629  12.299  20.322  0.00  0.00    +0.000 C 
ATOM     26  C   UNL     1      -1.807  11.684  21.745  0.00  0.00    +0.000 C 
ATOM     27  C   UNL     1      -1.773  12.686  22.894  0.00  0.00    +0.000 C 
ATOM     28  C   UNL     1      -0.548  13.572  22.823  0.00  0.00    +0.000 C 
ATOM     29  C   UNL     1      -0.386  14.222  21.465  0.00  0.00    +0.000 A 
ATOM     30  C   UNL     1       0.414  15.373  21.370  0.00  0.00    +0.000 A 
ATOM     31  C   UNL     1       0.618  16.004  20.138  0.00  0.00    +0.000 A 
ATOM     32  C   UNL     1      -0.014  15.517  19.008  0.00  0.00    +0.000 A 
ATOM     33  C   UNL     1      -0.809  14.377  19.088  0.00  0.00    +0.000 A 
ATOM     34  C   UNL     1      -0.944  13.667  20.308  0.00  0.00    +0.000 A 
BRANCH  25  35
ATOM     35  C   UNL     1      -3.091  12.485  19.714  0.00  0.00    +0.000 C 
BRANCH  35  37
ATOM     36  C   UNL     1      -4.882  11.548  18.137  0.00  0.00    +0.000 C 
ATOM     37  C   UNL     1      -3.406  11.586  18.499  0.00  0.00    +0.000 C 
ENDBRANCH  35  37
ENDBRANCH  25  35
ENDBRANCH  24  25
ENDBRANCH   1  24
TORSDOF 8
ENDMDL
MODEL 5
REMARK VINA RESULT:      -7.7      3.976      9.530
REMARK  Name = 
REMARK  10 active torsions:
REMARK  status: ('A' for Active; 'I' for Inactive)
REMARK    1  A    between atoms: C_1  and  C_2
REMARK    2  A    between atoms: C_2  and  C_3
REMARK    3  A    between atoms: C_3  and  C_4
REMARK    4  A    between atoms: C_4  and  C_5
REMARK    5  A    between atoms: C_5  and  C_6
REMARK    6  A    between atoms: C_6  and  O_7
REMARK    7  A    between atoms: C_6  and  C_8
REMARK    8  A    between atoms: C_6  and  C_23
REMARK    9  A    between atoms: N_10  and  C_11
REMARK   10  A    between atoms: C_19  and  C_20
REMARK                            x       y       z     vdW  Elec       q    Type
REMARK                         _______ _______ _______ _____ _____    ______ ____
ROOT
ATOM      1  C   UNL     1       0.742  10.970  19.387  0.00  0.00    +0.000 C 
ENDROOT
BRANCH   1   2
ATOM      2  C   UNL     1       1.039   9.649  18.632  0.00  0.00    +0.000 C 
ATOM      3  O   UNL     1       0.497   9.366  17.561  0.00  0.00    +0.000 OA
ATOM      4  N   UNL     1       1.934   8.804  19.294  0.00  0.00    +0.000 N 
ATOM      5  H   UNL     1       2.044   8.986  20.288  0.00  0.00    +0.000 HD
BRANCH   4   6
ATOM      6  C   UNL     1       2.371   7.568  18.795  0.00  0.00    +0.000 A 
ATOM      7  C   UNL     1       3.310   7.598  17.766  0.00  0.00    +0.000 A 
ATOM      8  C   UNL     1       3.935   6.418  17.364  0.00  0.00    +0.000 A 
ATOM      9  C   UNL     1       3.568   5.193  17.942  0.00  0.00    +0.000 A 
ATOM     10  C   UNL     1       4.272   3.960  17.566  0.00  0.00    +0.000 A 
ATOM     11  O   UNL     1       5.236   4.051  16.796  0.00  0.00    +0.000 OA
ATOM     12  O   UNL     1       3.867   2.791  18.081  0.00  0.00    +0.000 OA
ATOM     13  N   UNL     1       2.784   2.721  18.974  0.00  0.00    +0.000 NA
ATOM     14  C   UNL     1       2.179   3.804  19.342  0.00  0.00    +0.000 A 
ATOM     15  C   UNL     1       1.033   3.639  20.317  0.00  0.00    +0.000 C 
ATOM     16  C   UNL     1       2.544   5.147  18.873  0.00  0.00    +0.000 A 
ATOM     17  C   UNL     1       1.942   6.333  19.306  0.00  0.00    +0.000 A 
ENDBRANCH   4   6
ENDBRANCH   1   2
BRANCH   1  18
ATOM     18  C   UNL     1       1.757  11.959  18.758  0.00  0.00    +0.000 C 
ATOM     19  F   UNL     1       2.323  12.779  19.658  0.00  0.00    +0.000 F 
ATOM     20  F   UNL     1       2.733  11.303  18.083  0.00  0.00    +0.000 F 
ATOM     21  F   UNL     1       1.203  12.798  17.842  0.00  0.00    +0.000 F 
ENDBRANCH   1  18
BRANCH   1  22
ATOM     22  O   UNL     1       1.075  10.674  20.775  0.00  0.00    +0.000 OA
ATOM     23  H   UNL     1       0.374  10.101  21.137  0.00  0.00    +0.000 HD
ENDBRANCH   1  22
BRANCH   1  24
ATOM     24  C   UNL     1      -0.808  11.333  19.274  0.00  0.00    +0.000 C 
BRANCH  24  25
ATOM     25  C   UNL     1      -1.575  12.315  20.277  0.00  0.00    +0.000 C 
ATOM     26  C   UNL     1      -1.602  11.692  21.706  0.00  0.00    +0.000 C 
ATOM     27  C   UNL     1      -1.491  12.691  22.853  0.00  0.00    +0.000 C 
ATOM     28  C   UNL     1      -0.304  13.614  22.674  0.00  0.00    +0.000 C 
ATOM     29  C   UNL     1      -0.289  14.272  21.310  0.00  0.00    +0.000 A 
ATOM     30  C   UNL     1       0.465  15.446  21.148  0.00  0.00    +0.000 A 
ATOM     31  C   UNL     1       0.535  16.086  19.905  0.00  0.00    +0.000 A 
ATOM     32  C   UNL     1      -0.185  15.584  18.836  0.00  0.00    +0.000 A 
ATOM     33  C   UNL     1      -0.935  14.420  18.983  0.00  0.00    +0.000 A 
ATOM     34  C   UNL     1      -0.934  13.703  20.207  0.00  0.00    +0.000 A 
BRANCH  25  35
ATOM     35  C   UNL     1      -3.092  12.459  19.807  0.00  0.00    +0.000 C 
BRANCH  35  37
ATOM     36  C   UNL     1      -5.111  12.770  21.356  0.00  0.00    +0.000 C 
ATOM     37  C   UNL     1      -3.941  13.435  20.649  0.00  0.00    +0.000 C 
ENDBRANCH  35  37
ENDBRANCH  25  35
ENDBRANCH  24  25
ENDBRANCH   1  24
TORSDOF 8
ENDMDL
MODEL 6
REMARK VINA RESULT:      -7.6      3.869      9.309
REMARK  Name = 
REMARK  10 active torsions:
REMARK  status: ('A' for Active; 'I' for Inactive)
REMARK    1  A    between atoms: C_1  and  C_2
REMARK    2  A    between atoms: C_2  and  C_3
REMARK    3  A    between atoms: C_3  and  C_4
REMARK    4  A    between atoms: C_4  and  C_5
REMARK    5  A    between atoms: C_5  and  C_6
REMARK    6  A    between atoms: C_6  and  O_7
REMARK    7  A    between atoms: C_6  and  C_8
REMARK    8  A    between atoms: C_6  and  C_23
REMARK    9  A    between atoms: N_10  and  C_11
REMARK   10  A    between atoms: C_19  and  C_20
REMARK                            x       y       z     vdW  Elec       q    Type
REMARK                         _______ _______ _______ _____ _____    ______ ____
ROOT
ATOM      1  C   UNL     1       0.716  11.008  19.361  0.00  0.00    +0.000 C 
ENDROOT
BRANCH   1   2
ATOM      2  C   UNL     1       1.049   9.669  18.654  0.00  0.00    +0.000 C 
ATOM      3  O   UNL     1       0.568   9.368  17.558  0.00  0.00    +0.000 OA
ATOM      4  N   UNL     1       1.898   8.834  19.384  0.00  0.00    +0.000 N 
ATOM      5  H   UNL     1       1.950   9.036  20.379  0.00  0.00    +0.000 HD
BRANCH   4   6
ATOM      6  C   UNL     1       2.355   7.586  18.938  0.00  0.00    +0.000 A 
ATOM      7  C   UNL     1       3.256   7.586  17.875  0.00  0.00    +0.000 A 
ATOM      8  C   UNL     1       3.902   6.405  17.514  0.00  0.00    +0.000 A 
ATOM      9  C   UNL     1       3.595   5.203  18.172  0.00  0.00    +0.000 A 
ATOM     10  C   UNL     1       4.324   3.972  17.838  0.00  0.00    +0.000 A 
ATOM     11  O   UNL     1       5.256   4.048  17.028  0.00  0.00    +0.000 OA
ATOM     12  O   UNL     1       3.974   2.823  18.430  0.00  0.00    +0.000 OA
ATOM     13  N   UNL     1       2.926   2.770  19.365  0.00  0.00    +0.000 NA
ATOM     14  C   UNL     1       2.302   3.854  19.696  0.00  0.00    +0.000 A 
ATOM     15  C   UNL     1       1.196   3.710  20.721  0.00  0.00    +0.000 C 
ATOM     16  C   UNL     1       2.607   5.179  19.141  0.00  0.00    +0.000 A 
ATOM     17  C   UNL     1       1.984   6.369  19.531  0.00  0.00    +0.000 A 
ENDBRANCH   4   6
ENDBRANCH   1   2
BRANCH   1  18
ATOM     18  C   UNL     1       1.728  11.993  18.722  0.00  0.00    +0.000 C 
ATOM     19  F   UNL     1       2.735  11.376  18.083  0.00  0.00    +0.000 F 
ATOM     20  F   UNL     1       1.115  12.844  17.863  0.00  0.00    +0.000 F 
ATOM     21  F   UNL     1       2.348  12.798  19.627  0.00  0.00    +0.000 F 
ENDBRANCH   1  18
BRANCH   1  22
ATOM     22  O   UNL     1       1.027  10.759  20.765  0.00  0.00    +0.000 OA
ATOM     23  H   UNL     1       0.305  11.133  21.303  0.00  0.00    +0.000 HD
ENDBRANCH   1  22
BRANCH   1  24
ATOM     24  C   UNL     1      -0.837  11.342  19.208  0.00  0.00    +0.000 C 
BRANCH  24  25
ATOM     25  C   UNL     1      -1.662  12.259  20.226  0.00  0.00    +0.000 C 
ATOM     26  C   UNL     1      -1.796  11.532  21.600  0.00  0.00    +0.000 C 
ATOM     27  C   UNL     1      -1.756  12.442  22.823  0.00  0.00    +0.000 C 
ATOM     28  C   UNL     1      -0.550  13.357  22.796  0.00  0.00    +0.000 C 
ATOM     29  C   UNL     1      -0.432  14.113  21.490  0.00  0.00    +0.000 A 
ATOM     30  C   UNL     1       0.343  15.285  21.468  0.00  0.00    +0.000 A 
ATOM     31  C   UNL     1       0.507  16.014  20.285  0.00  0.00    +0.000 A 
ATOM     32  C   UNL     1      -0.140  15.603  19.134  0.00  0.00    +0.000 A 
ATOM     33  C   UNL     1      -0.912  14.444  19.141  0.00  0.00    +0.000 A 
ATOM     34  C   UNL     1      -1.004  13.638  20.305  0.00  0.00    +0.000 A 
BRANCH  25  35
ATOM     35  C   UNL     1      -3.141  12.461  19.665  0.00  0.00    +0.000 C 
BRANCH  35  37
ATOM     36  C   UNL     1      -4.647  10.964  18.228  0.00  0.00    +0.000 C 
ATOM     37  C   UNL     1      -3.400  11.831  18.279  0.00  0.00    +0.000 C 
ENDBRANCH  35  37
ENDBRANCH  25  35
ENDBRANCH  24  25
ENDBRANCH   1  24
TORSDOF 8
ENDMDL
MODEL 7
REMARK VINA RESULT:      -7.6      4.123      9.308
REMARK  Name = 
REMARK  10 active torsions:
REMARK  status: ('A' for Active; 'I' for Inactive)
REMARK    1  A    between atoms: C_1  and  C_2
REMARK    2  A    between atoms: C_2  and  C_3
REMARK    3  A    between atoms: C_3  and  C_4
REMARK    4  A    between atoms: C_4  and  C_5
REMARK    5  A    between atoms: C_5  and  C_6
REMARK    6  A    between atoms: C_6  and  O_7
REMARK    7  A    between atoms: C_6  and  C_8
REMARK    8  A    between atoms: C_6  and  C_23
REMARK    9  A    between atoms: N_10  and  C_11
REMARK   10  A    between atoms: C_19  and  C_20
REMARK                            x       y       z     vdW  Elec       q    Type
REMARK                         _______ _______ _______ _____ _____    ______ ____
ROOT
ATOM      1  C   UNL     1       0.379  11.223  19.195  0.00  0.00    +0.000 C 
ENDROOT
BRANCH   1   2
ATOM      2  C   UNL     1       0.901   9.827  18.767  0.00  0.00    +0.000 C 
ATOM      3  O   UNL     1       0.817   9.422  17.604  0.00  0.00    +0.000 OA
ATOM      4  N   UNL     1       1.427   9.069  19.815  0.00  0.00    +0.000 N 
ATOM      5  H   UNL     1       1.140   9.362  20.746  0.00  0.00    +0.000 HD
BRANCH   4   6
ATOM      6  C   UNL     1       1.978   7.788  19.666  0.00  0.00    +0.000 A 
ATOM      7  C   UNL     1       1.592   6.822  20.593  0.00  0.00    +0.000 A 
ATOM      8  C   UNL     1       1.940   5.487  20.388  0.00  0.00    +0.000 A 
ATOM      9  C   UNL     1       2.737   5.126  19.291  0.00  0.00    +0.000 A 
ATOM     10  C   UNL     1       3.047   3.713  19.038  0.00  0.00    +0.000 A 
ATOM     11  O   UNL     1       2.524   2.862  19.768  0.00  0.00    +0.000 OA
ATOM     12  O   UNL     1       3.861   3.392  18.024  0.00  0.00    +0.000 OA
ATOM     13  N   UNL     1       4.423   4.379  17.196  0.00  0.00    +0.000 NA
ATOM     14  C   UNL     1       4.128   5.624  17.385  0.00  0.00    +0.000 A 
ATOM     15  C   UNL     1       4.765   6.620  16.438  0.00  0.00    +0.000 C 
ATOM     16  C   UNL     1       3.228   6.103  18.442  0.00  0.00    +0.000 A 
ATOM     17  C   UNL     1       2.850   7.438  18.623  0.00  0.00    +0.000 A 
ENDBRANCH   4   6
ENDBRANCH   1   2
BRANCH   1  18
ATOM     18  C   UNL     1      -1.002  10.895  19.818  0.00  0.00    +0.000 C 
ATOM     19  F   UNL     1      -1.621   9.865  19.219  0.00  0.00    +0.000 F 
ATOM     20  F   UNL     1      -0.898  10.637  21.145  0.00  0.00    +0.000 F 
ATOM     21  F   UNL     1      -1.894  11.919  19.730  0.00  0.00    +0.000 F 
ENDBRANCH   1  18
BRANCH   1  22
ATOM     22  O   UNL     1       0.239  11.954  17.940  0.00  0.00    +0.000 OA
ATOM     23  H   UNL     1      -0.713  12.055  17.757  0.00  0.00    +0.000 HD
ENDBRANCH   1  22
BRANCH   1  24
ATOM     24  C   UNL     1       1.453  11.952  20.123  0.00  0.00    +0.000 C 
BRANCH  24  25
ATOM     25  C   UNL     1       1.568  13.539  20.285  0.00  0.00    +0.000 C 
ATOM     26  C   UNL     1       1.961  14.181  18.918  0.00  0.00    +0.000 C 
ATOM     27  C   UNL     1       1.338  15.545  18.638  0.00  0.00    +0.000 C 
ATOM     28  C   UNL     1      -0.164  15.518  18.826  0.00  0.00    +0.000 C 
ATOM     29  C   UNL     1      -0.566  14.948  20.169  0.00  0.00    +0.000 A 
ATOM     30  C   UNL     1      -1.846  15.250  20.664  0.00  0.00    +0.000 A 
ATOM     31  C   UNL     1      -2.281  14.733  21.889  0.00  0.00    +0.000 A 
ATOM     32  C   UNL     1      -1.423  13.954  22.646  0.00  0.00    +0.000 A 
ATOM     33  C   UNL     1      -0.152  13.647  22.168  0.00  0.00    +0.000 A 
ATOM     34  C   UNL     1       0.266  14.078  20.882  0.00  0.00    +0.000 A 
BRANCH  25  35
ATOM     35  C   UNL     1       2.744  13.875  21.308  0.00  0.00    +0.000 C 
BRANCH  35  37
ATOM     36  C   UNL     1       4.180  15.997  21.228  0.00  0.00    +0.000 C 
ATOM     37  C   UNL     1       3.959  14.594  20.685  0.00  0.00    +0.000 C 
ENDBRANCH  35  37
ENDBRANCH  25  35
ENDBRANCH  24  25
ENDBRANCH   1  24
TORSDOF 8
ENDMDL
MODEL 8
REMARK VINA RESULT:      -7.6      3.408      8.941
REMARK  Name = 
REMARK  10 active torsions:
REMARK  status: ('A' for Active; 'I' for Inactive)
REMARK    1  A    between atoms: C_1  and  C_2
REMARK    2  A    between atoms: C_2  and  C_3
REMARK    3  A    between atoms: C_3  and  C_4
REMARK    4  A    between atoms: C_4  and  C_5
REMARK    5  A    between atoms: C_5  and  C_6
REMARK    6  A    between atoms: C_6  and  O_7
REMARK    7  A    between atoms: C_6  and  C_8
REMARK    8  A    between atoms: C_6  and  C_23
REMARK    9  A    between atoms: N_10  and  C_11
REMARK   10  A    between atoms: C_19  and  C_20
REMARK                            x       y       z     vdW  Elec       q    Type
REMARK                         _______ _______ _______ _____ _____    ______ ____
ROOT
ATOM      1  C   UNL     1       0.385   9.729  20.891  0.00  0.00    +0.000 C 
ENDROOT
BRANCH   1   2
ATOM      2  C   UNL     1       1.261   8.535  20.431  0.00  0.00    +0.000 C 
ATOM      3  O   UNL     1       1.692   7.692  21.222  0.00  0.00    +0.000 OA
ATOM      4  N   UNL     1       1.544   8.530  19.063  0.00  0.00    +0.000 N 
ATOM      5  H   UNL     1       1.423   9.425  18.594  0.00  0.00    +0.000 HD
BRANCH   4   6
ATOM      6  C   UNL     1       2.296   7.540  18.414  0.00  0.00    +0.000 A 
ATOM      7  C   UNL     1       3.433   7.958  17.726  0.00  0.00    +0.000 A 
ATOM      8  C   UNL     1       4.331   7.014  17.233  0.00  0.00    +0.000 A 
ATOM      9  C   UNL     1       4.058   5.643  17.365  0.00  0.00    +0.000 A 
ATOM     10  C   UNL     1       5.035   4.648  16.904  0.00  0.00    +0.000 A 
ATOM     11  O   UNL     1       6.123   5.054  16.478  0.00  0.00    +0.000 OA
ATOM     12  O   UNL     1       4.730   3.346  16.980  0.00  0.00    +0.000 OA
ATOM     13  N   UNL     1       3.495   2.912  17.493  0.00  0.00    +0.000 NA
ATOM     14  C   UNL     1       2.641   3.777  17.936  0.00  0.00    +0.000 A 
ATOM     15  C   UNL     1       1.342   3.223  18.484  0.00  0.00    +0.000 C 
ATOM     16  C   UNL     1       2.866   5.228  17.934  0.00  0.00    +0.000 A 
ATOM     17  C   UNL     1       1.980   6.172  18.464  0.00  0.00    +0.000 A 
ENDBRANCH   4   6
ENDBRANCH   1   2
BRANCH   1  18
ATOM     18  C   UNL     1      -0.210   9.221  22.230  0.00  0.00    +0.000 C 
ATOM     19  F   UNL     1      -0.846   8.044  22.113  0.00  0.00    +0.000 F 
ATOM     20  F   UNL     1       0.745   9.112  23.186  0.00  0.00    +0.000 F 
ATOM     21  F   UNL     1      -1.143  10.055  22.762  0.00  0.00    +0.000 F 
ENDBRANCH   1  18
BRANCH   1  22
ATOM     22  O   UNL     1      -0.641   9.840  19.860  0.00  0.00    +0.000 OA
ATOM     23  H   UNL     1      -1.032  10.731  19.921  0.00  0.00    +0.000 HD
ENDBRANCH   1  22
BRANCH   1  24
ATOM     24  C   UNL     1       1.253  11.067  20.930  0.00  0.00    +0.000 C 
BRANCH  24  25
ATOM     25  C   UNL     1       0.762  12.472  20.344  0.00  0.00    +0.000 C 
ATOM     26  C   UNL     1       0.605  12.371  18.795  0.00  0.00    +0.000 C 
ATOM     27  C   UNL     1      -0.546  13.180  18.205  0.00  0.00    +0.000 C 
ATOM     28  C   UNL     1      -1.851  12.888  18.914  0.00  0.00    +0.000 C 
ATOM     29  C   UNL     1      -1.734  13.033  20.416  0.00  0.00    +0.000 A 
ATOM     30  C   UNL     1      -2.911  13.225  21.159  0.00  0.00    +0.000 A 
ATOM     31  C   UNL     1      -2.867  13.344  22.553  0.00  0.00    +0.000 A 
ATOM     32  C   UNL     1      -1.646  13.320  23.203  0.00  0.00    +0.000 A 
ATOM     33  C   UNL     1      -0.472  13.130  22.479  0.00  0.00    +0.000 A 
ATOM     34  C   UNL     1      -0.508  12.905  21.079  0.00  0.00    +0.000 A 
BRANCH  25  35
ATOM     35  C   UNL     1       1.881  13.573  20.623  0.00  0.00    +0.000 C 
BRANCH  35  37
ATOM     36  C   UNL     1       2.673  15.716  19.462  0.00  0.00    +0.000 C 
ATOM     37  C   UNL     1       1.523  14.997  20.147  0.00  0.00    +0.000 C 
ENDBRANCH  35  37
ENDBRANCH  25  35
ENDBRANCH  24  25
ENDBRANCH   1  24
TORSDOF 8
ENDMDL
MODEL 9
REMARK VINA RESULT:      -7.5      4.331      8.690
REMARK  Name = 
REMARK  10 active torsions:
REMARK  status: ('A' for Active; 'I' for Inactive)
REMARK    1  A    between atoms: C_1  and  C_2
REMARK    2  A    between atoms: C_2  and  C_3
REMARK    3  A    between atoms: C_3  and  C_4
REMARK    4  A    between atoms: C_4  and  C_5
REMARK    5  A    between atoms: C_5  and  C_6
REMARK    6  A    between atoms: C_6  and  O_7
REMARK    7  A    between atoms: C_6  and  C_8
REMARK    8  A    between atoms: C_6  and  C_23
REMARK    9  A    between atoms: N_10  and  C_11
REMARK   10  A    between atoms: C_19  and  C_20
REMARK                            x       y       z     vdW  Elec       q    Type
REMARK                         _______ _______ _______ _____ _____    ______ ____
ROOT
ATOM      1  C   UNL     1       0.327  11.184  19.103  0.00  0.00    +0.000 C 
ENDROOT
BRANCH   1   2
ATOM      2  C   UNL     1       0.728   9.813  18.498  0.00  0.00    +0.000 C 
ATOM      3  O   UNL     1       0.135   9.321  17.535  0.00  0.00    +0.000 OA
ATOM      4  N   UNL     1       1.781   9.183  19.165  0.00  0.00    +0.000 N 
ATOM      5  H   UNL     1       1.953   9.514  20.111  0.00  0.00    +0.000 HD
BRANCH   4   6
ATOM      6  C   UNL     1       2.330   7.949  18.787  0.00  0.00    +0.000 A 
ATOM      7  C   UNL     1       3.226   7.956  17.720  0.00  0.00    +0.000 A 
ATOM      8  C   UNL     1       3.960   6.809  17.422  0.00  0.00    +0.000 A 
ATOM      9  C   UNL     1       3.746   5.627  18.149  0.00  0.00    +0.000 A 
ATOM     10  C   UNL     1       4.564   4.438  17.880  0.00  0.00    +0.000 A 
ATOM     11  O   UNL     1       5.487   4.538  17.061  0.00  0.00    +0.000 OA
ATOM     12  O   UNL     1       4.304   3.300  18.538  0.00  0.00    +0.000 OA
ATOM     13  N   UNL     1       3.265   3.222  19.482  0.00  0.00    +0.000 NA
ATOM     14  C   UNL     1       2.561   4.272  19.754  0.00  0.00    +0.000 A 
ATOM     15  C   UNL     1       1.472   4.103  20.793  0.00  0.00    +0.000 C 
ATOM     16  C   UNL     1       2.764   5.583  19.124  0.00  0.00    +0.000 A 
ATOM     17  C   UNL     1       2.053   6.743  19.450  0.00  0.00    +0.000 A 
ENDBRANCH   4   6
ENDBRANCH   1   2
BRANCH   1  18
ATOM     18  C   UNL     1      -0.401  10.781  20.411  0.00  0.00    +0.000 C 
ATOM     19  F   UNL     1       0.409  10.759  21.481  0.00  0.00    +0.000 F 
ATOM     20  F   UNL     1      -1.449  11.602  20.667  0.00  0.00    +0.000 F 
ATOM     21  F   UNL     1      -0.938   9.531  20.371  0.00  0.00    +0.000 F 
ENDBRANCH   1  18
BRANCH   1  22
ATOM     22  O   UNL     1      -0.600  11.748  18.128  0.00  0.00    +0.000 OA
ATOM     23  H   UNL     1      -0.285  11.505  17.238  0.00  0.00    +0.000 HD
ENDBRANCH   1  22
BRANCH   1  24
ATOM     24  C   UNL     1       1.608  12.126  19.231  0.00  0.00    +0.000 C 
BRANCH  24  25
ATOM     25  C   UNL     1       1.548  13.672  19.637  0.00  0.00    +0.000 C 
ATOM     26  C   UNL     1       0.998  13.814  21.090  0.00  0.00    +0.000 C 
ATOM     27  C   UNL     1       1.609  14.948  21.908  0.00  0.00    +0.000 C 
ATOM     28  C   UNL     1       3.122  14.891  21.891  0.00  0.00    +0.000 C 
ATOM     29  C   UNL     1       3.679  14.807  20.486  0.00  0.00    +0.000 A 
ATOM     30  C   UNL     1       5.017  15.181  20.278  0.00  0.00    +0.000 A 
ATOM     31  C   UNL     1       5.593  15.103  19.005  0.00  0.00    +0.000 A 
ATOM     32  C   UNL     1       4.822  14.699  17.929  0.00  0.00    +0.000 A 
ATOM     33  C   UNL     1       3.495  14.326  18.122  0.00  0.00    +0.000 A 
ATOM     34  C   UNL     1       2.926  14.301  19.421  0.00  0.00    +0.000 A 
BRANCH  25  35
ATOM     35  C   UNL     1       0.519  14.423  18.679  0.00  0.00    +0.000 C 
BRANCH  35  37
ATOM     36  C   UNL     1      -0.773  16.566  19.236  0.00  0.00    +0.000 C 
ATOM     37  C   UNL     1       0.545  15.963  18.778  0.00  0.00    +0.000 C 
ENDBRANCH  35  37
ENDBRANCH  25  35
ENDBRANCH  24  25
ENDBRANCH   1  24
TORSDOF 8
ENDMDL
