MODEL 1
REMARK VINA RESULT:      -6.6      0.000      0.000
REMARK  Name = 
REMARK  10 active torsions:
REMARK  status: ('A' for Active; 'I' for Inactive)
REMARK    1  A    between atoms: C_1  and  O_2
REMARK    2  A    between atoms: O_2  and  C_3
REMARK    3  A    between atoms: C_6  and  C_7
REMARK    4  A    between atoms: C_9  and  S_10
REMARK    5  A    between atoms: S_10  and  C_11
REMARK    6  A    between atoms: C_13  and  C_14
REMARK    7  A    between atoms: C_20  and  O_21
REMARK    8  A    between atoms: O_21  and  C_22
REMARK    9  A    between atoms: C_23  and  O_24
REMARK   10  A    between atoms: O_24  and  C_25
REMARK                            x       y       z     vdW  Elec       q    Type
REMARK                         _______ _______ _______ _____ _____    ______ ____
ROOT
ATOM      1  C   UNL     1       4.983   5.054  16.382  0.00  0.00    +0.000 A 
ATOM      2  N   UNL     1       4.531   4.367  15.252  0.00  0.00    +0.000 NA
ATOM      3  C   UNL     1       5.514   4.210  14.400  0.00  0.00    +0.000 A 
ATOM      4  S   UNL     1       7.012   4.886  14.857  0.00  0.00    +0.000 S 
ATOM      5  C   UNL     1       6.322   5.467  16.328  0.00  0.00    +0.000 A 
ENDROOT
BRANCH   1   9
ATOM      6  C   UNL     1       2.366   6.099  19.643  0.00  0.00    +0.000 A 
ATOM      7  C   UNL     1       2.724   7.020  18.658  0.00  0.00    +0.000 A 
ATOM      8  C   UNL     1       3.487   6.636  17.564  0.00  0.00    +0.000 A 
ATOM      9  C   UNL     1       4.050   5.355  17.485  0.00  0.00    +0.000 A 
ATOM     10  C   UNL     1       3.724   4.419  18.498  0.00  0.00    +0.000 A 
ATOM     11  C   UNL     1       2.884   4.788  19.589  0.00  0.00    +0.000 A 
BRANCH   6  13
ATOM     12  C   UNL     1       1.488   7.886  20.942  0.00  0.00    +0.000 C 
ATOM     13  O   UNL     1       1.560   6.484  20.682  0.00  0.00    +0.000 OA
ENDBRANCH   6  13
BRANCH  10  14
ATOM     14  O   UNL     1       4.361   3.194  18.425  0.00  0.00    +0.000 OA
ATOM     15  C   UNL     1       3.576   2.117  17.917  0.00  0.00    +0.000 C 
ENDBRANCH  10  14
BRANCH  11  16
ATOM     16  O   UNL     1       2.689   3.808  20.533  0.00  0.00    +0.000 OA
ATOM     17  C   UNL     1       1.437   3.158  20.655  0.00  0.00    +0.000 C 
ENDBRANCH  11  16
ENDBRANCH   1   9
BRANCH   5  18
ATOM     18  C   UNL     1       7.169   6.262  17.247  0.00  0.00    +0.000 A 
ATOM     19  C   UNL     1       7.430   7.623  16.996  0.00  0.00    +0.000 A 
ATOM     20  C   UNL     1       8.136   8.408  17.913  0.00  0.00    +0.000 A 
ATOM     21  C   UNL     1       8.573   7.857  19.113  0.00  0.00    +0.000 A 
ATOM     22  C   UNL     1       8.338   6.509  19.374  0.00  0.00    +0.000 A 
ATOM     23  C   UNL     1       7.676   5.714  18.434  0.00  0.00    +0.000 A 
ENDBRANCH   5  18
BRANCH   3  24
ATOM     24  S   UNL     1       5.341   3.385  12.865  0.00  0.00    +0.000 S 
ATOM     25  C   UNL     1       6.894   3.795  12.053  0.00  0.00    +0.000 C 
ENDBRANCH   3  24
TORSDOF 6
ENDMDL
MODEL 2
REMARK VINA RESULT:      -5.9      1.061      2.561
REMARK  Name = 
REMARK  10 active torsions:
REMARK  status: ('A' for Active; 'I' for Inactive)
REMARK    1  A    between atoms: C_1  and  O_2
REMARK    2  A    between atoms: O_2  and  C_3
REMARK    3  A    between atoms: C_6  and  C_7
REMARK    4  A    between atoms: C_9  and  S_10
REMARK    5  A    between atoms: S_10  and  C_11
REMARK    6  A    between atoms: C_13  and  C_14
REMARK    7  A    between atoms: C_20  and  O_21
REMARK    8  A    between atoms: O_21  and  C_22
REMARK    9  A    between atoms: C_23  and  O_24
REMARK   10  A    between atoms: O_24  and  C_25
REMARK                            x       y       z     vdW  Elec       q    Type
REMARK                         _______ _______ _______ _____ _____    ______ ____
ROOT
ATOM      1  C   UNL     1       5.241   4.488  16.633  0.00  0.00    +0.000 A 
ATOM      2  N   UNL     1       4.817   3.801  15.493  0.00  0.00    +0.000 NA
ATOM      3  C   UNL     1       5.598   4.089  14.481  0.00  0.00    +0.000 A 
ATOM      4  S   UNL     1       6.849   5.205  14.797  0.00  0.00    +0.000 S 
ATOM      5  C   UNL     1       6.327   5.354  16.435  0.00  0.00    +0.000 A 
ENDROOT
BRANCH   1   9
ATOM      6  C   UNL     1       3.086   3.823  20.306  0.00  0.00    +0.000 A 
ATOM      7  C   UNL     1       4.123   2.984  19.895  0.00  0.00    +0.000 A 
ATOM      8  C   UNL     1       4.869   3.274  18.760  0.00  0.00    +0.000 A 
ATOM      9  C   UNL     1       4.513   4.327  17.907  0.00  0.00    +0.000 A 
ATOM     10  C   UNL     1       3.438   5.166  18.293  0.00  0.00    +0.000 A 
ATOM     11  C   UNL     1       2.711   4.913  19.494  0.00  0.00    +0.000 A 
BRANCH   6  13
ATOM     12  C   UNL     1       1.312   2.640  21.357  0.00  0.00    +0.000 C 
ATOM     13  O   UNL     1       2.405   3.553  21.463  0.00  0.00    +0.000 OA
ENDBRANCH   6  13
BRANCH  10  14
ATOM     14  O   UNL     1       3.069   6.142  17.387  0.00  0.00    +0.000 OA
ATOM     15  C   UNL     1       3.547   7.457  17.666  0.00  0.00    +0.000 C 
ENDBRANCH  10  14
BRANCH  11  16
ATOM     16  O   UNL     1       1.658   5.765  19.728  0.00  0.00    +0.000 OA
ATOM     17  C   UNL     1       1.780   6.833  20.650  0.00  0.00    +0.000 C 
ENDBRANCH  11  16
ENDBRANCH   1   9
BRANCH   5  18
ATOM     18  C   UNL     1       7.035   6.303  17.324  0.00  0.00    +0.000 A 
ATOM     19  C   UNL     1       7.653   5.861  18.511  0.00  0.00    +0.000 A 
ATOM     20  C   UNL     1       8.417   6.728  19.298  0.00  0.00    +0.000 A 
ATOM     21  C   UNL     1       8.604   8.048  18.902  0.00  0.00    +0.000 A 
ATOM     22  C   UNL     1       7.990   8.510  17.740  0.00  0.00    +0.000 A 
ATOM     23  C   UNL     1       7.186   7.654  16.981  0.00  0.00    +0.000 A 
ENDBRANCH   5  18
BRANCH   3  24
ATOM     24  S   UNL     1       5.392   3.414  12.878  0.00  0.00    +0.000 S 
ATOM     25  C   UNL     1       6.947   3.860  12.090  0.00  0.00    +0.000 C 
ENDBRANCH   3  24
TORSDOF 6
ENDMDL
MODEL 3
REMARK VINA RESULT:      -5.8      3.176      6.430
REMARK  Name = 
REMARK  10 active torsions:
REMARK  status: ('A' for Active; 'I' for Inactive)
REMARK    1  A    between atoms: C_1  and  O_2
REMARK    2  A    between atoms: O_2  and  C_3
REMARK    3  A    between atoms: C_6  and  C_7
REMARK    4  A    between atoms: C_9  and  S_10
REMARK    5  A    between atoms: S_10  and  C_11
REMARK    6  A    between atoms: C_13  and  C_14
REMARK    7  A    between atoms: C_20  and  O_21
REMARK    8  A    between atoms: O_21  and  C_22
REMARK    9  A    between atoms: C_23  and  O_24
REMARK   10  A    between atoms: O_24  and  C_25
REMARK                            x       y       z     vdW  Elec       q    Type
REMARK                         _______ _______ _______ _____ _____    ______ ____
ROOT
ATOM      1  C   UNL     1       3.745   4.716  18.829  0.00  0.00    +0.000 A 
ATOM      2  N   UNL     1       3.839   3.476  19.467  0.00  0.00    +0.000 NA
ATOM      3  C   UNL     1       2.981   3.416  20.456  0.00  0.00    +0.000 A 
ATOM      4  S   UNL     1       2.042   4.816  20.717  0.00  0.00    +0.000 S 
ATOM      5  C   UNL     1       2.835   5.613  19.408  0.00  0.00    +0.000 A 
ENDROOT
BRANCH   1   9
ATOM      6  C   UNL     1       6.297   5.419  15.429  0.00  0.00    +0.000 A 
ATOM      7  C   UNL     1       5.137   4.650  15.336  0.00  0.00    +0.000 A 
ATOM      8  C   UNL     1       4.277   4.519  16.418  0.00  0.00    +0.000 A 
ATOM      9  C   UNL     1       4.618   5.024  17.680  0.00  0.00    +0.000 A 
ATOM     10  C   UNL     1       5.813   5.777  17.799  0.00  0.00    +0.000 A 
ATOM     11  C   UNL     1       6.665   5.973  16.672  0.00  0.00    +0.000 A 
BRANCH   6  13
ATOM     12  C   UNL     1       7.028   4.567  13.332  0.00  0.00    +0.000 C 
ATOM     13  O   UNL     1       7.098   5.587  14.330  0.00  0.00    +0.000 OA
ENDBRANCH   6  13
BRANCH  10  14
ATOM     14  O   UNL     1       6.151   6.190  19.073  0.00  0.00    +0.000 OA
ATOM     15  C   UNL     1       7.198   5.455  19.705  0.00  0.00    +0.000 C 
ENDBRANCH  10  14
BRANCH  11  16
ATOM     16  O   UNL     1       7.819   6.674  16.929  0.00  0.00    +0.000 OA
ATOM     17  C   UNL     1       7.772   8.044  17.285  0.00  0.00    +0.000 C 
ENDBRANCH  11  16
ENDBRANCH   1   9
BRANCH   5  18
ATOM     18  C   UNL     1       2.478   7.019  19.111  0.00  0.00    +0.000 A 
ATOM     19  C   UNL     1       2.691   7.566  17.830  0.00  0.00    +0.000 A 
ATOM     20  C   UNL     1       2.256   8.856  17.509  0.00  0.00    +0.000 A 
ATOM     21  C   UNL     1       1.573   9.617  18.453  0.00  0.00    +0.000 A 
ATOM     22  C   UNL     1       1.365   9.101  19.730  0.00  0.00    +0.000 A 
ATOM     23  C   UNL     1       1.845   7.832  20.063  0.00  0.00    +0.000 A 
ENDBRANCH   5  18
BRANCH   3  24
ATOM     24  S   UNL     1       2.794   2.013  21.489  0.00  0.00    +0.000 S 
ATOM     25  C   UNL     1       1.172   2.305  22.212  0.00  0.00    +0.000 C 
ENDBRANCH   3  24
TORSDOF 6
ENDMDL
MODEL 4
REMARK VINA RESULT:      -5.6      5.660      7.931
REMARK  Name = 
REMARK  10 active torsions:
REMARK  status: ('A' for Active; 'I' for Inactive)
REMARK    1  A    between atoms: C_1  and  O_2
REMARK    2  A    between atoms: O_2  and  C_3
REMARK    3  A    between atoms: C_6  and  C_7
REMARK    4  A    between atoms: C_9  and  S_10
REMARK    5  A    between atoms: S_10  and  C_11
REMARK    6  A    between atoms: C_13  and  C_14
REMARK    7  A    between atoms: C_20  and  O_21
REMARK    8  A    between atoms: O_21  and  C_22
REMARK    9  A    between atoms: C_23  and  O_24
REMARK   10  A    between atoms: O_24  and  C_25
REMARK                            x       y       z     vdW  Elec       q    Type
REMARK                         _______ _______ _______ _____ _____    ______ ____
ROOT
ATOM      1  C   UNL     1       0.000  10.664  18.758  0.00  0.00    +0.000 A 
ATOM      2  N   UNL     1      -1.355  10.373  18.580  0.00  0.00    +0.000 NA
ATOM      3  C   UNL     1      -2.053  11.482  18.573  0.00  0.00    +0.000 A 
ATOM      4  S   UNL     1      -1.170  12.922  18.809  0.00  0.00    +0.000 S 
ATOM      5  C   UNL     1       0.296  12.022  18.949  0.00  0.00    +0.000 A 
ENDROOT
BRANCH   1   9
ATOM      6  C   UNL     1       2.829   7.413  18.708  0.00  0.00    +0.000 A 
ATOM      7  C   UNL     1       2.691   8.290  17.631  0.00  0.00    +0.000 A 
ATOM      8  C   UNL     1       1.846   9.388  17.708  0.00  0.00    +0.000 A 
ATOM      9  C   UNL     1       0.990   9.571  18.803  0.00  0.00    +0.000 A 
ATOM     10  C   UNL     1       1.093   8.667  19.889  0.00  0.00    +0.000 A 
ATOM     11  C   UNL     1       2.010   7.575  19.845  0.00  0.00    +0.000 A 
BRANCH   6  13
ATOM     12  C   UNL     1       4.184   6.028  17.330  0.00  0.00    +0.000 C 
ATOM     13  O   UNL     1       3.716   6.371  18.635  0.00  0.00    +0.000 OA
ENDBRANCH   6  13
BRANCH  10  14
ATOM     14  O   UNL     1       0.180   8.835  20.912  0.00  0.00    +0.000 OA
ATOM     15  C   UNL     1       0.636   9.593  22.031  0.00  0.00    +0.000 C 
ENDBRANCH  10  14
BRANCH  11  16
ATOM     16  O   UNL     1       1.975   6.739  20.935  0.00  0.00    +0.000 OA
ATOM     17  C   UNL     1       1.613   5.378  20.794  0.00  0.00    +0.000 C 
ENDBRANCH  11  16
ENDBRANCH   1   9
BRANCH   5  18
ATOM     18  C   UNL     1       1.552  12.749  19.237  0.00  0.00    +0.000 A 
ATOM     19  C   UNL     1       2.358  13.245  18.193  0.00  0.00    +0.000 A 
ATOM     20  C   UNL     1       3.487  14.028  18.456  0.00  0.00    +0.000 A 
ATOM     21  C   UNL     1       3.819  14.356  19.767  0.00  0.00    +0.000 A 
ATOM     22  C   UNL     1       3.044  13.863  20.815  0.00  0.00    +0.000 A 
ATOM     23  C   UNL     1       1.946  13.040  20.552  0.00  0.00    +0.000 A 
ENDBRANCH   5  18
BRANCH   3  24
ATOM     24  S   UNL     1      -3.792  11.529  18.364  0.00  0.00    +0.000 S 
ATOM     25  C   UNL     1      -3.957  11.221  16.599  0.00  0.00    +0.000 C 
ENDBRANCH   3  24
TORSDOF 6
ENDMDL
MODEL 5
REMARK VINA RESULT:      -5.4      8.329     10.358
REMARK  Name = 
REMARK  10 active torsions:
REMARK  status: ('A' for Active; 'I' for Inactive)
REMARK    1  A    between atoms: C_1  and  O_2
REMARK    2  A    between atoms: O_2  and  C_3
REMARK    3  A    between atoms: C_6  and  C_7
REMARK    4  A    between atoms: C_9  and  S_10
REMARK    5  A    between atoms: S_10  and  C_11
REMARK    6  A    between atoms: C_13  and  C_14
REMARK    7  A    between atoms: C_20  and  O_21
REMARK    8  A    between atoms: O_21  and  C_22
REMARK    9  A    between atoms: C_23  and  O_24
REMARK   10  A    between atoms: O_24  and  C_25
REMARK                            x       y       z     vdW  Elec       q    Type
REMARK                         _______ _______ _______ _____ _____    ______ ____
ROOT
ATOM      1  C   UNL     1      -0.606  13.254  19.699  0.00  0.00    +0.000 A 
ATOM      2  N   UNL     1      -0.124  14.418  19.093  0.00  0.00    +0.000 NA
ATOM      3  C   UNL     1       1.138  14.591  19.398  0.00  0.00    +0.000 A 
ATOM      4  S   UNL     1       1.823  13.424  20.436  0.00  0.00    +0.000 S 
ATOM      5  C   UNL     1       0.315  12.589  20.523  0.00  0.00    +0.000 A 
ENDROOT
BRANCH   1   9
ATOM      6  C   UNL     1      -4.716  12.014  19.326  0.00  0.00    +0.000 A 
ATOM      7  C   UNL     1      -4.288  12.856  20.353  0.00  0.00    +0.000 A 
ATOM      8  C   UNL     1      -2.982  13.322  20.397  0.00  0.00    +0.000 A 
ATOM      9  C   UNL     1      -2.011  12.847  19.505  0.00  0.00    +0.000 A 
ATOM     10  C   UNL     1      -2.424  11.963  18.477  0.00  0.00    +0.000 A 
ATOM     11  C   UNL     1      -3.781  11.534  18.386  0.00  0.00    +0.000 A 
BRANCH   6  13
ATOM     12  C   UNL     1      -6.721  11.535  20.511  0.00  0.00    +0.000 C 
ATOM     13  O   UNL     1      -6.026  11.617  19.266  0.00  0.00    +0.000 OA
ENDBRANCH   6  13
BRANCH  10  14
ATOM     14  O   UNL     1      -1.424  11.457  17.668  0.00  0.00    +0.000 OA
ATOM     15  C   UNL     1      -0.991  10.133  17.973  0.00  0.00    +0.000 C 
ENDBRANCH  10  14
BRANCH  11  16
ATOM     16  O   UNL     1      -4.042  10.635  17.380  0.00  0.00    +0.000 OA
ATOM     17  C   UNL     1      -4.177  11.066  16.038  0.00  0.00    +0.000 C 
ENDBRANCH  11  16
ENDBRANCH   1   9
BRANCH   5  18
ATOM     18  C   UNL     1       0.212  11.393  21.389  0.00  0.00    +0.000 A 
ATOM     19  C   UNL     1      -0.670  11.367  22.487  0.00  0.00    +0.000 A 
ATOM     20  C   UNL     1      -0.854  10.205  23.243  0.00  0.00    +0.000 A 
ATOM     21  C   UNL     1      -0.182   9.036  22.901  0.00  0.00    +0.000 A 
ATOM     22  C   UNL     1       0.706   9.044  21.829  0.00  0.00    +0.000 A 
ATOM     23  C   UNL     1       0.927  10.219  21.106  0.00  0.00    +0.000 A 
ENDBRANCH   5  18
BRANCH   3  24
ATOM     24  S   UNL     1       2.097  15.938  18.819  0.00  0.00    +0.000 S 
ATOM     25  C   UNL     1       3.362  15.098  17.854  0.00  0.00    +0.000 C 
ENDBRANCH   3  24
TORSDOF 6
ENDMDL
MODEL 6
REMARK VINA RESULT:      -5.4      5.768      9.235
REMARK  Name = 
REMARK  10 active torsions:
REMARK  status: ('A' for Active; 'I' for Inactive)
REMARK    1  A    between atoms: C_1  and  O_2
REMARK    2  A    between atoms: O_2  and  C_3
REMARK    3  A    between atoms: C_6  and  C_7
REMARK    4  A    between atoms: C_9  and  S_10
REMARK    5  A    between atoms: S_10  and  C_11
REMARK    6  A    between atoms: C_13  and  C_14
REMARK    7  A    between atoms: C_20  and  O_21
REMARK    8  A    between atoms: O_21  and  C_22
REMARK    9  A    between atoms: C_23  and  O_24
REMARK   10  A    between atoms: O_24  and  C_25
REMARK                            x       y       z     vdW  Elec       q    Type
REMARK                         _______ _______ _______ _____ _____    ______ ____
ROOT
ATOM      1  C   UNL     1       0.714  11.348  19.826  0.00  0.00    +0.000 A 
ATOM      2  N   UNL     1       1.458  12.270  20.567  0.00  0.00    +0.000 NA
ATOM      3  C   UNL     1       0.745  13.347  20.788  0.00  0.00    +0.000 A 
ATOM      4  S   UNL     1      -0.821  13.356  20.114  0.00  0.00    +0.000 S 
ATOM      5  C   UNL     1      -0.561  11.789  19.440  0.00  0.00    +0.000 A 
ENDROOT
BRANCH   1   9
ATOM      6  C   UNL     1       2.333   7.561  18.559  0.00  0.00    +0.000 A 
ATOM      7  C   UNL     1       2.228   8.648  17.690  0.00  0.00    +0.000 A 
ATOM      8  C   UNL     1       1.797   9.887  18.145  0.00  0.00    +0.000 A 
ATOM      9  C   UNL     1       1.308  10.052  19.448  0.00  0.00    +0.000 A 
ATOM     10  C   UNL     1       1.374   8.946  20.332  0.00  0.00    +0.000 A 
ATOM     11  C   UNL     1       1.882   7.689  19.889  0.00  0.00    +0.000 A 
BRANCH   6  13
ATOM     12  C   UNL     1       4.128   6.390  17.528  0.00  0.00    +0.000 C 
ATOM     13  O   UNL     1       2.821   6.364  18.104  0.00  0.00    +0.000 OA
ENDBRANCH   6  13
BRANCH  10  14
ATOM     14  O   UNL     1       0.812   9.128  21.581  0.00  0.00    +0.000 OA
ATOM     15  C   UNL     1      -0.517   8.632  21.740  0.00  0.00    +0.000 C 
ENDBRANCH  10  14
BRANCH  11  16
ATOM     16  O   UNL     1       1.842   6.682  20.824  0.00  0.00    +0.000 OA
ATOM     17  C   UNL     1       1.447   5.371  20.462  0.00  0.00    +0.000 C 
ENDBRANCH  11  16
ENDBRANCH   1   9
BRANCH   5  18
ATOM     18  C   UNL     1      -1.628  11.185  18.611  0.00  0.00    +0.000 A 
ATOM     19  C   UNL     1      -2.951  11.668  18.668  0.00  0.00    +0.000 A 
ATOM     20  C   UNL     1      -3.940  11.178  17.809  0.00  0.00    +0.000 A 
ATOM     21  C   UNL     1      -3.623  10.215  16.857  0.00  0.00    +0.000 A 
ATOM     22  C   UNL     1      -2.325   9.713  16.794  0.00  0.00    +0.000 A 
ATOM     23  C   UNL     1      -1.351  10.168  17.686  0.00  0.00    +0.000 A 
ENDBRANCH   5  18
BRANCH   3  24
ATOM     24  S   UNL     1       1.333  14.727  21.693  0.00  0.00    +0.000 S 
ATOM     25  C   UNL     1      -0.126  15.193  22.638  0.00  0.00    +0.000 C 
ENDBRANCH   3  24
TORSDOF 6
ENDMDL
MODEL 7
REMARK VINA RESULT:      -5.4      9.286     12.078
REMARK  Name = 
REMARK  10 active torsions:
REMARK  status: ('A' for Active; 'I' for Inactive)
REMARK    1  A    between atoms: C_1  and  O_2
REMARK    2  A    between atoms: O_2  and  C_3
REMARK    3  A    between atoms: C_6  and  C_7
REMARK    4  A    between atoms: C_9  and  S_10
REMARK    5  A    between atoms: S_10  and  C_11
REMARK    6  A    between atoms: C_13  and  C_14
REMARK    7  A    between atoms: C_20  and  O_21
REMARK    8  A    between atoms: O_21  and  C_22
REMARK    9  A    between atoms: C_23  and  O_24
REMARK   10  A    between atoms: O_24  and  C_25
REMARK                            x       y       z     vdW  Elec       q    Type
REMARK                         _______ _______ _______ _____ _____    ______ ____
ROOT
ATOM      1  C   UNL     1      -2.332  13.525  20.965  0.00  0.00    +0.000 A 
ATOM      2  N   UNL     1      -2.208  14.912  20.852  0.00  0.00    +0.000 NA
ATOM      3  C   UNL     1      -0.957  15.264  21.019  0.00  0.00    +0.000 A 
ATOM      4  S   UNL     1       0.137  13.999  21.352  0.00  0.00    +0.000 S 
ATOM      5  C   UNL     1      -1.147  12.847  21.287  0.00  0.00    +0.000 A 
ENDROOT
BRANCH   1   9
ATOM      6  C   UNL     1      -6.225  11.774  20.368  0.00  0.00    +0.000 A 
ATOM      7  C   UNL     1      -5.291  11.870  19.335  0.00  0.00    +0.000 A 
ATOM      8  C   UNL     1      -4.009  12.346  19.573  0.00  0.00    +0.000 A 
ATOM      9  C   UNL     1      -3.655  12.887  20.817  0.00  0.00    +0.000 A 
ATOM     10  C   UNL     1      -4.606  12.830  21.866  0.00  0.00    +0.000 A 
ATOM     11  C   UNL     1      -5.902  12.278  21.645  0.00  0.00    +0.000 A 
BRANCH   6  13
ATOM     12  C   UNL     1      -7.605   9.838  20.340  0.00  0.00    +0.000 C 
ATOM     13  O   UNL     1      -7.464  11.242  20.124  0.00  0.00    +0.000 OA
ENDBRANCH   6  13
BRANCH  10  14
ATOM     14  O   UNL     1      -4.246  13.443  23.051  0.00  0.00    +0.000 OA
ATOM     15  C   UNL     1      -3.850  12.568  24.106  0.00  0.00    +0.000 C 
ENDBRANCH  10  14
BRANCH  11  16
ATOM     16  O   UNL     1      -6.750  12.331  22.726  0.00  0.00    +0.000 OA
ATOM     17  C   UNL     1      -7.698  13.375  22.854  0.00  0.00    +0.000 C 
ENDBRANCH  11  16
ENDBRANCH   1   9
BRANCH   5  18
ATOM     18  C   UNL     1      -0.842  11.425  21.565  0.00  0.00    +0.000 A 
ATOM     19  C   UNL     1      -0.504  10.539  20.524  0.00  0.00    +0.000 A 
ATOM     20  C   UNL     1      -0.108   9.225  20.788  0.00  0.00    +0.000 A 
ATOM     21  C   UNL     1      -0.013   8.775  22.102  0.00  0.00    +0.000 A 
ATOM     22  C   UNL     1      -0.357   9.631  23.146  0.00  0.00    +0.000 A 
ATOM     23  C   UNL     1      -0.801  10.928  22.876  0.00  0.00    +0.000 A 
ENDBRANCH   5  18
BRANCH   3  24
ATOM     24  S   UNL     1      -0.401  16.924  20.940  0.00  0.00    +0.000 S 
ATOM     25  C   UNL     1      -0.476  17.251  19.172  0.00  0.00    +0.000 C 
ENDBRANCH   3  24
TORSDOF 6
ENDMDL
MODEL 8
REMARK VINA RESULT:      -5.3      8.353     10.437
REMARK  Name = 
REMARK  10 active torsions:
REMARK  status: ('A' for Active; 'I' for Inactive)
REMARK    1  A    between atoms: C_1  and  O_2
REMARK    2  A    between atoms: O_2  and  C_3
REMARK    3  A    between atoms: C_6  and  C_7
REMARK    4  A    between atoms: C_9  and  S_10
REMARK    5  A    between atoms: S_10  and  C_11
REMARK    6  A    between atoms: C_13  and  C_14
REMARK    7  A    between atoms: C_20  and  O_21
REMARK    8  A    between atoms: O_21  and  C_22
REMARK    9  A    between atoms: C_23  and  O_24
REMARK   10  A    between atoms: O_24  and  C_25
REMARK                            x       y       z     vdW  Elec       q    Type
REMARK                         _______ _______ _______ _____ _____    ______ ____
ROOT
ATOM      1  C   UNL     1      -0.763  13.187  19.547  0.00  0.00    +0.000 A 
ATOM      2  N   UNL     1      -0.298  14.362  18.950  0.00  0.00    +0.000 NA
ATOM      3  C   UNL     1       0.936  14.595  19.324  0.00  0.00    +0.000 A 
ATOM      4  S   UNL     1       1.609  13.475  20.419  0.00  0.00    +0.000 S 
ATOM      5  C   UNL     1       0.136  12.576  20.433  0.00  0.00    +0.000 A 
ENDROOT
BRANCH   1   9
ATOM      6  C   UNL     1      -4.788  11.763  18.961  0.00  0.00    +0.000 A 
ATOM      7  C   UNL     1      -4.457  12.637  19.997  0.00  0.00    +0.000 A 
ATOM      8  C   UNL     1      -3.176  13.162  20.107  0.00  0.00    +0.000 A 
ATOM      9  C   UNL     1      -2.136  12.716  19.280  0.00  0.00    +0.000 A 
ATOM     10  C   UNL     1      -2.450  11.799  18.246  0.00  0.00    +0.000 A 
ATOM     11  C   UNL     1      -3.780  11.310  18.085  0.00  0.00    +0.000 A 
BRANCH   6  13
ATOM     12  C   UNL     1      -6.917  12.029  17.936  0.00  0.00    +0.000 C 
ATOM     13  O   UNL     1      -6.074  11.307  18.834  0.00  0.00    +0.000 OA
ENDBRANCH   6  13
BRANCH  10  14
ATOM     14  O   UNL     1      -1.384  11.326  17.505  0.00  0.00    +0.000 OA
ATOM     15  C   UNL     1      -0.867  10.058  17.903  0.00  0.00    +0.000 C 
ENDBRANCH  10  14
BRANCH  11  16
ATOM     16  O   UNL     1      -3.944  10.385  17.082  0.00  0.00    +0.000 OA
ATOM     17  C   UNL     1      -3.988  10.787  15.725  0.00  0.00    +0.000 C 
ENDBRANCH  11  16
ENDBRANCH   1   9
BRANCH   5  18
ATOM     18  C   UNL     1       0.035  11.389  21.313  0.00  0.00    +0.000 A 
ATOM     19  C   UNL     1       0.913  10.297  21.160  0.00  0.00    +0.000 A 
ATOM     20  C   UNL     1       0.898   9.222  22.054  0.00  0.00    +0.000 A 
ATOM     21  C   UNL     1       0.025   9.228  23.137  0.00  0.00    +0.000 A 
ATOM     22  C   UNL     1      -0.862  10.290  23.298  0.00  0.00    +0.000 A 
ATOM     23  C   UNL     1      -0.879  11.339  22.375  0.00  0.00    +0.000 A 
ENDBRANCH   5  18
BRANCH   3  24
ATOM     24  S   UNL     1       1.867  15.975  18.777  0.00  0.00    +0.000 S 
ATOM     25  C   UNL     1       3.481  15.636  19.497  0.00  0.00    +0.000 C 
ENDBRANCH   3  24
TORSDOF 6
ENDMDL
MODEL 9
REMARK VINA RESULT:      -5.3      8.336     10.551
REMARK  Name = 
REMARK  10 active torsions:
REMARK  status: ('A' for Active; 'I' for Inactive)
REMARK    1  A    between atoms: C_1  and  O_2
REMARK    2  A    between atoms: O_2  and  C_3
REMARK    3  A    between atoms: C_6  and  C_7
REMARK    4  A    between atoms: C_9  and  S_10
REMARK    5  A    between atoms: S_10  and  C_11
REMARK    6  A    between atoms: C_13  and  C_14
REMARK    7  A    between atoms: C_20  and  O_21
REMARK    8  A    between atoms: O_21  and  C_22
REMARK    9  A    between atoms: C_23  and  O_24
REMARK   10  A    between atoms: O_24  and  C_25
REMARK                            x       y       z     vdW  Elec       q    Type
REMARK                         _______ _______ _______ _____ _____    ______ ____
ROOT
ATOM      1  C   UNL     1       8.167  15.394  18.452  0.00  0.00    +0.000 A 
ATOM      2  N   UNL     1       8.605  16.672  18.097  0.00  0.00    +0.000 NA
ATOM      3  C   UNL     1       9.882  16.643  17.807  0.00  0.00    +0.000 A 
ATOM      4  S   UNL     1      10.650  15.128  17.966  0.00  0.00    +0.000 S 
ATOM      5  C   UNL     1       9.167  14.411  18.483  0.00  0.00    +0.000 A 
ENDROOT
BRANCH   1   9
ATOM      6  C   UNL     1       3.993  14.863  19.387  0.00  0.00    +0.000 A 
ATOM      7  C   UNL     1       4.494  14.665  18.099  0.00  0.00    +0.000 A 
ATOM      8  C   UNL     1       5.855  14.744  17.842  0.00  0.00    +0.000 A 
ATOM      9  C   UNL     1       6.756  15.174  18.826  0.00  0.00    +0.000 A 
ATOM     10  C   UNL     1       6.257  15.414  20.130  0.00  0.00    +0.000 A 
ATOM     11  C   UNL     1       4.868  15.267  20.417  0.00  0.00    +0.000 A 
BRANCH   6  13
ATOM     12  C   UNL     1       2.216  13.415  20.018  0.00  0.00    +0.000 C 
ATOM     13  O   UNL     1       2.653  14.718  19.631  0.00  0.00    +0.000 OA
ENDBRANCH   6  13
BRANCH  10  14
ATOM     14  O   UNL     1       7.162  15.910  21.049  0.00  0.00    +0.000 OA
ATOM     15  C   UNL     1       7.136  17.323  21.243  0.00  0.00    +0.000 C 
ENDBRANCH  10  14
BRANCH  11  16
ATOM     16  O   UNL     1       4.502  15.582  21.704  0.00  0.00    +0.000 OA
ATOM     17  C   UNL     1       4.561  14.612  22.733  0.00  0.00    +0.000 C 
ENDBRANCH  11  16
ENDBRANCH   1   9
BRANCH   5  18
ATOM     18  C   UNL     1       9.164  12.980  18.864  0.00  0.00    +0.000 A 
ATOM     19  C   UNL     1       8.976  11.974  17.896  0.00  0.00    +0.000 A 
ATOM     20  C   UNL     1       9.082  10.619  18.227  0.00  0.00    +0.000 A 
ATOM     21  C   UNL     1       9.405  10.242  19.527  0.00  0.00    +0.000 A 
ATOM     22  C   UNL     1       9.580  11.220  20.502  0.00  0.00    +0.000 A 
ATOM     23  C   UNL     1       9.424  12.571  20.180  0.00  0.00    +0.000 A 
ENDBRANCH   5  18
BRANCH   3  24
ATOM     24  S   UNL     1      10.793  18.053  17.306  0.00  0.00    +0.000 S 
ATOM     25  C   UNL     1      12.302  17.876  18.271  0.00  0.00    +0.000 C 
ENDBRANCH   3  24
TORSDOF 6
ENDMDL
