MODEL 1
REMARK VINA RESULT:      -8.3      0.000      0.000
REMARK  Name = 
REMARK  7 active torsions:
REMARK  status: ('A' for Active; 'I' for Inactive)
REMARK    1  A    between atoms: C_1  and  C_2
REMARK    2  A    between atoms: C_5  and  S_6
REMARK    3  A    between atoms: S_6  and  C_7
REMARK    4  A    between atoms: C_7  and  C_8
REMARK    5  A    between atoms: C_8  and  N_9
REMARK    6  A    between atoms: N_17  and  C_18
REMARK    7  A    between atoms: N_21  and  C_22
REMARK                            x       y       z     vdW  Elec       q    Type
REMARK                         _______ _______ _______ _____ _____    ______ ____
ROOT
ATOM      1  N   UNL     1       2.783   1.787  18.323  0.00  0.00    +0.000 N 
ATOM      2  C   UNL     1       3.754   2.676  18.027  0.00  0.00    +0.000 A 
ATOM      3  N   UNL     1       4.165   3.020  16.822  0.00  0.00    +0.000 NA
ATOM      4  C   UNL     1       5.149   3.940  17.039  0.00  0.00    +0.000 A 
ATOM      5  C   UNL     1       5.347   4.152  18.368  0.00  0.00    +0.000 A 
ATOM      6  N   UNL     1       4.462   3.336  19.000  0.00  0.00    +0.000 N 
ATOM      7  C   UNL     1       6.298   5.056  18.896  0.00  0.00    +0.000 A 
ATOM      8  O   UNL     1       6.439   5.225  20.101  0.00  0.00    +0.000 OA
ATOM      9  N   UNL     1       7.021   5.712  17.899  0.00  0.00    +0.000 N 
ATOM     10  C   UNL     1       8.017   6.682  18.307  0.00  0.00    +0.000 C 
ATOM     11  C   UNL     1       6.857   5.529  16.509  0.00  0.00    +0.000 A 
ATOM     12  O   UNL     1       7.546   6.164  15.703  0.00  0.00    +0.000 OA
ATOM     13  N   UNL     1       5.886   4.613  16.092  0.00  0.00    +0.000 N 
ATOM     14  C   UNL     1       5.652   4.392  14.678  0.00  0.00    +0.000 C 
ATOM     15  H   UNL     1       2.306   1.399  17.512  0.00  0.00    +0.000 HD
ATOM     16  H   UNL     1       4.351   3.233  19.998  0.00  0.00    +0.000 HD
ENDROOT
BRANCH   1  17
ATOM     17  C   UNL     1       1.933   1.925  19.506  0.00  0.00    +0.000 C 
BRANCH  17  18
ATOM     18  C   UNL     1       1.173   3.262  19.514  0.00  0.00    +0.000 C 
BRANCH  18  19
ATOM     19  S   UNL     1       1.808   4.324  20.858  0.00  0.00    +0.000 S 
BRANCH  19  24
ATOM     20  C   UNL     1       2.021   9.700  17.954  0.00  0.00    +0.000 C 
ATOM     21  C   UNL     1       1.993   8.393  18.691  0.00  0.00    +0.000 A 
ATOM     22  C   UNL     1       2.378   7.205  18.067  0.00  0.00    +0.000 A 
ATOM     23  C   UNL     1       2.329   5.992  18.761  0.00  0.00    +0.000 A 
ATOM     24  C   UNL     1       1.902   5.939  20.096  0.00  0.00    +0.000 A 
ATOM     25  C   UNL     1       1.510   7.129  20.715  0.00  0.00    +0.000 A 
ATOM     26  C   UNL     1       1.559   8.345  20.021  0.00  0.00    +0.000 A 
ENDBRANCH  19  24
ENDBRANCH  18  19
ENDBRANCH  17  18
ENDBRANCH   1  17
TORSDOF 4
ENDMDL
MODEL 2
REMARK VINA RESULT:      -8.0      0.251      1.010
REMARK  Name = 
REMARK  7 active torsions:
REMARK  status: ('A' for Active; 'I' for Inactive)
REMARK    1  A    between atoms: C_1  and  C_2
REMARK    2  A    between atoms: C_5  and  S_6
REMARK    3  A    between atoms: S_6  and  C_7
REMARK    4  A    between atoms: C_7  and  C_8
REMARK    5  A    between atoms: C_8  and  N_9
REMARK    6  A    between atoms: N_17  and  C_18
REMARK    7  A    between atoms: N_21  and  C_22
REMARK                            x       y       z     vdW  Elec       q    Type
REMARK                         _______ _______ _______ _____ _____    ______ ____
ROOT
ATOM      1  N   UNL     1       2.678   1.991  18.460  0.00  0.00    +0.000 N 
ATOM      2  C   UNL     1       3.672   2.842  18.133  0.00  0.00    +0.000 A 
ATOM      3  N   UNL     1       4.053   3.175  16.915  0.00  0.00    +0.000 NA
ATOM      4  C   UNL     1       5.080   4.056  17.100  0.00  0.00    +0.000 A 
ATOM      5  C   UNL     1       5.333   4.253  18.421  0.00  0.00    +0.000 A 
ATOM      6  N   UNL     1       4.439   3.469  19.082  0.00  0.00    +0.000 N 
ATOM      7  C   UNL     1       6.337   5.116  18.918  0.00  0.00    +0.000 A 
ATOM      8  O   UNL     1       6.527   5.274  20.118  0.00  0.00    +0.000 OA
ATOM      9  N   UNL     1       7.050   5.748  17.899  0.00  0.00    +0.000 N 
ATOM     10  C   UNL     1       8.097   6.677  18.274  0.00  0.00    +0.000 C 
ATOM     11  C   UNL     1       6.829   5.579  16.514  0.00  0.00    +0.000 A 
ATOM     12  O   UNL     1       7.513   6.190  15.687  0.00  0.00    +0.000 OA
ATOM     13  N   UNL     1       5.809   4.704  16.130  0.00  0.00    +0.000 N 
ATOM     14  C   UNL     1       5.516   4.498  14.724  0.00  0.00    +0.000 C 
ATOM     15  H   UNL     1       2.157   1.625  17.666  0.00  0.00    +0.000 HD
ATOM     16  H   UNL     1       4.360   3.366  20.083  0.00  0.00    +0.000 HD
ENDROOT
BRANCH   1  17
ATOM     17  C   UNL     1       1.877   2.156  19.673  0.00  0.00    +0.000 C 
BRANCH  17  18
ATOM     18  C   UNL     1       1.120   3.495  19.683  0.00  0.00    +0.000 C 
BRANCH  18  19
ATOM     19  S   UNL     1       1.957   4.667  20.806  0.00  0.00    +0.000 S 
BRANCH  19  24
ATOM     20  C   UNL     1       1.982  10.074  17.951  0.00  0.00    +0.000 C 
ATOM     21  C   UNL     1       1.955   8.734  18.625  0.00  0.00    +0.000 A 
ATOM     22  C   UNL     1       1.435   8.585  19.913  0.00  0.00    +0.000 A 
ATOM     23  C   UNL     1       1.433   7.333  20.535  0.00  0.00    +0.000 A 
ATOM     24  C   UNL     1       1.942   6.201  19.884  0.00  0.00    +0.000 A 
ATOM     25  C   UNL     1       2.468   6.354  18.599  0.00  0.00    +0.000 A 
ATOM     26  C   UNL     1       2.470   7.608  17.973  0.00  0.00    +0.000 A 
ENDBRANCH  19  24
ENDBRANCH  18  19
ENDBRANCH  17  18
ENDBRANCH   1  17
TORSDOF 4
ENDMDL
MODEL 3
REMARK VINA RESULT:      -7.6      1.379      1.779
REMARK  Name = 
REMARK  7 active torsions:
REMARK  status: ('A' for Active; 'I' for Inactive)
REMARK    1  A    between atoms: C_1  and  C_2
REMARK    2  A    between atoms: C_5  and  S_6
REMARK    3  A    between atoms: S_6  and  C_7
REMARK    4  A    between atoms: C_7  and  C_8
REMARK    5  A    between atoms: C_8  and  N_9
REMARK    6  A    between atoms: N_17  and  C_18
REMARK    7  A    between atoms: N_21  and  C_22
REMARK                            x       y       z     vdW  Elec       q    Type
REMARK                         _______ _______ _______ _____ _____    ______ ____
ROOT
ATOM      1  N   UNL     1       3.927   2.148  17.991  0.00  0.00    +0.000 N 
ATOM      2  C   UNL     1       4.692   3.258  17.931  0.00  0.00    +0.000 A 
ATOM      3  N   UNL     1       4.706   4.152  16.963  0.00  0.00    +0.000 NA
ATOM      4  C   UNL     1       5.629   5.078  17.357  0.00  0.00    +0.000 A 
ATOM      5  C   UNL     1       6.183   4.749  18.554  0.00  0.00    +0.000 A 
ATOM      6  N   UNL     1       5.591   3.579  18.918  0.00  0.00    +0.000 N 
ATOM      7  C   UNL     1       7.165   5.522  19.215  0.00  0.00    +0.000 A 
ATOM      8  O   UNL     1       7.633   5.195  20.300  0.00  0.00    +0.000 OA
ATOM      9  N   UNL     1       7.511   6.669  18.501  0.00  0.00    +0.000 N 
ATOM     10  C   UNL     1       8.495   7.561  19.080  0.00  0.00    +0.000 C 
ATOM     11  C   UNL     1       6.969   7.057  17.256  0.00  0.00    +0.000 A 
ATOM     12  O   UNL     1       7.339   8.098  16.703  0.00  0.00    +0.000 OA
ATOM     13  N   UNL     1       6.001   6.222  16.689  0.00  0.00    +0.000 N 
ATOM     14  C   UNL     1       5.389   6.571  15.421  0.00  0.00    +0.000 C 
ATOM     15  H   UNL     1       3.271   2.046  17.219  0.00  0.00    +0.000 HD
ATOM     16  H   UNL     1       5.782   3.047  19.753  0.00  0.00    +0.000 HD
ENDROOT
BRANCH   1  17
ATOM     17  C   UNL     1       3.446   1.599  19.258  0.00  0.00    +0.000 C 
BRANCH  17  18
ATOM     18  C   UNL     1       1.911   1.621  19.348  0.00  0.00    +0.000 C 
BRANCH  18  19
ATOM     19  S   UNL     1       1.382   2.894  20.546  0.00  0.00    +0.000 S 
BRANCH  19  24
ATOM     20  C   UNL     1       2.857   8.155  17.803  0.00  0.00    +0.000 C 
ATOM     21  C   UNL     1       2.460   6.871  18.469  0.00  0.00    +0.000 A 
ATOM     22  C   UNL     1       2.754   6.635  19.814  0.00  0.00    +0.000 A 
ATOM     23  C   UNL     1       2.393   5.426  20.417  0.00  0.00    +0.000 A 
ATOM     24  C   UNL     1       1.725   4.428  19.693  0.00  0.00    +0.000 A 
ATOM     25  C   UNL     1       1.438   4.664  18.346  0.00  0.00    +0.000 A 
ATOM     26  C   UNL     1       1.799   5.876  17.741  0.00  0.00    +0.000 A 
ENDBRANCH  19  24
ENDBRANCH  18  19
ENDBRANCH  17  18
ENDBRANCH   1  17
TORSDOF 4
ENDMDL
MODEL 4
REMARK VINA RESULT:      -7.4      4.774      7.409
REMARK  Name = 
REMARK  7 active torsions:
REMARK  status: ('A' for Active; 'I' for Inactive)
REMARK    1  A    between atoms: C_1  and  C_2
REMARK    2  A    between atoms: C_5  and  S_6
REMARK    3  A    between atoms: S_6  and  C_7
REMARK    4  A    between atoms: C_7  and  C_8
REMARK    5  A    between atoms: C_8  and  N_9
REMARK    6  A    between atoms: N_17  and  C_18
REMARK    7  A    between atoms: N_21  and  C_22
REMARK                            x       y       z     vdW  Elec       q    Type
REMARK                         _______ _______ _______ _____ _____    ______ ____
ROOT
ATOM      1  N   UNL     1       2.441   6.783  19.999  0.00  0.00    +0.000 N 
ATOM      2  C   UNL     1       1.738   7.893  20.306  0.00  0.00    +0.000 A 
ATOM      3  N   UNL     1       1.333   8.824  19.466  0.00  0.00    +0.000 NA
ATOM      4  C   UNL     1       0.667   9.728  20.243  0.00  0.00    +0.000 A 
ATOM      5  C   UNL     1       0.671   9.357  21.551  0.00  0.00    +0.000 A 
ATOM      6  N   UNL     1       1.365   8.188  21.593  0.00  0.00    +0.000 N 
ATOM      7  C   UNL     1       0.055  10.094  22.588  0.00  0.00    +0.000 A 
ATOM      8  O   UNL     1       0.074   9.721  23.755  0.00  0.00    +0.000 OA
ATOM      9  N   UNL     1      -0.563  11.256  22.123  0.00  0.00    +0.000 N 
ATOM     10  C   UNL     1      -1.251  12.093  23.085  0.00  0.00    +0.000 C 
ATOM     11  C   UNL     1      -0.597  11.687  20.779  0.00  0.00    +0.000 A 
ATOM     12  O   UNL     1      -1.177  12.732  20.466  0.00  0.00    +0.000 OA
ATOM     13  N   UNL     1       0.042  10.883  19.831  0.00  0.00    +0.000 N 
ATOM     14  C   UNL     1       0.028  11.257  18.429  0.00  0.00    +0.000 C 
ATOM     15  H   UNL     1       2.618   6.657  19.004  0.00  0.00    +0.000 HD
ATOM     16  H   UNL     1       1.570   7.644  22.418  0.00  0.00    +0.000 HD
ENDROOT
BRANCH   1  17
ATOM     17  C   UNL     1       2.287   5.531  20.739  0.00  0.00    +0.000 C 
BRANCH  17  18
ATOM     18  C   UNL     1       1.699   4.414  19.862  0.00  0.00    +0.000 C 
BRANCH  18  19
ATOM     19  S   UNL     1       2.870   3.014  19.779  0.00  0.00    +0.000 S 
BRANCH  19  24
ATOM     20  C   UNL     1       6.905   5.120  15.697  0.00  0.00    +0.000 C 
ATOM     21  C   UNL     1       5.940   4.580  16.710  0.00  0.00    +0.000 A 
ATOM     22  C   UNL     1       4.736   3.990  16.317  0.00  0.00    +0.000 A 
ATOM     23  C   UNL     1       3.839   3.507  17.275  0.00  0.00    +0.000 A 
ATOM     24  C   UNL     1       4.125   3.595  18.644  0.00  0.00    +0.000 A 
ATOM     25  C   UNL     1       5.327   4.192  19.034  0.00  0.00    +0.000 A 
ATOM     26  C   UNL     1       6.227   4.677  18.076  0.00  0.00    +0.000 A 
ENDBRANCH  19  24
ENDBRANCH  18  19
ENDBRANCH  17  18
ENDBRANCH   1  17
TORSDOF 4
ENDMDL
MODEL 5
REMARK VINA RESULT:      -7.3      3.783      5.544
REMARK  Name = 
REMARK  7 active torsions:
REMARK  status: ('A' for Active; 'I' for Inactive)
REMARK    1  A    between atoms: C_1  and  C_2
REMARK    2  A    between atoms: C_5  and  S_6
REMARK    3  A    between atoms: S_6  and  C_7
REMARK    4  A    between atoms: C_7  and  C_8
REMARK    5  A    between atoms: C_8  and  N_9
REMARK    6  A    between atoms: N_17  and  C_18
REMARK    7  A    between atoms: N_21  and  C_22
REMARK                            x       y       z     vdW  Elec       q    Type
REMARK                         _______ _______ _______ _____ _____    ______ ____
ROOT
ATOM      1  N   UNL     1       1.396   7.678  21.456  0.00  0.00    +0.000 N 
ATOM      2  C   UNL     1       1.900   6.738  20.630  0.00  0.00    +0.000 A 
ATOM      3  N   UNL     1       1.640   5.446  20.657  0.00  0.00    +0.000 NA
ATOM      4  C   UNL     1       2.375   4.920  19.634  0.00  0.00    +0.000 A 
ATOM      5  C   UNL     1       3.088   5.883  18.990  0.00  0.00    +0.000 A 
ATOM      6  N   UNL     1       2.792   7.044  19.633  0.00  0.00    +0.000 N 
ATOM      7  C   UNL     1       3.937   5.637  17.886  0.00  0.00    +0.000 A 
ATOM      8  O   UNL     1       4.557   6.535  17.327  0.00  0.00    +0.000 OA
ATOM      9  N   UNL     1       3.968   4.290  17.526  0.00  0.00    +0.000 N 
ATOM     10  C   UNL     1       4.787   3.907  16.393  0.00  0.00    +0.000 C 
ATOM     11  C   UNL     1       3.250   3.253  18.159  0.00  0.00    +0.000 A 
ATOM     12  O   UNL     1       3.340   2.087  17.760  0.00  0.00    +0.000 OA
ATOM     13  N   UNL     1       2.436   3.604  19.241  0.00  0.00    +0.000 N 
ATOM     14  C   UNL     1       1.655   2.590  19.925  0.00  0.00    +0.000 C 
ATOM     15  H   UNL     1       0.712   7.329  22.125  0.00  0.00    +0.000 HD
ATOM     16  H   UNL     1       3.164   7.957  19.419  0.00  0.00    +0.000 HD
ENDROOT
BRANCH   1  17
ATOM     17  C   UNL     1       1.156   9.053  21.020  0.00  0.00    +0.000 C 
BRANCH  17  18
ATOM     18  C   UNL     1      -0.332   9.432  21.110  0.00  0.00    +0.000 C 
BRANCH  18  19
ATOM     19  S   UNL     1      -0.581  11.116  20.447  0.00  0.00    +0.000 S 
BRANCH  19  24
ATOM     20  C   UNL     1      -3.710  10.479  15.233  0.00  0.00    +0.000 C 
ATOM     21  C   UNL     1      -2.948  10.600  16.520  0.00  0.00    +0.000 A 
ATOM     22  C   UNL     1      -3.363  11.479  17.523  0.00  0.00    +0.000 A 
ATOM     23  C   UNL     1      -2.632  11.594  18.710  0.00  0.00    +0.000 A 
ATOM     24  C   UNL     1      -1.476  10.830  18.925  0.00  0.00    +0.000 A 
ATOM     25  C   UNL     1      -1.060   9.957  17.917  0.00  0.00    +0.000 A 
ATOM     26  C   UNL     1      -1.791   9.840  16.727  0.00  0.00    +0.000 A 
ENDBRANCH  19  24
ENDBRANCH  18  19
ENDBRANCH  17  18
ENDBRANCH   1  17
TORSDOF 4
ENDMDL
MODEL 6
REMARK VINA RESULT:      -7.3      4.714      7.609
REMARK  Name = 
REMARK  7 active torsions:
REMARK  status: ('A' for Active; 'I' for Inactive)
REMARK    1  A    between atoms: C_1  and  C_2
REMARK    2  A    between atoms: C_5  and  S_6
REMARK    3  A    between atoms: S_6  and  C_7
REMARK    4  A    between atoms: C_7  and  C_8
REMARK    5  A    between atoms: C_8  and  N_9
REMARK    6  A    between atoms: N_17  and  C_18
REMARK    7  A    between atoms: N_21  and  C_22
REMARK                            x       y       z     vdW  Elec       q    Type
REMARK                         _______ _______ _______ _____ _____    ______ ____
ROOT
ATOM      1  N   UNL     1       2.714   6.813  19.677  0.00  0.00    +0.000 N 
ATOM      2  C   UNL     1       1.932   7.842  20.065  0.00  0.00    +0.000 A 
ATOM      3  N   UNL     1       1.440   8.790  19.294  0.00  0.00    +0.000 NA
ATOM      4  C   UNL     1       0.719   9.587  20.136  0.00  0.00    +0.000 A 
ATOM      5  C   UNL     1       0.776   9.134  21.417  0.00  0.00    +0.000 A 
ATOM      6  N   UNL     1       1.560   8.023  21.374  0.00  0.00    +0.000 N 
ATOM      7  C   UNL     1       0.123   9.752  22.508  0.00  0.00    +0.000 A 
ATOM      8  O   UNL     1       0.192   9.306  23.648  0.00  0.00    +0.000 OA
ATOM      9  N   UNL     1      -0.592  10.888  22.129  0.00  0.00    +0.000 N 
ATOM     10  C   UNL     1      -1.326  11.605  23.152  0.00  0.00    +0.000 C 
ATOM     11  C   UNL     1      -0.684  11.401  20.816  0.00  0.00    +0.000 A 
ATOM     12  O   UNL     1      -1.350  12.415  20.580  0.00  0.00    +0.000 OA
ATOM     13  N   UNL     1      -0.002  10.712  19.809  0.00  0.00    +0.000 N 
ATOM     14  C   UNL     1      -0.070  11.174  18.435  0.00  0.00    +0.000 C 
ATOM     15  H   UNL     1       2.882   6.766  18.674  0.00  0.00    +0.000 HD
ATOM     16  H   UNL     1       1.822   7.446  22.158  0.00  0.00    +0.000 HD
ENDROOT
BRANCH   1  17
ATOM     17  C   UNL     1       2.671   5.508  20.336  0.00  0.00    +0.000 C 
BRANCH  17  18
ATOM     18  C   UNL     1       3.594   4.488  19.650  0.00  0.00    +0.000 C 
BRANCH  18  19
ATOM     19  S   UNL     1       5.245   5.226  19.391  0.00  0.00    +0.000 S 
BRANCH  19  24
ATOM     20  C   UNL     1       6.259   3.865  13.518  0.00  0.00    +0.000 C 
ATOM     21  C   UNL     1       6.033   4.172  14.969  0.00  0.00    +0.000 A 
ATOM     22  C   UNL     1       4.764   4.061  15.540  0.00  0.00    +0.000 A 
ATOM     23  C   UNL     1       4.566   4.369  16.890  0.00  0.00    +0.000 A 
ATOM     24  C   UNL     1       5.631   4.787  17.700  0.00  0.00    +0.000 A 
ATOM     25  C   UNL     1       6.898   4.904  17.124  0.00  0.00    +0.000 A 
ATOM     26  C   UNL     1       7.098   4.596  15.771  0.00  0.00    +0.000 A 
ENDBRANCH  19  24
ENDBRANCH  18  19
ENDBRANCH  17  18
ENDBRANCH   1  17
TORSDOF 4
ENDMDL
MODEL 7
REMARK VINA RESULT:      -7.3      4.859      7.484
REMARK  Name = 
REMARK  7 active torsions:
REMARK  status: ('A' for Active; 'I' for Inactive)
REMARK    1  A    between atoms: C_1  and  C_2
REMARK    2  A    between atoms: C_5  and  S_6
REMARK    3  A    between atoms: S_6  and  C_7
REMARK    4  A    between atoms: C_7  and  C_8
REMARK    5  A    between atoms: C_8  and  N_9
REMARK    6  A    between atoms: N_17  and  C_18
REMARK    7  A    between atoms: N_21  and  C_22
REMARK                            x       y       z     vdW  Elec       q    Type
REMARK                         _______ _______ _______ _____ _____    ______ ____
ROOT
ATOM      1  N   UNL     1       2.472   6.811  20.060  0.00  0.00    +0.000 N 
ATOM      2  C   UNL     1       1.735   7.901  20.358  0.00  0.00    +0.000 A 
ATOM      3  N   UNL     1       1.269   8.793  19.506  0.00  0.00    +0.000 NA
ATOM      4  C   UNL     1       0.590   9.692  20.278  0.00  0.00    +0.000 A 
ATOM      5  C   UNL     1       0.648   9.359  21.595  0.00  0.00    +0.000 A 
ATOM      6  N   UNL     1       1.388   8.219  21.648  0.00  0.00    +0.000 N 
ATOM      7  C   UNL     1       0.034  10.101  22.630  0.00  0.00    +0.000 A 
ATOM      8  O   UNL     1       0.102   9.762  23.805  0.00  0.00    +0.000 OA
ATOM      9  N   UNL     1      -0.643  11.224  22.152  0.00  0.00    +0.000 N 
ATOM     10  C   UNL     1      -1.335  12.061  23.112  0.00  0.00    +0.000 C 
ATOM     11  C   UNL     1      -0.733  11.615  20.799  0.00  0.00    +0.000 A 
ATOM     12  O   UNL     1      -1.363  12.628  20.475  0.00  0.00    +0.000 OA
ATOM     13  N   UNL     1      -0.092  10.809  19.854  0.00  0.00    +0.000 N 
ATOM     14  C   UNL     1      -0.161  11.143  18.443  0.00  0.00    +0.000 C 
ATOM     15  H   UNL     1       2.623   6.664  19.064  0.00  0.00    +0.000 HD
ATOM     16  H   UNL     1       1.639   7.707  22.480  0.00  0.00    +0.000 HD
ENDROOT
BRANCH   1  17
ATOM     17  C   UNL     1       2.388   5.576  20.839  0.00  0.00    +0.000 C 
BRANCH  17  18
ATOM     18  C   UNL     1       2.773   4.344  20.004  0.00  0.00    +0.000 C 
BRANCH  18  19
ATOM     19  S   UNL     1       2.166   4.543  18.293  0.00  0.00    +0.000 S 
BRANCH  19  24
ATOM     20  C   UNL     1       7.189   5.056  14.846  0.00  0.00    +0.000 C 
ATOM     21  C   UNL     1       5.975   4.945  15.720  0.00  0.00    +0.000 A 
ATOM     22  C   UNL     1       5.393   3.704  15.991  0.00  0.00    +0.000 A 
ATOM     23  C   UNL     1       4.250   3.618  16.793  0.00  0.00    +0.000 A 
ATOM     24  C   UNL     1       3.668   4.767  17.348  0.00  0.00    +0.000 A 
ATOM     25  C   UNL     1       4.248   6.007  17.069  0.00  0.00    +0.000 A 
ATOM     26  C   UNL     1       5.393   6.094  16.265  0.00  0.00    +0.000 A 
ENDBRANCH  19  24
ENDBRANCH  18  19
ENDBRANCH  17  18
ENDBRANCH   1  17
TORSDOF 4
ENDMDL
MODEL 8
REMARK VINA RESULT:      -7.3      3.704      5.347
REMARK  Name = 
REMARK  7 active torsions:
REMARK  status: ('A' for Active; 'I' for Inactive)
REMARK    1  A    between atoms: C_1  and  C_2
REMARK    2  A    between atoms: C_5  and  S_6
REMARK    3  A    between atoms: S_6  and  C_7
REMARK    4  A    between atoms: C_7  and  C_8
REMARK    5  A    between atoms: C_8  and  N_9
REMARK    6  A    between atoms: N_17  and  C_18
REMARK    7  A    between atoms: N_21  and  C_22
REMARK                            x       y       z     vdW  Elec       q    Type
REMARK                         _______ _______ _______ _____ _____    ______ ____
ROOT
ATOM      1  N   UNL     1       1.289   7.447  21.372  0.00  0.00    +0.000 N 
ATOM      2  C   UNL     1       1.863   6.528  20.569  0.00  0.00    +0.000 A 
ATOM      3  N   UNL     1       1.556   5.248  20.494  0.00  0.00    +0.000 NA
ATOM      4  C   UNL     1       2.400   4.741  19.548  0.00  0.00    +0.000 A 
ATOM      5  C   UNL     1       3.224   5.703  19.053  0.00  0.00    +0.000 A 
ATOM      6  N   UNL     1       2.888   6.843  19.713  0.00  0.00    +0.000 N 
ATOM      7  C   UNL     1       4.201   5.475  18.056  0.00  0.00    +0.000 A 
ATOM      8  O   UNL     1       4.919   6.372  17.629  0.00  0.00    +0.000 OA
ATOM      9  N   UNL     1       4.232   4.147  17.631  0.00  0.00    +0.000 N 
ATOM     10  C   UNL     1       5.177   3.784  16.595  0.00  0.00    +0.000 C 
ATOM     11  C   UNL     1       3.401   3.111  18.112  0.00  0.00    +0.000 A 
ATOM     12  O   UNL     1       3.502   1.963  17.666  0.00  0.00    +0.000 OA
ATOM     13  N   UNL     1       2.465   3.443  19.096  0.00  0.00    +0.000 N 
ATOM     14  C   UNL     1       1.567   2.431  19.620  0.00  0.00    +0.000 C 
ATOM     15  H   UNL     1       0.511   7.096  21.927  0.00  0.00    +0.000 HD
ATOM     16  H   UNL     1       3.316   7.749  19.597  0.00  0.00    +0.000 HD
ENDROOT
BRANCH   1  17
ATOM     17  C   UNL     1       1.155   8.850  20.981  0.00  0.00    +0.000 C 
BRANCH  17  18
ATOM     18  C   UNL     1      -0.245   9.403  21.294  0.00  0.00    +0.000 C 
BRANCH  18  19
ATOM     19  S   UNL     1      -0.351  11.149  20.767  0.00  0.00    +0.000 S 
BRANCH  19  24
ATOM     20  C   UNL     1      -3.672  10.534  15.670  0.00  0.00    +0.000 C 
ATOM     21  C   UNL     1      -2.853  10.720  16.913  0.00  0.00    +0.000 A 
ATOM     22  C   UNL     1      -1.657  10.022  17.100  0.00  0.00    +0.000 A 
ATOM     23  C   UNL     1      -0.914  10.193  18.272  0.00  0.00    +0.000 A 
ATOM     24  C   UNL     1      -1.343  11.069  19.280  0.00  0.00    +0.000 A 
ATOM     25  C   UNL     1      -2.542  11.760  19.093  0.00  0.00    +0.000 A 
ATOM     26  C   UNL     1      -3.288  11.590  17.919  0.00  0.00    +0.000 A 
ENDBRANCH  19  24
ENDBRANCH  18  19
ENDBRANCH  17  18
ENDBRANCH   1  17
TORSDOF 4
ENDMDL
MODEL 9
REMARK VINA RESULT:      -7.2      4.796      7.326
REMARK  Name = 
REMARK  7 active torsions:
REMARK  status: ('A' for Active; 'I' for Inactive)
REMARK    1  A    between atoms: C_1  and  C_2
REMARK    2  A    between atoms: C_5  and  S_6
REMARK    3  A    between atoms: S_6  and  C_7
REMARK    4  A    between atoms: C_7  and  C_8
REMARK    5  A    between atoms: C_8  and  N_9
REMARK    6  A    between atoms: N_17  and  C_18
REMARK    7  A    between atoms: N_21  and  C_22
REMARK                            x       y       z     vdW  Elec       q    Type
REMARK                         _______ _______ _______ _____ _____    ______ ____
ROOT
ATOM      1  N   UNL     1       2.520   6.846  19.849  0.00  0.00    +0.000 N 
ATOM      2  C   UNL     1       1.796   7.926  20.210  0.00  0.00    +0.000 A 
ATOM      3  N   UNL     1       1.427   8.922  19.429  0.00  0.00    +0.000 NA
ATOM      4  C   UNL     1       0.718   9.758  20.242  0.00  0.00    +0.000 A 
ATOM      5  C   UNL     1       0.662   9.283  21.515  0.00  0.00    +0.000 A 
ATOM      6  N   UNL     1       1.359   8.116  21.497  0.00  0.00    +0.000 N 
ATOM      7  C   UNL     1      -0.009   9.933  22.577  0.00  0.00    +0.000 A 
ATOM      8  O   UNL     1      -0.045   9.466  23.709  0.00  0.00    +0.000 OA
ATOM      9  N   UNL     1      -0.610  11.127  22.177  0.00  0.00    +0.000 N 
ATOM     10  C   UNL     1      -1.350  11.882  23.168  0.00  0.00    +0.000 C 
ATOM     11  C   UNL     1      -0.582  11.665  20.872  0.00  0.00    +0.000 A 
ATOM     12  O   UNL     1      -1.152  12.731  20.616  0.00  0.00    +0.000 OA
ATOM     13  N   UNL     1       0.107  10.941  19.894  0.00  0.00    +0.000 N 
ATOM     14  C   UNL     1       0.160  11.427  18.528  0.00  0.00    +0.000 C 
ATOM     15  H   UNL     1       2.746   6.802  18.857  0.00  0.00    +0.000 HD
ATOM     16  H   UNL     1       1.527   7.508  22.284  0.00  0.00    +0.000 HD
ENDROOT
BRANCH   1  17
ATOM     17  C   UNL     1       2.337   5.538  20.478  0.00  0.00    +0.000 C 
BRANCH  17  18
ATOM     18  C   UNL     1       1.939   4.461  19.456  0.00  0.00    +0.000 C 
BRANCH  18  19
ATOM     19  S   UNL     1       3.409   3.485  18.984  0.00  0.00    +0.000 S 
BRANCH  19  24
ATOM     20  C   UNL     1       7.655   7.531  17.257  0.00  0.00    +0.000 C 
ATOM     21  C   UNL     1       6.590   6.566  17.685  0.00  0.00    +0.000 A 
ATOM     22  C   UNL     1       6.755   5.765  18.818  0.00  0.00    +0.000 A 
ATOM     23  C   UNL     1       5.760   4.857  19.193  0.00  0.00    +0.000 A 
ATOM     24  C   UNL     1       4.576   4.732  18.453  0.00  0.00    +0.000 A 
ATOM     25  C   UNL     1       4.417   5.530  17.316  0.00  0.00    +0.000 A 
ATOM     26  C   UNL     1       5.413   6.441  16.938  0.00  0.00    +0.000 A 
ENDBRANCH  19  24
ENDBRANCH  18  19
ENDBRANCH  17  18
ENDBRANCH   1  17
TORSDOF 4
ENDMDL
