MODEL 1
REMARK VINA RESULT:      -6.7      0.000      0.000
REMARK  Name = 
REMARK  7 active torsions:
REMARK  status: ('A' for Active; 'I' for Inactive)
REMARK    1  A    between atoms: C_2  and  C_3
REMARK    2  A    between atoms: C_3  and  C_4
REMARK    3  A    between atoms: C_4  and  C_5
REMARK    4  A    between atoms: C_5  and  C_6
REMARK    5  A    between atoms: C_6  and  C_7
REMARK    6  A    between atoms: N_13  and  C_14
REMARK    7  A    between atoms: C_14  and  C_15
REMARK                            x       y       z     vdW  Elec       q    Type
REMARK                         _______ _______ _______ _____ _____    ______ ____
ROOT
ATOM      1  O   UNL     1       7.041   5.233  19.565  0.00  0.00    +0.000 OA
ATOM      2  C   UNL     1       6.523   4.758  18.561  0.00  0.00    +0.000 C 
ATOM      3  N   UNL     1       5.527   3.810  18.595  0.00  0.00    +0.000 N 
ATOM      4  H   UNL     1       5.205   3.402  17.730  0.00  0.00    +0.000 HD
ENDROOT
BRANCH   2   5
ATOM      5  C   UNL     1       6.956   5.156  17.166  0.00  0.00    +0.000 C 
BRANCH   5   6
ATOM      6  C   UNL     1       5.816   5.781  16.363  0.00  0.00    +0.000 C 
BRANCH   6   7
ATOM      7  C   UNL     1       5.006   6.755  17.216  0.00  0.00    +0.000 C 
BRANCH   7   8
ATOM      8  C   UNL     1       3.525   6.367  17.248  0.00  0.00    +0.000 C 
BRANCH   8   9
ATOM      9  C   UNL     1       2.777   7.227  18.237  0.00  0.00    +0.000 A 
ATOM     10  C   UNL     1       2.540   6.770  19.539  0.00  0.00    +0.000 A 
ATOM     11  C   UNL     1       1.779   7.532  20.425  0.00  0.00    +0.000 A 
ATOM     12  C   UNL     1       1.249   8.755  20.017  0.00  0.00    +0.000 A 
ATOM     13  C   UNL     1       1.489   9.222  18.725  0.00  0.00    +0.000 A 
ATOM     14  C   UNL     1       2.250   8.462  17.839  0.00  0.00    +0.000 A 
ENDBRANCH   8   9
ENDBRANCH   7   8
ENDBRANCH   6   7
ENDBRANCH   5   6
ENDBRANCH   2   5
BRANCH   3  15
ATOM     15  C   UNL     1       5.005   3.254  19.825  0.00  0.00    +0.000 C 
BRANCH  15  16
ATOM     16  C   UNL     1       3.507   3.124  19.737  0.00  0.00    +0.000 A 
ATOM     17  C   UNL     1       2.868   3.098  18.490  0.00  0.00    +0.000 A 
ATOM     18  C   UNL     1       1.476   3.063  18.407  0.00  0.00    +0.000 A 
ATOM     19  C   UNL     1       0.706   3.055  19.569  0.00  0.00    +0.000 A 
ATOM     20  C   UNL     1       1.329   3.070  20.816  0.00  0.00    +0.000 A 
ATOM     21  C   UNL     1       2.723   3.104  20.901  0.00  0.00    +0.000 A 
ENDBRANCH  15  16
ENDBRANCH   3  15
TORSDOF 7
ENDMDL
MODEL 2
REMARK VINA RESULT:      -6.7      4.665      5.765
REMARK  Name = 
REMARK  7 active torsions:
REMARK  status: ('A' for Active; 'I' for Inactive)
REMARK    1  A    between atoms: C_2  and  C_3
REMARK    2  A    between atoms: C_3  and  C_4
REMARK    3  A    between atoms: C_4  and  C_5
REMARK    4  A    between atoms: C_5  and  C_6
REMARK    5  A    between atoms: C_6  and  C_7
REMARK    6  A    between atoms: N_13  and  C_14
REMARK    7  A    between atoms: C_14  and  C_15
REMARK                            x       y       z     vdW  Elec       q    Type
REMARK                         _______ _______ _______ _____ _____    ______ ____
ROOT
ATOM      1  O   UNL     1       8.084   4.468  18.090  0.00  0.00    +0.000 OA
ATOM      2  C   UNL     1       7.507   5.365  18.693  0.00  0.00    +0.000 C 
ATOM      3  N   UNL     1       6.296   5.201  19.324  0.00  0.00    +0.000 N 
ATOM      4  H   UNL     1       5.839   6.004  19.731  0.00  0.00    +0.000 HD
ENDROOT
BRANCH   2   5
ATOM      5  C   UNL     1       8.069   6.768  18.781  0.00  0.00    +0.000 C 
BRANCH   5   6
ATOM      6  C   UNL     1       7.584   7.657  17.636  0.00  0.00    +0.000 C 
BRANCH   6   7
ATOM      7  C   UNL     1       8.188   9.056  17.725  0.00  0.00    +0.000 C 
BRANCH   7   8
ATOM      8  C   UNL     1       8.808   9.307  19.102  0.00  0.00    +0.000 C 
BRANCH   8   9
ATOM      9  C   UNL     1       9.627  10.574  19.088  0.00  0.00    +0.000 A 
ATOM     10  C   UNL     1      10.055  11.130  17.876  0.00  0.00    +0.000 A 
ATOM     11  C   UNL     1      10.879  12.256  17.870  0.00  0.00    +0.000 A 
ATOM     12  C   UNL     1      11.281  12.833  19.073  0.00  0.00    +0.000 A 
ATOM     13  C   UNL     1      10.852  12.291  20.284  0.00  0.00    +0.000 A 
ATOM     14  C   UNL     1      10.027  11.168  20.291  0.00  0.00    +0.000 A 
ENDBRANCH   8   9
ENDBRANCH   7   8
ENDBRANCH   6   7
ENDBRANCH   5   6
ENDBRANCH   2   5
BRANCH   3  15
ATOM     15  C   UNL     1       5.561   3.954  19.316  0.00  0.00    +0.000 C 
BRANCH  15  16
ATOM     16  C   UNL     1       4.212   4.154  18.678  0.00  0.00    +0.000 A 
ATOM     17  C   UNL     1       3.429   5.268  19.008  0.00  0.00    +0.000 A 
ATOM     18  C   UNL     1       2.144   5.412  18.483  0.00  0.00    +0.000 A 
ATOM     19  C   UNL     1       1.627   4.445  17.623  0.00  0.00    +0.000 A 
ATOM     20  C   UNL     1       2.400   3.337  17.277  0.00  0.00    +0.000 A 
ATOM     21  C   UNL     1       3.687   3.192  17.802  0.00  0.00    +0.000 A 
ENDBRANCH  15  16
ENDBRANCH   3  15
TORSDOF 7
ENDMDL
MODEL 3
REMARK VINA RESULT:      -6.7      4.613      5.505
REMARK  Name = 
REMARK  7 active torsions:
REMARK  status: ('A' for Active; 'I' for Inactive)
REMARK    1  A    between atoms: C_2  and  C_3
REMARK    2  A    between atoms: C_3  and  C_4
REMARK    3  A    between atoms: C_4  and  C_5
REMARK    4  A    between atoms: C_5  and  C_6
REMARK    5  A    between atoms: C_6  and  C_7
REMARK    6  A    between atoms: N_13  and  C_14
REMARK    7  A    between atoms: C_14  and  C_15
REMARK                            x       y       z     vdW  Elec       q    Type
REMARK                         _______ _______ _______ _____ _____    ______ ____
ROOT
ATOM      1  O   UNL     1       7.958   4.410  18.138  0.00  0.00    +0.000 OA
ATOM      2  C   UNL     1       7.298   5.443  18.109  0.00  0.00    +0.000 C 
ATOM      3  N   UNL     1       5.962   5.484  17.783  0.00  0.00    +0.000 N 
ATOM      4  H   UNL     1       5.502   6.378  17.699  0.00  0.00    +0.000 HD
ENDROOT
BRANCH   2   5
ATOM      5  C   UNL     1       7.906   6.796  18.411  0.00  0.00    +0.000 C 
BRANCH   5   6
ATOM      6  C   UNL     1       7.514   7.849  17.375  0.00  0.00    +0.000 C 
BRANCH   6   7
ATOM      7  C   UNL     1       8.064   9.224  17.745  0.00  0.00    +0.000 C 
BRANCH   7   8
ATOM      8  C   UNL     1       8.887   9.165  19.035  0.00  0.00    +0.000 C 
BRANCH   8   9
ATOM      9  C   UNL     1       9.530  10.501  19.311  0.00  0.00    +0.000 A 
ATOM     10  C   UNL     1       9.571  11.015  20.613  0.00  0.00    +0.000 A 
ATOM     11  C   UNL     1      10.094  12.286  20.852  0.00  0.00    +0.000 A 
ATOM     12  C   UNL     1      10.578  13.052  19.793  0.00  0.00    +0.000 A 
ATOM     13  C   UNL     1      10.550  12.544  18.495  0.00  0.00    +0.000 A 
ATOM     14  C   UNL     1      10.029  11.274  18.255  0.00  0.00    +0.000 A 
ENDBRANCH   8   9
ENDBRANCH   7   8
ENDBRANCH   6   7
ENDBRANCH   5   6
ENDBRANCH   2   5
BRANCH   3  15
ATOM     15  C   UNL     1       5.202   4.310  17.410  0.00  0.00    +0.000 C 
BRANCH  15  16
ATOM     16  C   UNL     1       3.856   4.331  18.085  0.00  0.00    +0.000 A 
ATOM     17  C   UNL     1       3.675   5.031  19.285  0.00  0.00    +0.000 A 
ATOM     18  C   UNL     1       2.452   4.983  19.957  0.00  0.00    +0.000 A 
ATOM     19  C   UNL     1       1.399   4.233  19.438  0.00  0.00    +0.000 A 
ATOM     20  C   UNL     1       1.562   3.540  18.240  0.00  0.00    +0.000 A 
ATOM     21  C   UNL     1       2.785   3.588  17.566  0.00  0.00    +0.000 A 
ENDBRANCH  15  16
ENDBRANCH   3  15
TORSDOF 7
ENDMDL
MODEL 4
REMARK VINA RESULT:      -6.7      1.347      1.983
REMARK  Name = 
REMARK  7 active torsions:
REMARK  status: ('A' for Active; 'I' for Inactive)
REMARK    1  A    between atoms: C_2  and  C_3
REMARK    2  A    between atoms: C_3  and  C_4
REMARK    3  A    between atoms: C_4  and  C_5
REMARK    4  A    between atoms: C_5  and  C_6
REMARK    5  A    between atoms: C_6  and  C_7
REMARK    6  A    between atoms: N_13  and  C_14
REMARK    7  A    between atoms: C_14  and  C_15
REMARK                            x       y       z     vdW  Elec       q    Type
REMARK                         _______ _______ _______ _____ _____    ______ ____
ROOT
ATOM      1  O   UNL     1       5.016   3.884  15.745  0.00  0.00    +0.000 OA
ATOM      2  C   UNL     1       5.490   3.850  16.875  0.00  0.00    +0.000 C 
ATOM      3  N   UNL     1       4.935   3.138  17.912  0.00  0.00    +0.000 N 
ATOM      4  H   UNL     1       5.331   3.223  18.836  0.00  0.00    +0.000 HD
ENDROOT
BRANCH   2   5
ATOM      5  C   UNL     1       6.738   4.623  17.249  0.00  0.00    +0.000 C 
BRANCH   5   6
ATOM      6  C   UNL     1       6.810   5.978  16.546  0.00  0.00    +0.000 C 
BRANCH   6   7
ATOM      7  C   UNL     1       5.946   7.018  17.256  0.00  0.00    +0.000 C 
BRANCH   7   8
ATOM      8  C   UNL     1       4.523   7.037  16.690  0.00  0.00    +0.000 C 
BRANCH   8   9
ATOM      9  C   UNL     1       3.516   7.185  17.804  0.00  0.00    +0.000 A 
ATOM     10  C   UNL     1       2.710   8.328  17.885  0.00  0.00    +0.000 A 
ATOM     11  C   UNL     1       1.838   8.499  18.961  0.00  0.00    +0.000 A 
ATOM     12  C   UNL     1       1.766   7.531  19.961  0.00  0.00    +0.000 A 
ATOM     13  C   UNL     1       2.557   6.387  19.883  0.00  0.00    +0.000 A 
ATOM     14  C   UNL     1       3.428   6.214  18.808  0.00  0.00    +0.000 A 
ENDBRANCH   8   9
ENDBRANCH   7   8
ENDBRANCH   6   7
ENDBRANCH   5   6
ENDBRANCH   2   5
BRANCH   3  15
ATOM     15  C   UNL     1       3.712   2.375  17.783  0.00  0.00    +0.000 C 
BRANCH  15  16
ATOM     16  C   UNL     1       2.844   2.583  18.997  0.00  0.00    +0.000 A 
ATOM     17  C   UNL     1       1.486   2.899  18.852  0.00  0.00    +0.000 A 
ATOM     18  C   UNL     1       0.700   3.175  19.972  0.00  0.00    +0.000 A 
ATOM     19  C   UNL     1       1.261   3.139  21.247  0.00  0.00    +0.000 A 
ATOM     20  C   UNL     1       2.608   2.816  21.405  0.00  0.00    +0.000 A 
ATOM     21  C   UNL     1       3.396   2.538  20.286  0.00  0.00    +0.000 A 
ENDBRANCH  15  16
ENDBRANCH   3  15
TORSDOF 7
ENDMDL
MODEL 5
REMARK VINA RESULT:      -6.7      1.679      4.333
REMARK  Name = 
REMARK  7 active torsions:
REMARK  status: ('A' for Active; 'I' for Inactive)
REMARK    1  A    between atoms: C_2  and  C_3
REMARK    2  A    between atoms: C_3  and  C_4
REMARK    3  A    between atoms: C_4  and  C_5
REMARK    4  A    between atoms: C_5  and  C_6
REMARK    5  A    between atoms: C_6  and  C_7
REMARK    6  A    between atoms: N_13  and  C_14
REMARK    7  A    between atoms: C_14  and  C_15
REMARK                            x       y       z     vdW  Elec       q    Type
REMARK                         _______ _______ _______ _____ _____    ______ ____
ROOT
ATOM      1  O   UNL     1       3.723   1.515  19.000  0.00  0.00    +0.000 OA
ATOM      2  C   UNL     1       2.829   2.215  18.538  0.00  0.00    +0.000 C 
ATOM      3  N   UNL     1       2.987   3.021  17.435  0.00  0.00    +0.000 N 
ATOM      4  H   UNL     1       2.234   3.633  17.159  0.00  0.00    +0.000 HD
ENDROOT
BRANCH   2   5
ATOM      5  C   UNL     1       1.452   2.278  19.162  0.00  0.00    +0.000 C 
BRANCH   5   6
ATOM      6  C   UNL     1       1.463   2.991  20.514  0.00  0.00    +0.000 C 
BRANCH   6   7
ATOM      7  C   UNL     1       1.099   4.466  20.367  0.00  0.00    +0.000 C 
BRANCH   7   8
ATOM      8  C   UNL     1       2.310   5.367  20.627  0.00  0.00    +0.000 C 
BRANCH   8   9
ATOM      9  C   UNL     1       2.175   6.662  19.865  0.00  0.00    +0.000 A 
ATOM     10  C   UNL     1       1.628   7.795  20.481  0.00  0.00    +0.000 A 
ATOM     11  C   UNL     1       1.430   8.967  19.750  0.00  0.00    +0.000 A 
ATOM     12  C   UNL     1       1.777   9.015  18.401  0.00  0.00    +0.000 A 
ATOM     13  C   UNL     1       2.331   7.895  17.783  0.00  0.00    +0.000 A 
ATOM     14  C   UNL     1       2.530   6.724  18.512  0.00  0.00    +0.000 A 
ENDBRANCH   8   9
ENDBRANCH   7   8
ENDBRANCH   6   7
ENDBRANCH   5   6
ENDBRANCH   2   5
BRANCH   3  15
ATOM     15  C   UNL     1       4.240   3.149  16.720  0.00  0.00    +0.000 C 
BRANCH  15  16
ATOM     16  C   UNL     1       4.924   4.434  17.106  0.00  0.00    +0.000 A 
ATOM     17  C   UNL     1       5.019   5.490  16.190  0.00  0.00    +0.000 A 
ATOM     18  C   UNL     1       5.726   6.649  16.515  0.00  0.00    +0.000 A 
ATOM     19  C   UNL     1       6.346   6.764  17.757  0.00  0.00    +0.000 A 
ATOM     20  C   UNL     1       6.251   5.726  18.681  0.00  0.00    +0.000 A 
ATOM     21  C   UNL     1       5.543   4.565  18.358  0.00  0.00    +0.000 A 
ENDBRANCH  15  16
ENDBRANCH   3  15
TORSDOF 7
ENDMDL
MODEL 6
REMARK VINA RESULT:      -6.6      4.587      7.377
REMARK  Name = 
REMARK  7 active torsions:
REMARK  status: ('A' for Active; 'I' for Inactive)
REMARK    1  A    between atoms: C_2  and  C_3
REMARK    2  A    between atoms: C_3  and  C_4
REMARK    3  A    between atoms: C_4  and  C_5
REMARK    4  A    between atoms: C_5  and  C_6
REMARK    5  A    between atoms: C_6  and  C_7
REMARK    6  A    between atoms: N_13  and  C_14
REMARK    7  A    between atoms: C_14  and  C_15
REMARK                            x       y       z     vdW  Elec       q    Type
REMARK                         _______ _______ _______ _____ _____    ______ ____
ROOT
ATOM      1  O   UNL     1       6.696   7.672  16.923  0.00  0.00    +0.000 OA
ATOM      2  C   UNL     1       7.520   7.437  17.799  0.00  0.00    +0.000 C 
ATOM      3  N   UNL     1       8.326   8.398  18.363  0.00  0.00    +0.000 N 
ATOM      4  H   UNL     1       9.040   8.120  19.020  0.00  0.00    +0.000 HD
ENDROOT
BRANCH   2   5
ATOM      5  C   UNL     1       7.751   6.040  18.334  0.00  0.00    +0.000 C 
BRANCH   5   6
ATOM      6  C   UNL     1       6.565   5.532  19.154  0.00  0.00    +0.000 C 
BRANCH   6   7
ATOM      7  C   UNL     1       5.790   4.454  18.399  0.00  0.00    +0.000 C 
BRANCH   7   8
ATOM      8  C   UNL     1       4.553   5.038  17.710  0.00  0.00    +0.000 C 
BRANCH   8   9
ATOM      9  C   UNL     1       3.309   4.714  18.499  0.00  0.00    +0.000 A 
ATOM     10  C   UNL     1       3.170   5.156  19.820  0.00  0.00    +0.000 A 
ATOM     11  C   UNL     1       2.055   4.785  20.573  0.00  0.00    +0.000 A 
ATOM     12  C   UNL     1       1.073   3.973  20.011  0.00  0.00    +0.000 A 
ATOM     13  C   UNL     1       1.198   3.537  18.693  0.00  0.00    +0.000 A 
ATOM     14  C   UNL     1       2.311   3.907  17.939  0.00  0.00    +0.000 A 
ENDBRANCH   8   9
ENDBRANCH   7   8
ENDBRANCH   6   7
ENDBRANCH   5   6
ENDBRANCH   2   5
BRANCH   3  15
ATOM     15  C   UNL     1       8.304   9.788  17.958  0.00  0.00    +0.000 C 
BRANCH  15  16
ATOM     16  C   UNL     1       9.423  10.539  18.630  0.00  0.00    +0.000 A 
ATOM     17  C   UNL     1       9.400  10.759  20.013  0.00  0.00    +0.000 A 
ATOM     18  C   UNL     1      10.391  11.527  20.626  0.00  0.00    +0.000 A 
ATOM     19  C   UNL     1      11.416  12.084  19.863  0.00  0.00    +0.000 A 
ATOM     20  C   UNL     1      11.457  11.863  18.487  0.00  0.00    +0.000 A 
ATOM     21  C   UNL     1      10.466  11.094  17.873  0.00  0.00    +0.000 A 
ENDBRANCH  15  16
ENDBRANCH   3  15
TORSDOF 7
ENDMDL
MODEL 7
REMARK VINA RESULT:      -6.6      4.646      7.598
REMARK  Name = 
REMARK  7 active torsions:
REMARK  status: ('A' for Active; 'I' for Inactive)
REMARK    1  A    between atoms: C_2  and  C_3
REMARK    2  A    between atoms: C_3  and  C_4
REMARK    3  A    between atoms: C_4  and  C_5
REMARK    4  A    between atoms: C_5  and  C_6
REMARK    5  A    between atoms: C_6  and  C_7
REMARK    6  A    between atoms: N_13  and  C_14
REMARK    7  A    between atoms: C_14  and  C_15
REMARK                            x       y       z     vdW  Elec       q    Type
REMARK                         _______ _______ _______ _____ _____    ______ ____
ROOT
ATOM      1  O   UNL     1       7.419   7.450  16.741  0.00  0.00    +0.000 OA
ATOM      2  C   UNL     1       7.837   7.467  17.894  0.00  0.00    +0.000 C 
ATOM      3  N   UNL     1       8.365   8.585  18.495  0.00  0.00    +0.000 N 
ATOM      4  H   UNL     1       8.765   8.507  19.418  0.00  0.00    +0.000 HD
ENDROOT
BRANCH   2   5
ATOM      5  C   UNL     1       7.834   6.232  18.770  0.00  0.00    +0.000 C 
BRANCH   5   6
ATOM      6  C   UNL     1       6.867   5.164  18.260  0.00  0.00    +0.000 C 
BRANCH   6   7
ATOM      7  C   UNL     1       5.471   5.354  18.848  0.00  0.00    +0.000 C 
BRANCH   7   8
ATOM      8  C   UNL     1       4.385   5.004  17.826  0.00  0.00    +0.000 C 
BRANCH   8   9
ATOM      9  C   UNL     1       3.355   4.092  18.445  0.00  0.00    +0.000 A 
ATOM     10  C   UNL     1       2.099   3.931  17.847  0.00  0.00    +0.000 A 
ATOM     11  C   UNL     1       1.120   3.151  18.464  0.00  0.00    +0.000 A 
ATOM     12  C   UNL     1       1.390   2.528  19.682  0.00  0.00    +0.000 A 
ATOM     13  C   UNL     1       2.641   2.676  20.278  0.00  0.00    +0.000 A 
ATOM     14  C   UNL     1       3.620   3.453  19.662  0.00  0.00    +0.000 A 
ENDBRANCH   8   9
ENDBRANCH   7   8
ENDBRANCH   6   7
ENDBRANCH   5   6
ENDBRANCH   2   5
BRANCH   3  15
ATOM     15  C   UNL     1       8.509   9.856  17.817  0.00  0.00    +0.000 C 
BRANCH  15  16
ATOM     16  C   UNL     1       9.486  10.729  18.559  0.00  0.00    +0.000 A 
ATOM     17  C   UNL     1      10.514  11.388  17.872  0.00  0.00    +0.000 A 
ATOM     18  C   UNL     1      11.471  12.129  18.567  0.00  0.00    +0.000 A 
ATOM     19  C   UNL     1      11.412  12.218  19.956  0.00  0.00    +0.000 A 
ATOM     20  C   UNL     1      10.389  11.576  20.652  0.00  0.00    +0.000 A 
ATOM     21  C   UNL     1       9.430  10.835  19.957  0.00  0.00    +0.000 A 
ENDBRANCH  15  16
ENDBRANCH   3  15
TORSDOF 7
ENDMDL
MODEL 8
REMARK VINA RESULT:      -6.6      1.715      4.551
REMARK  Name = 
REMARK  7 active torsions:
REMARK  status: ('A' for Active; 'I' for Inactive)
REMARK    1  A    between atoms: C_2  and  C_3
REMARK    2  A    between atoms: C_3  and  C_4
REMARK    3  A    between atoms: C_4  and  C_5
REMARK    4  A    between atoms: C_5  and  C_6
REMARK    5  A    between atoms: C_6  and  C_7
REMARK    6  A    between atoms: N_13  and  C_14
REMARK    7  A    between atoms: C_14  and  C_15
REMARK                            x       y       z     vdW  Elec       q    Type
REMARK                         _______ _______ _______ _____ _____    ______ ____
ROOT
ATOM      1  O   UNL     1       3.494   1.516  18.715  0.00  0.00    +0.000 OA
ATOM      2  C   UNL     1       2.741   2.342  18.213  0.00  0.00    +0.000 C 
ATOM      3  N   UNL     1       3.102   3.170  17.175  0.00  0.00    +0.000 N 
ATOM      4  H   UNL     1       2.458   3.883  16.867  0.00  0.00    +0.000 HD
ENDROOT
BRANCH   2   5
ATOM      5  C   UNL     1       1.327   2.553  18.713  0.00  0.00    +0.000 C 
BRANCH   5   6
ATOM      6  C   UNL     1       1.273   2.744  20.228  0.00  0.00    +0.000 C 
BRANCH   6   7
ATOM      7  C   UNL     1       1.024   4.205  20.595  0.00  0.00    +0.000 C 
BRANCH   7   8
ATOM      8  C   UNL     1       2.328   5.008  20.603  0.00  0.00    +0.000 C 
BRANCH   8   9
ATOM      9  C   UNL     1       2.161   6.291  19.828  0.00  0.00    +0.000 A 
ATOM     10  C   UNL     1       2.535   6.362  18.480  0.00  0.00    +0.000 A 
ATOM     11  C   UNL     1       2.455   7.572  17.790  0.00  0.00    +0.000 A 
ATOM     12  C   UNL     1       2.002   8.718  18.441  0.00  0.00    +0.000 A 
ATOM     13  C   UNL     1       1.619   8.654  19.779  0.00  0.00    +0.000 A 
ATOM     14  C   UNL     1       1.697   7.446  20.470  0.00  0.00    +0.000 A 
ENDBRANCH   8   9
ENDBRANCH   7   8
ENDBRANCH   6   7
ENDBRANCH   5   6
ENDBRANCH   2   5
BRANCH   3  15
ATOM     15  C   UNL     1       4.423   3.169  16.585  0.00  0.00    +0.000 C 
BRANCH  15  16
ATOM     16  C   UNL     1       5.178   4.402  17.008  0.00  0.00    +0.000 A 
ATOM     17  C   UNL     1       5.801   4.457  18.261  0.00  0.00    +0.000 A 
ATOM     18  C   UNL     1       6.428   5.628  18.690  0.00  0.00    +0.000 A 
ATOM     19  C   UNL     1       6.438   6.756  17.872  0.00  0.00    +0.000 A 
ATOM     20  C   UNL     1       5.831   6.711  16.618  0.00  0.00    +0.000 A 
ATOM     21  C   UNL     1       5.204   5.539  16.187  0.00  0.00    +0.000 A 
ENDBRANCH  15  16
ENDBRANCH   3  15
TORSDOF 7
ENDMDL
MODEL 9
REMARK VINA RESULT:      -6.5      5.103      6.348
REMARK  Name = 
REMARK  7 active torsions:
REMARK  status: ('A' for Active; 'I' for Inactive)
REMARK    1  A    between atoms: C_2  and  C_3
REMARK    2  A    between atoms: C_3  and  C_4
REMARK    3  A    between atoms: C_4  and  C_5
REMARK    4  A    between atoms: C_5  and  C_6
REMARK    5  A    between atoms: C_6  and  C_7
REMARK    6  A    between atoms: N_13  and  C_14
REMARK    7  A    between atoms: C_14  and  C_15
REMARK                            x       y       z     vdW  Elec       q    Type
REMARK                         _______ _______ _______ _____ _____    ______ ____
ROOT
ATOM      1  O   UNL     1       7.549   5.885  15.939  0.00  0.00    +0.000 OA
ATOM      2  C   UNL     1       7.020   6.296  16.966  0.00  0.00    +0.000 C 
ATOM      3  N   UNL     1       5.703   6.066  17.288  0.00  0.00    +0.000 N 
ATOM      4  H   UNL     1       5.312   6.504  18.108  0.00  0.00    +0.000 HD
ENDROOT
BRANCH   2   5
ATOM      5  C   UNL     1       7.772   7.131  17.981  0.00  0.00    +0.000 C 
BRANCH   5   6
ATOM      6  C   UNL     1       7.449   8.619  17.858  0.00  0.00    +0.000 C 
BRANCH   6   7
ATOM      7  C   UNL     1       8.722   9.460  17.801  0.00  0.00    +0.000 C 
BRANCH   7   8
ATOM      8  C   UNL     1       9.013  10.122  19.151  0.00  0.00    +0.000 C 
BRANCH   8   9
ATOM      9  C   UNL     1      10.136  11.119  19.018  0.00  0.00    +0.000 A 
ATOM     10  C   UNL     1      10.527  11.585  17.756  0.00  0.00    +0.000 A 
ATOM     11  C   UNL     1      11.619  12.445  17.630  0.00  0.00    +0.000 A 
ATOM     12  C   UNL     1      12.327  12.843  18.762  0.00  0.00    +0.000 A 
ATOM     13  C   UNL     1      11.939  12.391  20.022  0.00  0.00    +0.000 A 
ATOM     14  C   UNL     1      10.848  11.534  20.150  0.00  0.00    +0.000 A 
ENDBRANCH   8   9
ENDBRANCH   7   8
ENDBRANCH   6   7
ENDBRANCH   5   6
ENDBRANCH   2   5
BRANCH   3  15
ATOM     15  C   UNL     1       4.794   5.337  16.429  0.00  0.00    +0.000 C 
BRANCH  15  16
ATOM     16  C   UNL     1       3.847   4.512  17.262  0.00  0.00    +0.000 A 
ATOM     17  C   UNL     1       4.075   3.143  17.449  0.00  0.00    +0.000 A 
ATOM     18  C   UNL     1       3.155   2.360  18.149  0.00  0.00    +0.000 A 
ATOM     19  C   UNL     1       1.998   2.938  18.669  0.00  0.00    +0.000 A 
ATOM     20  C   UNL     1       1.766   4.302  18.500  0.00  0.00    +0.000 A 
ATOM     21  C   UNL     1       2.685   5.086  17.800  0.00  0.00    +0.000 A 
ENDBRANCH  15  16
ENDBRANCH   3  15
TORSDOF 7
ENDMDL
