MODEL 1
REMARK VINA RESULT:      -7.5      0.000      0.000
REMARK  Name = 
REMARK  6 active torsions:
REMARK  status: ('A' for Active; 'I' for Inactive)
REMARK    1  A    between atoms: C_2  and  C_3
REMARK    2  A    between atoms: C_3  and  N_4
REMARK    3  A    between atoms: C_5  and  C_6
REMARK    4  A    between atoms: N_15  and  N_16
REMARK    5  A    between atoms: C_17  and  C_18
REMARK    6  A    between atoms: C_19  and  C_20
REMARK                            x       y       z     vdW  Elec       q    Type
REMARK                         _______ _______ _______ _____ _____    ______ ____
ROOT
ATOM      1  N   UNL     1       5.333   5.299  17.290  0.00  0.00    +0.000 N 
ATOM      2  C   UNL     1       4.808   4.646  18.399  0.00  0.00    +0.000 A 
ATOM      3  C   UNL     1       5.467   4.968  19.593  0.00  0.00    +0.000 A 
ATOM      4  S   UNL     1       6.715   6.037  19.282  0.00  0.00    +0.000 S 
ATOM      5  C   UNL     1       6.382   6.092  17.637  0.00  0.00    +0.000 A 
ATOM      6  N   UNL     1       7.036   6.809  16.795  0.00  0.00    +0.000 NA
ENDROOT
BRANCH   2   7
ATOM      7  C   UNL     1       3.633   3.699  18.417  0.00  0.00    +0.000 A 
ATOM      8  C   UNL     1       3.759   2.295  18.493  0.00  0.00    +0.000 A 
ATOM      9  C   UNL     1       2.637   1.464  18.510  0.00  0.00    +0.000 A 
ATOM     10  C   UNL     1       1.359   2.010  18.446  0.00  0.00    +0.000 A 
ATOM     11  C   UNL     1       1.200   3.391  18.376  0.00  0.00    +0.000 A 
ATOM     12  C   UNL     1       2.319   4.228  18.368  0.00  0.00    +0.000 A 
ENDBRANCH   2   7
BRANCH   6  13
ATOM     13  N   UNL     1       8.082   7.598  17.196  0.00  0.00    +0.000 NA
ATOM     14  C   UNL     1       7.875   8.741  17.737  0.00  0.00    +0.000 C 
BRANCH  14  15
ATOM     15  C   UNL     1       9.031   9.558  18.123  0.00  0.00    +0.000 C 
ATOM     16  C   UNL     1       8.905  10.871  18.365  0.00  0.00    +0.000 C 
BRANCH  16  17
ATOM     17  C   UNL     1      10.055  11.746  18.712  0.00  0.00    +0.000 A 
ATOM     18  C   UNL     1       9.995  12.487  19.904  0.00  0.00    +0.000 A 
ATOM     19  C   UNL     1      11.034  13.351  20.258  0.00  0.00    +0.000 A 
ATOM     20  C   UNL     1      12.156  13.470  19.434  0.00  0.00    +0.000 A 
ATOM     21  C   UNL     1      12.240  12.726  18.257  0.00  0.00    +0.000 A 
ATOM     22  C   UNL     1      11.196  11.872  17.891  0.00  0.00    +0.000 A 
ENDBRANCH  16  17
ENDBRANCH  14  15
ENDBRANCH   6  13
BRANCH   1  23
ATOM     23  C   UNL     1       4.846   5.239  15.895  0.00  0.00    +0.000 C 
BRANCH  23  25
ATOM     24  C   UNL     1       5.948   4.165  13.960  0.00  0.00    +0.000 C 
ATOM     25  C   UNL     1       5.413   4.045  15.177  0.00  0.00    +0.000 C 
ENDBRANCH  23  25
ENDBRANCH   1  23
TORSDOF 6
ENDMDL
MODEL 2
REMARK VINA RESULT:      -7.4      8.313     10.843
REMARK  Name = 
REMARK  6 active torsions:
REMARK  status: ('A' for Active; 'I' for Inactive)
REMARK    1  A    between atoms: C_2  and  C_3
REMARK    2  A    between atoms: C_3  and  N_4
REMARK    3  A    between atoms: C_5  and  C_6
REMARK    4  A    between atoms: N_15  and  N_16
REMARK    5  A    between atoms: C_17  and  C_18
REMARK    6  A    between atoms: C_19  and  C_20
REMARK                            x       y       z     vdW  Elec       q    Type
REMARK                         _______ _______ _______ _____ _____    ______ ____
ROOT
ATOM      1  N   UNL     1      -1.228  11.729  20.819  0.00  0.00    +0.000 N 
ATOM      2  C   UNL     1      -1.253  11.662  22.207  0.00  0.00    +0.000 A 
ATOM      3  C   UNL     1      -0.512  10.590  22.723  0.00  0.00    +0.000 A 
ATOM      4  S   UNL     1       0.154   9.707  21.469  0.00  0.00    +0.000 S 
ATOM      5  C   UNL     1      -0.490  10.715  20.291  0.00  0.00    +0.000 A 
ATOM      6  N   UNL     1      -0.304  10.558  19.030  0.00  0.00    +0.000 NA
ENDROOT
BRANCH   2   7
ATOM      7  C   UNL     1      -1.951  12.617  23.145  0.00  0.00    +0.000 A 
ATOM      8  C   UNL     1      -1.410  13.858  23.544  0.00  0.00    +0.000 A 
ATOM      9  C   UNL     1      -2.099  14.706  24.412  0.00  0.00    +0.000 A 
ATOM     10  C   UNL     1      -3.345  14.338  24.911  0.00  0.00    +0.000 A 
ATOM     11  C   UNL     1      -3.908  13.122  24.533  0.00  0.00    +0.000 A 
ATOM     12  C   UNL     1      -3.227  12.274  23.656  0.00  0.00    +0.000 A 
ENDBRANCH   2   7
BRANCH   6  13
ATOM     13  N   UNL     1       0.455   9.523  18.548  0.00  0.00    +0.000 NA
ATOM     14  C   UNL     1       1.671   9.710  18.189  0.00  0.00    +0.000 C 
BRANCH  14  15
ATOM     15  C   UNL     1       2.430   8.574  17.654  0.00  0.00    +0.000 C 
ATOM     16  C   UNL     1       2.385   7.370  18.241  0.00  0.00    +0.000 C 
BRANCH  16  17
ATOM     17  C   UNL     1       3.174   6.204  17.763  0.00  0.00    +0.000 A 
ATOM     18  C   UNL     1       2.615   4.922  17.893  0.00  0.00    +0.000 A 
ATOM     19  C   UNL     1       3.330   3.791  17.491  0.00  0.00    +0.000 A 
ATOM     20  C   UNL     1       4.605   3.929  16.936  0.00  0.00    +0.000 A 
ATOM     21  C   UNL     1       5.165   5.198  16.782  0.00  0.00    +0.000 A 
ATOM     22  C   UNL     1       4.460   6.331  17.196  0.00  0.00    +0.000 A 
ENDBRANCH  16  17
ENDBRANCH  14  15
ENDBRANCH   6  13
BRANCH   1  23
ATOM     23  C   UNL     1      -1.846  12.757  19.955  0.00  0.00    +0.000 C 
BRANCH  23  25
ATOM     24  C   UNL     1      -4.266  13.136  20.292  0.00  0.00    +0.000 C 
ATOM     25  C   UNL     1      -3.294  12.443  19.694  0.00  0.00    +0.000 C 
ENDBRANCH  23  25
ENDBRANCH   1  23
TORSDOF 6
ENDMDL
MODEL 3
REMARK VINA RESULT:      -7.4      8.371     10.865
REMARK  Name = 
REMARK  6 active torsions:
REMARK  status: ('A' for Active; 'I' for Inactive)
REMARK    1  A    between atoms: C_2  and  C_3
REMARK    2  A    between atoms: C_3  and  N_4
REMARK    3  A    between atoms: C_5  and  C_6
REMARK    4  A    between atoms: N_15  and  N_16
REMARK    5  A    between atoms: C_17  and  C_18
REMARK    6  A    between atoms: C_19  and  C_20
REMARK                            x       y       z     vdW  Elec       q    Type
REMARK                         _______ _______ _______ _____ _____    ______ ____
ROOT
ATOM      1  N   UNL     1      -1.251  11.717  20.922  0.00  0.00    +0.000 N 
ATOM      2  C   UNL     1      -1.320  11.638  22.308  0.00  0.00    +0.000 A 
ATOM      3  C   UNL     1      -0.625  10.541  22.835  0.00  0.00    +0.000 A 
ATOM      4  S   UNL     1       0.053   9.651  21.593  0.00  0.00    +0.000 S 
ATOM      5  C   UNL     1      -0.527  10.687  20.407  0.00  0.00    +0.000 A 
ATOM      6  N   UNL     1      -0.309  10.536  19.150  0.00  0.00    +0.000 NA
ENDROOT
BRANCH   2   7
ATOM      7  C   UNL     1      -2.017  12.605  23.235  0.00  0.00    +0.000 A 
ATOM      8  C   UNL     1      -3.300  12.382  23.778  0.00  0.00    +0.000 A 
ATOM      9  C   UNL     1      -3.899  13.308  24.634  0.00  0.00    +0.000 A 
ATOM     10  C   UNL     1      -3.236  14.486  24.967  0.00  0.00    +0.000 A 
ATOM     11  C   UNL     1      -1.967  14.733  24.451  0.00  0.00    +0.000 A 
ATOM     12  C   UNL     1      -1.359  13.805  23.603  0.00  0.00    +0.000 A 
ENDBRANCH   2   7
BRANCH   6  13
ATOM     13  N   UNL     1       0.434   9.485  18.680  0.00  0.00    +0.000 NA
ATOM     14  C   UNL     1       1.591   9.675  18.162  0.00  0.00    +0.000 C 
BRANCH  14  15
ATOM     15  C   UNL     1       2.333   8.518  17.649  0.00  0.00    +0.000 C 
ATOM     16  C   UNL     1       2.496   7.413  18.390  0.00  0.00    +0.000 C 
BRANCH  16  17
ATOM     17  C   UNL     1       3.279   6.236  17.932  0.00  0.00    +0.000 A 
ATOM     18  C   UNL     1       4.632   6.421  17.602  0.00  0.00    +0.000 A 
ATOM     19  C   UNL     1       5.402   5.354  17.132  0.00  0.00    +0.000 A 
ATOM     20  C   UNL     1       4.834   4.084  17.006  0.00  0.00    +0.000 A 
ATOM     21  C   UNL     1       3.498   3.879  17.350  0.00  0.00    +0.000 A 
ATOM     22  C   UNL     1       2.720   4.947  17.805  0.00  0.00    +0.000 A 
ENDBRANCH  16  17
ENDBRANCH  14  15
ENDBRANCH   6  13
BRANCH   1  23
ATOM     23  C   UNL     1      -1.814  12.771  20.051  0.00  0.00    +0.000 C 
BRANCH  23  25
ATOM     24  C   UNL     1      -4.174  13.407  20.421  0.00  0.00    +0.000 C 
ATOM     25  C   UNL     1      -3.294  12.576  19.858  0.00  0.00    +0.000 C 
ENDBRANCH  23  25
ENDBRANCH   1  23
TORSDOF 6
ENDMDL
MODEL 4
REMARK VINA RESULT:      -7.4      7.078      9.055
REMARK  Name = 
REMARK  6 active torsions:
REMARK  status: ('A' for Active; 'I' for Inactive)
REMARK    1  A    between atoms: C_2  and  C_3
REMARK    2  A    between atoms: C_3  and  N_4
REMARK    3  A    between atoms: C_5  and  C_6
REMARK    4  A    between atoms: N_15  and  N_16
REMARK    5  A    between atoms: C_17  and  C_18
REMARK    6  A    between atoms: C_19  and  C_20
REMARK                            x       y       z     vdW  Elec       q    Type
REMARK                         _______ _______ _______ _____ _____    ______ ____
ROOT
ATOM      1  N   UNL     1       2.325   6.819  19.683  0.00  0.00    +0.000 N 
ATOM      2  C   UNL     1       2.811   7.025  18.396  0.00  0.00    +0.000 A 
ATOM      3  C   UNL     1       2.499   8.291  17.884  0.00  0.00    +0.000 A 
ATOM      4  S   UNL     1       1.602   9.151  19.003  0.00  0.00    +0.000 S 
ATOM      5  C   UNL     1       1.644   7.908  20.131  0.00  0.00    +0.000 A 
ATOM      6  N   UNL     1       1.103   7.974  21.294  0.00  0.00    +0.000 NA
ENDROOT
BRANCH   2   7
ATOM      7  C   UNL     1       3.626   6.057  17.573  0.00  0.00    +0.000 A 
ATOM      8  C   UNL     1       3.385   4.668  17.531  0.00  0.00    +0.000 A 
ATOM      9  C   UNL     1       4.168   3.817  16.749  0.00  0.00    +0.000 A 
ATOM     10  C   UNL     1       5.218   4.328  15.992  0.00  0.00    +0.000 A 
ATOM     11  C   UNL     1       5.480   5.695  16.008  0.00  0.00    +0.000 A 
ATOM     12  C   UNL     1       4.692   6.552  16.781  0.00  0.00    +0.000 A 
ENDBRANCH   2   7
BRANCH   6  13
ATOM     13  N   UNL     1       0.434   9.098  21.702  0.00  0.00    +0.000 NA
ATOM     14  C   UNL     1      -0.163   9.133  22.836  0.00  0.00    +0.000 C 
BRANCH  14  15
ATOM     15  C   UNL     1      -0.888  10.352  23.213  0.00  0.00    +0.000 C 
ATOM     16  C   UNL     1      -1.145  11.313  22.315  0.00  0.00    +0.000 C 
BRANCH  16  17
ATOM     17  C   UNL     1      -1.834  12.584  22.661  0.00  0.00    +0.000 A 
ATOM     18  C   UNL     1      -1.065  13.646  23.166  0.00  0.00    +0.000 A 
ATOM     19  C   UNL     1      -1.670  14.848  23.538  0.00  0.00    +0.000 A 
ATOM     20  C   UNL     1      -3.050  15.012  23.394  0.00  0.00    +0.000 A 
ATOM     21  C   UNL     1      -3.825  13.974  22.875  0.00  0.00    +0.000 A 
ATOM     22  C   UNL     1      -3.226  12.764  22.515  0.00  0.00    +0.000 A 
ENDBRANCH  16  17
ENDBRANCH  14  15
ENDBRANCH   6  13
BRANCH   1  23
ATOM     23  C   UNL     1       2.520   5.630  20.539  0.00  0.00    +0.000 C 
BRANCH  23  25
ATOM     24  C   UNL     1       1.393   3.465  20.933  0.00  0.00    +0.000 C 
ATOM     25  C   UNL     1       1.326   4.717  20.474  0.00  0.00    +0.000 C 
ENDBRANCH  23  25
ENDBRANCH   1  23
TORSDOF 6
ENDMDL
MODEL 5
REMARK VINA RESULT:      -7.3      8.199     10.733
REMARK  Name = 
REMARK  6 active torsions:
REMARK  status: ('A' for Active; 'I' for Inactive)
REMARK    1  A    between atoms: C_2  and  C_3
REMARK    2  A    between atoms: C_3  and  N_4
REMARK    3  A    between atoms: C_5  and  C_6
REMARK    4  A    between atoms: N_15  and  N_16
REMARK    5  A    between atoms: C_17  and  C_18
REMARK    6  A    between atoms: C_19  and  C_20
REMARK                            x       y       z     vdW  Elec       q    Type
REMARK                         _______ _______ _______ _____ _____    ______ ____
ROOT
ATOM      1  N   UNL     1      -1.037  11.670  20.947  0.00  0.00    +0.000 N 
ATOM      2  C   UNL     1      -1.245  11.569  22.318  0.00  0.00    +0.000 A 
ATOM      3  C   UNL     1      -0.649  10.435  22.886  0.00  0.00    +0.000 A 
ATOM      4  S   UNL     1       0.111   9.538  21.696  0.00  0.00    +0.000 S 
ATOM      5  C   UNL     1      -0.309  10.620  20.482  0.00  0.00    +0.000 A 
ATOM      6  N   UNL     1       0.026  10.482  19.250  0.00  0.00    +0.000 NA
ENDROOT
BRANCH   2   7
ATOM      7  C   UNL     1      -1.990  12.548  23.193  0.00  0.00    +0.000 A 
ATOM      8  C   UNL     1      -3.285  12.314  23.703  0.00  0.00    +0.000 A 
ATOM      9  C   UNL     1      -3.929  13.253  24.511  0.00  0.00    +0.000 A 
ATOM     10  C   UNL     1      -3.300  14.453  24.830  0.00  0.00    +0.000 A 
ATOM     11  C   UNL     1      -2.020  14.712  24.347  0.00  0.00    +0.000 A 
ATOM     12  C   UNL     1      -1.368  13.771  23.546  0.00  0.00    +0.000 A 
ENDBRANCH   2   7
BRANCH   6  13
ATOM     13  N   UNL     1       0.769   9.408  18.832  0.00  0.00    +0.000 NA
ATOM     14  C   UNL     1       1.803   9.571  18.093  0.00  0.00    +0.000 C 
BRANCH  14  15
ATOM     15  C   UNL     1       2.547   8.386  17.651  0.00  0.00    +0.000 C 
ATOM     16  C   UNL     1       2.369   7.194  18.238  0.00  0.00    +0.000 C 
BRANCH  16  17
ATOM     17  C   UNL     1       3.133   5.979  17.856  0.00  0.00    +0.000 A 
ATOM     18  C   UNL     1       4.498   6.115  17.551  0.00  0.00    +0.000 A 
ATOM     19  C   UNL     1       5.252   5.009  17.153  0.00  0.00    +0.000 A 
ATOM     20  C   UNL     1       4.656   3.748  17.073  0.00  0.00    +0.000 A 
ATOM     21  C   UNL     1       3.307   3.592  17.392  0.00  0.00    +0.000 A 
ATOM     22  C   UNL     1       2.545   4.698  17.777  0.00  0.00    +0.000 A 
ENDBRANCH  16  17
ENDBRANCH  14  15
ENDBRANCH   6  13
BRANCH   1  23
ATOM     23  C   UNL     1      -1.470  12.761  20.049  0.00  0.00    +0.000 C 
BRANCH  23  25
ATOM     24  C   UNL     1      -0.222  14.553  18.890  0.00  0.00    +0.000 C 
ATOM     25  C   UNL     1      -0.448  13.865  20.011  0.00  0.00    +0.000 C 
ENDBRANCH  23  25
ENDBRANCH   1  23
TORSDOF 6
ENDMDL
MODEL 6
REMARK VINA RESULT:      -7.3      6.967      8.954
REMARK  Name = 
REMARK  6 active torsions:
REMARK  status: ('A' for Active; 'I' for Inactive)
REMARK    1  A    between atoms: C_2  and  C_3
REMARK    2  A    between atoms: C_3  and  N_4
REMARK    3  A    between atoms: C_5  and  C_6
REMARK    4  A    between atoms: N_15  and  N_16
REMARK    5  A    between atoms: C_17  and  C_18
REMARK    6  A    between atoms: C_19  and  C_20
REMARK                            x       y       z     vdW  Elec       q    Type
REMARK                         _______ _______ _______ _____ _____    ______ ____
ROOT
ATOM      1  N   UNL     1       2.453   6.779  19.522  0.00  0.00    +0.000 N 
ATOM      2  C   UNL     1       2.926   7.035  18.240  0.00  0.00    +0.000 A 
ATOM      3  C   UNL     1       2.560   8.298  17.757  0.00  0.00    +0.000 A 
ATOM      4  S   UNL     1       1.629   9.092  18.897  0.00  0.00    +0.000 S 
ATOM      5  C   UNL     1       1.727   7.827  19.996  0.00  0.00    +0.000 A 
ATOM      6  N   UNL     1       1.187   7.843  21.161  0.00  0.00    +0.000 NA
ENDROOT
BRANCH   2   7
ATOM      7  C   UNL     1       3.780   6.122  17.393  0.00  0.00    +0.000 A 
ATOM      8  C   UNL     1       4.841   6.574  16.579  0.00  0.00    +0.000 A 
ATOM      9  C   UNL     1       5.603   5.686  15.818  0.00  0.00    +0.000 A 
ATOM     10  C   UNL     1       5.323   4.323  15.842  0.00  0.00    +0.000 A 
ATOM     11  C   UNL     1       4.286   3.845  16.639  0.00  0.00    +0.000 A 
ATOM     12  C   UNL     1       3.528   4.728  17.410  0.00  0.00    +0.000 A 
ENDBRANCH   2   7
BRANCH   6  13
ATOM     13  N   UNL     1       0.471   8.928  21.597  0.00  0.00    +0.000 NA
ATOM     14  C   UNL     1      -0.023   8.959  22.778  0.00  0.00    +0.000 C 
BRANCH  14  15
ATOM     15  C   UNL     1      -0.805  10.132  23.185  0.00  0.00    +0.000 C 
ATOM     16  C   UNL     1      -0.772  11.269  22.476  0.00  0.00    +0.000 C 
BRANCH  16  17
ATOM     17  C   UNL     1      -1.509  12.496  22.875  0.00  0.00    +0.000 A 
ATOM     18  C   UNL     1      -2.843  12.368  23.296  0.00  0.00    +0.000 A 
ATOM     19  C   UNL     1      -3.589  13.496  23.648  0.00  0.00    +0.000 A 
ATOM     20  C   UNL     1      -3.005  14.764  23.602  0.00  0.00    +0.000 A 
ATOM     21  C   UNL     1      -1.675  14.906  23.206  0.00  0.00    +0.000 A 
ATOM     22  C   UNL     1      -0.929  13.783  22.838  0.00  0.00    +0.000 A 
ENDBRANCH  16  17
ENDBRANCH  14  15
ENDBRANCH   6  13
BRANCH   1  23
ATOM     23  C   UNL     1       2.701   5.580  20.350  0.00  0.00    +0.000 C 
BRANCH  23  25
ATOM     24  C   UNL     1       1.065   3.800  19.835  0.00  0.00    +0.000 C 
ATOM     25  C   UNL     1       1.423   4.829  20.607  0.00  0.00    +0.000 C 
ENDBRANCH  23  25
ENDBRANCH   1  23
TORSDOF 6
ENDMDL
MODEL 7
REMARK VINA RESULT:      -7.2      8.305     10.748
REMARK  Name = 
REMARK  6 active torsions:
REMARK  status: ('A' for Active; 'I' for Inactive)
REMARK    1  A    between atoms: C_2  and  C_3
REMARK    2  A    between atoms: C_3  and  N_4
REMARK    3  A    between atoms: C_5  and  C_6
REMARK    4  A    between atoms: N_15  and  N_16
REMARK    5  A    between atoms: C_17  and  C_18
REMARK    6  A    between atoms: C_19  and  C_20
REMARK                            x       y       z     vdW  Elec       q    Type
REMARK                         _______ _______ _______ _____ _____    ______ ____
ROOT
ATOM      1  N   UNL     1      -1.409  11.797  20.673  0.00  0.00    +0.000 N 
ATOM      2  C   UNL     1      -1.346  11.728  22.061  0.00  0.00    +0.000 A 
ATOM      3  C   UNL     1      -0.536  10.684  22.526  0.00  0.00    +0.000 A 
ATOM      4  S   UNL     1       0.083   9.826  21.231  0.00  0.00    +0.000 S 
ATOM      5  C   UNL     1      -0.670  10.811  20.098  0.00  0.00    +0.000 A 
ATOM      6  N   UNL     1      -0.557  10.662  18.827  0.00  0.00    +0.000 NA
ENDROOT
BRANCH   2   7
ATOM      7  C   UNL     1      -2.017  12.657  23.043  0.00  0.00    +0.000 A 
ATOM      8  C   UNL     1      -1.460  13.881  23.470  0.00  0.00    +0.000 A 
ATOM      9  C   UNL     1      -2.126  14.706  24.379  0.00  0.00    +0.000 A 
ATOM     10  C   UNL     1      -3.364  14.329  24.891  0.00  0.00    +0.000 A 
ATOM     11  C   UNL     1      -3.943  13.130  24.485  0.00  0.00    +0.000 A 
ATOM     12  C   UNL     1      -3.286  12.306  23.568  0.00  0.00    +0.000 A 
ENDBRANCH   2   7
BRANCH   6  13
ATOM     13  N   UNL     1       0.207   9.656  18.296  0.00  0.00    +0.000 NA
ATOM     14  C   UNL     1       1.483   9.755  18.244  0.00  0.00    +0.000 C 
BRANCH  14  15
ATOM     15  C   UNL     1       2.252   8.661  17.640  0.00  0.00    +0.000 C 
ATOM     16  C   UNL     1       2.510   7.535  18.320  0.00  0.00    +0.000 C 
BRANCH  16  17
ATOM     17  C   UNL     1       3.324   6.421  17.767  0.00  0.00    +0.000 A 
ATOM     18  C   UNL     1       4.552   6.729  17.158  0.00  0.00    +0.000 A 
ATOM     19  C   UNL     1       5.337   5.721  16.592  0.00  0.00    +0.000 A 
ATOM     20  C   UNL     1       4.914   4.391  16.645  0.00  0.00    +0.000 A 
ATOM     21  C   UNL     1       3.707   4.067  17.265  0.00  0.00    +0.000 A 
ATOM     22  C   UNL     1       2.911   5.073  17.819  0.00  0.00    +0.000 A 
ENDBRANCH  16  17
ENDBRANCH  14  15
ENDBRANCH   6  13
BRANCH   1  23
ATOM     23  C   UNL     1      -2.117  12.803  19.853  0.00  0.00    +0.000 C 
BRANCH  23  25
ATOM     24  C   UNL     1      -4.129  11.835  18.793  0.00  0.00    +0.000 C 
ATOM     25  C   UNL     1      -3.593  12.519  19.807  0.00  0.00    +0.000 C 
ENDBRANCH  23  25
ENDBRANCH   1  23
TORSDOF 6
ENDMDL
MODEL 8
REMARK VINA RESULT:      -7.2      6.909      8.997
REMARK  Name = 
REMARK  6 active torsions:
REMARK  status: ('A' for Active; 'I' for Inactive)
REMARK    1  A    between atoms: C_2  and  C_3
REMARK    2  A    between atoms: C_3  and  N_4
REMARK    3  A    between atoms: C_5  and  C_6
REMARK    4  A    between atoms: N_15  and  N_16
REMARK    5  A    between atoms: C_17  and  C_18
REMARK    6  A    between atoms: C_19  and  C_20
REMARK                            x       y       z     vdW  Elec       q    Type
REMARK                         _______ _______ _______ _____ _____    ______ ____
ROOT
ATOM      1  N   UNL     1       2.425   6.619  19.502  0.00  0.00    +0.000 N 
ATOM      2  C   UNL     1       2.956   6.977  18.268  0.00  0.00    +0.000 A 
ATOM      3  C   UNL     1       2.573   8.259  17.853  0.00  0.00    +0.000 A 
ATOM      4  S   UNL     1       1.558   8.944  18.992  0.00  0.00    +0.000 S 
ATOM      5  C   UNL     1       1.641   7.609  20.006  0.00  0.00    +0.000 A 
ATOM      6  N   UNL     1       1.041   7.528  21.139  0.00  0.00    +0.000 NA
ENDROOT
BRANCH   2   7
ATOM      7  C   UNL     1       3.883   6.152  17.409  0.00  0.00    +0.000 A 
ATOM      8  C   UNL     1       4.882   6.705  16.579  0.00  0.00    +0.000 A 
ATOM      9  C   UNL     1       5.716   5.894  15.807  0.00  0.00    +0.000 A 
ATOM     10  C   UNL     1       5.573   4.511  15.836  0.00  0.00    +0.000 A 
ATOM     11  C   UNL     1       4.601   3.934  16.649  0.00  0.00    +0.000 A 
ATOM     12  C   UNL     1       3.770   4.740  17.431  0.00  0.00    +0.000 A 
ENDBRANCH   2   7
BRANCH   6  13
ATOM     13  N   UNL     1       0.267   8.558  21.607  0.00  0.00    +0.000 NA
ATOM     14  C   UNL     1       0.487   9.076  22.758  0.00  0.00    +0.000 C 
BRANCH  14  15
ATOM     15  C   UNL     1      -0.389  10.158  23.223  0.00  0.00    +0.000 C 
ATOM     16  C   UNL     1      -0.710  11.184  22.423  0.00  0.00    +0.000 C 
BRANCH  16  17
ATOM     17  C   UNL     1      -1.554  12.325  22.866  0.00  0.00    +0.000 A 
ATOM     18  C   UNL     1      -0.945  13.580  23.036  0.00  0.00    +0.000 A 
ATOM     19  C   UNL     1      -1.688  14.675  23.484  0.00  0.00    +0.000 A 
ATOM     20  C   UNL     1      -3.053  14.535  23.748  0.00  0.00    +0.000 A 
ATOM     21  C   UNL     1      -3.676  13.300  23.564  0.00  0.00    +0.000 A 
ATOM     22  C   UNL     1      -2.934  12.198  23.131  0.00  0.00    +0.000 A 
ENDBRANCH  16  17
ENDBRANCH  14  15
ENDBRANCH   6  13
BRANCH   1  23
ATOM     23  C   UNL     1       2.670   5.373  20.260  0.00  0.00    +0.000 C 
BRANCH  23  25
ATOM     24  C   UNL     1       1.357   3.438  21.061  0.00  0.00    +0.000 C 
ATOM     25  C   UNL     1       1.460   4.480  20.233  0.00  0.00    +0.000 C 
ENDBRANCH  23  25
ENDBRANCH   1  23
TORSDOF 6
ENDMDL
MODEL 9
REMARK VINA RESULT:      -7.1      1.860      2.415
REMARK  Name = 
REMARK  6 active torsions:
REMARK  status: ('A' for Active; 'I' for Inactive)
REMARK    1  A    between atoms: C_2  and  C_3
REMARK    2  A    between atoms: C_3  and  N_4
REMARK    3  A    between atoms: C_5  and  C_6
REMARK    4  A    between atoms: N_15  and  N_16
REMARK    5  A    between atoms: C_17  and  C_18
REMARK    6  A    between atoms: C_19  and  C_20
REMARK                            x       y       z     vdW  Elec       q    Type
REMARK                         _______ _______ _______ _____ _____    ______ ____
ROOT
ATOM      1  N   UNL     1       4.656   5.279  18.183  0.00  0.00    +0.000 N 
ATOM      2  C   UNL     1       3.288   5.480  18.326  0.00  0.00    +0.000 A 
ATOM      3  C   UNL     1       2.891   6.796  18.053  0.00  0.00    +0.000 A 
ATOM      4  S   UNL     1       4.227   7.721  17.661  0.00  0.00    +0.000 S 
ATOM      5  C   UNL     1       5.286   6.429  17.820  0.00  0.00    +0.000 A 
ATOM      6  N   UNL     1       6.552   6.507  17.616  0.00  0.00    +0.000 NA
ENDROOT
BRANCH   2   7
ATOM      7  C   UNL     1       2.257   4.443  18.700  0.00  0.00    +0.000 A 
ATOM      8  C   UNL     1       1.839   3.407  17.838  0.00  0.00    +0.000 A 
ATOM      9  C   UNL     1       0.883   2.471  18.236  0.00  0.00    +0.000 A 
ATOM     10  C   UNL     1       0.313   2.545  19.503  0.00  0.00    +0.000 A 
ATOM     11  C   UNL     1       0.707   3.552  20.380  0.00  0.00    +0.000 A 
ATOM     12  C   UNL     1       1.671   4.486  19.990  0.00  0.00    +0.000 A 
ENDBRANCH   2   7
BRANCH   6  13
ATOM     13  N   UNL     1       7.139   7.688  17.244  0.00  0.00    +0.000 NA
ATOM     14  C   UNL     1       7.871   8.346  18.065  0.00  0.00    +0.000 C 
BRANCH  14  15
ATOM     15  C   UNL     1       8.454   9.619  17.625  0.00  0.00    +0.000 C 
ATOM     16  C   UNL     1       9.303  10.301  18.406  0.00  0.00    +0.000 C 
BRANCH  16  17
ATOM     17  C   UNL     1       9.881  11.616  18.023  0.00  0.00    +0.000 A 
ATOM     18  C   UNL     1       9.039  12.741  18.020  0.00  0.00    +0.000 A 
ATOM     19  C   UNL     1       9.525  13.992  17.634  0.00  0.00    +0.000 A 
ATOM     20  C   UNL     1      10.864  14.139  17.265  0.00  0.00    +0.000 A 
ATOM     21  C   UNL     1      11.718  13.036  17.283  0.00  0.00    +0.000 A 
ATOM     22  C   UNL     1      11.233  11.779  17.654  0.00  0.00    +0.000 A 
ENDBRANCH  16  17
ENDBRANCH  14  15
ENDBRANCH   6  13
BRANCH   1  23
ATOM     23  C   UNL     1       5.400   4.011  18.333  0.00  0.00    +0.000 C 
BRANCH  23  25
ATOM     24  C   UNL     1       4.625   2.170  19.790  0.00  0.00    +0.000 C 
ATOM     25  C   UNL     1       5.148   3.394  19.681  0.00  0.00    +0.000 C 
ENDBRANCH  23  25
ENDBRANCH   1  23
TORSDOF 6
ENDMDL
