MODEL 1
REMARK VINA RESULT:      -6.7      0.000      0.000
REMARK  Name = 
REMARK  12 active torsions:
REMARK  status: ('A' for Active; 'I' for Inactive)
REMARK    1  A    between atoms: C_1  and  C_2
REMARK    2  A    between atoms: C_2  and  O_3
REMARK    3  A    between atoms: O_3  and  C_4
REMARK    4  A    between atoms: C_7  and  C_8
REMARK    5  A    between atoms: C_8  and  N_9
REMARK    6  A    between atoms: N_9  and  C_10
REMARK    7  A    between atoms: C_10  and  C_11
REMARK    8  A    between atoms: C_14  and  C_15
REMARK    9  A    between atoms: N_17  and  C_18
REMARK   10  A    between atoms: C_22  and  O_23
REMARK   11  A    between atoms: O_23  and  C_24
REMARK   12  A    between atoms: C_24  and  C_25
REMARK                            x       y       z     vdW  Elec       q    Type
REMARK                         _______ _______ _______ _____ _____    ______ ____
ROOT
ATOM      1  N   UNL     1       5.745   4.474  16.417  0.00  0.00    +0.000 NA
ATOM      2  H   UNL     1       5.712   5.438  16.085  0.00  0.00    +0.000 HD
ENDROOT
BRANCH   1   3
ATOM      3  C   UNL     1       4.398   4.066  16.796  0.00  0.00    +0.000 C 
BRANCH   3   7
ATOM      4  C   UNL     1       2.434   6.914  19.455  0.00  0.00    +0.000 A 
ATOM      5  C   UNL     1       3.007   7.310  18.236  0.00  0.00    +0.000 A 
ATOM      6  C   UNL     1       3.623   6.406  17.379  0.00  0.00    +0.000 A 
ATOM      7  C   UNL     1       3.767   5.071  17.744  0.00  0.00    +0.000 A 
ATOM      8  C   UNL     1       3.262   4.667  18.987  0.00  0.00    +0.000 A 
ATOM      9  C   UNL     1       2.596   5.559  19.860  0.00  0.00    +0.000 A 
BRANCH   4  10
ATOM     10  O   UNL     1       1.710   7.808  20.202  0.00  0.00    +0.000 OA
BRANCH  10  12
ATOM     11  C   UNL     1       0.591   9.940  20.458  0.00  0.00    +0.000 C 
ATOM     12  C   UNL     1       1.350   9.026  19.512  0.00  0.00    +0.000 C 
ENDBRANCH  10  12
ENDBRANCH   4  10
BRANCH   9  13
ATOM     13  O   UNL     1       2.146   4.927  20.999  0.00  0.00    +0.000 OA
BRANCH  13  14
ATOM     14  C   UNL     1       1.250   3.842  20.785  0.00  0.00    +0.000 C 
ATOM     15  C   UNL     1       1.567   2.635  21.651  0.00  0.00    +0.000 C 
ENDBRANCH  13  14
ENDBRANCH   9  13
ENDBRANCH   3   7
ENDBRANCH   1   3
BRANCH   1  16
ATOM     16  C   UNL     1       6.703   4.391  17.517  0.00  0.00    +0.000 C 
BRANCH  16  17
ATOM     17  C   UNL     1       7.295   5.762  17.760  0.00  0.00    +0.000 A 
ATOM     18  C   UNL     1       8.010   6.044  18.931  0.00  0.00    +0.000 A 
ATOM     19  C   UNL     1       8.474   7.339  19.186  0.00  0.00    +0.000 A 
ATOM     20  C   UNL     1       8.241   8.382  18.279  0.00  0.00    +0.000 A 
ATOM     21  C   UNL     1       7.515   8.106  17.111  0.00  0.00    +0.000 A 
ATOM     22  C   UNL     1       7.049   6.808  16.858  0.00  0.00    +0.000 A 
BRANCH  20  23
ATOM     23  C   UNL     1       8.778   9.747  18.624  0.00  0.00    +0.000 C 
ATOM     24  O   UNL     1       8.700  10.652  17.785  0.00  0.00    +0.000 OA
ATOM     25  N   UNL     1       9.317   9.930  19.875  0.00  0.00    +0.000 N 
ATOM     26  C   UNL     1       9.826  11.206  20.308  0.00  0.00    +0.000 C 
ATOM     27  H   UNL     1       9.359   9.171  20.539  0.00  0.00    +0.000 HD
ENDBRANCH  20  23
ENDBRANCH  16  17
ENDBRANCH   1  16
TORSDOF 9
ENDMDL
MODEL 2
REMARK VINA RESULT:      -6.6      3.582      7.208
REMARK  Name = 
REMARK  12 active torsions:
REMARK  status: ('A' for Active; 'I' for Inactive)
REMARK    1  A    between atoms: C_1  and  C_2
REMARK    2  A    between atoms: C_2  and  O_3
REMARK    3  A    between atoms: O_3  and  C_4
REMARK    4  A    between atoms: C_7  and  C_8
REMARK    5  A    between atoms: C_8  and  N_9
REMARK    6  A    between atoms: N_9  and  C_10
REMARK    7  A    between atoms: C_10  and  C_11
REMARK    8  A    between atoms: C_14  and  C_15
REMARK    9  A    between atoms: N_17  and  C_18
REMARK   10  A    between atoms: C_22  and  O_23
REMARK   11  A    between atoms: O_23  and  C_24
REMARK   12  A    between atoms: C_24  and  C_25
REMARK                            x       y       z     vdW  Elec       q    Type
REMARK                         _______ _______ _______ _____ _____    ______ ____
ROOT
ATOM      1  N   UNL     1       2.738   5.968  20.191  0.00  0.00    +0.000 NA
ATOM      2  H   UNL     1       3.350   6.328  20.925  0.00  0.00    +0.000 HD
ENDROOT
BRANCH   1   3
ATOM      3  C   UNL     1       3.046   4.558  19.979  0.00  0.00    +0.000 C 
BRANCH   3   7
ATOM      4  C   UNL     1       5.910   4.209  16.707  0.00  0.00    +0.000 A 
ATOM      5  C   UNL     1       4.547   3.924  16.533  0.00  0.00    +0.000 A 
ATOM      6  C   UNL     1       3.627   4.046  17.568  0.00  0.00    +0.000 A 
ATOM      7  C   UNL     1       4.047   4.379  18.852  0.00  0.00    +0.000 A 
ATOM      8  C   UNL     1       5.414   4.601  19.064  0.00  0.00    +0.000 A 
ATOM      9  C   UNL     1       6.365   4.523  18.019  0.00  0.00    +0.000 A 
BRANCH   4  10
ATOM     10  O   UNL     1       6.758   4.217  15.629  0.00  0.00    +0.000 OA
BRANCH  10  12
ATOM     11  C   UNL     1       6.280   3.803  13.291  0.00  0.00    +0.000 C 
ATOM     12  C   UNL     1       6.210   4.806  14.428  0.00  0.00    +0.000 C 
ENDBRANCH  10  12
ENDBRANCH   4  10
BRANCH   9  13
ATOM     13  O   UNL     1       7.637   4.827  18.454  0.00  0.00    +0.000 OA
BRANCH  13  14
ATOM     14  C   UNL     1       7.826   6.163  18.909  0.00  0.00    +0.000 C 
ATOM     15  C   UNL     1       7.687   7.189  17.797  0.00  0.00    +0.000 C 
ENDBRANCH  13  14
ENDBRANCH   9  13
ENDBRANCH   3   7
ENDBRANCH   1   3
BRANCH   1  16
ATOM     16  C   UNL     1       2.915   6.783  18.992  0.00  0.00    +0.000 C 
BRANCH  16  17
ATOM     17  C   UNL     1       2.035   8.010  19.097  0.00  0.00    +0.000 A 
ATOM     18  C   UNL     1       1.463   8.387  20.320  0.00  0.00    +0.000 A 
ATOM     19  C   UNL     1       0.579   9.469  20.386  0.00  0.00    +0.000 A 
ATOM     20  C   UNL     1       0.249  10.205  19.240  0.00  0.00    +0.000 A 
ATOM     21  C   UNL     1       0.811   9.823  18.012  0.00  0.00    +0.000 A 
ATOM     22  C   UNL     1       1.695   8.736  17.947  0.00  0.00    +0.000 A 
BRANCH  20  23
ATOM     23  C   UNL     1      -0.706  11.360  19.395  0.00  0.00    +0.000 C 
ATOM     24  O   UNL     1      -0.969  12.058  18.410  0.00  0.00    +0.000 OA
ATOM     25  N   UNL     1      -1.262  11.573  20.635  0.00  0.00    +0.000 N 
ATOM     26  C   UNL     1      -2.209  12.631  20.875  0.00  0.00    +0.000 C 
ATOM     27  H   UNL     1      -1.031  10.979  21.417  0.00  0.00    +0.000 HD
ENDBRANCH  20  23
ENDBRANCH  16  17
ENDBRANCH   1  16
TORSDOF 9
ENDMDL
MODEL 3
REMARK VINA RESULT:      -6.6      3.223      7.387
REMARK  Name = 
REMARK  12 active torsions:
REMARK  status: ('A' for Active; 'I' for Inactive)
REMARK    1  A    between atoms: C_1  and  C_2
REMARK    2  A    between atoms: C_2  and  O_3
REMARK    3  A    between atoms: O_3  and  C_4
REMARK    4  A    between atoms: C_7  and  C_8
REMARK    5  A    between atoms: C_8  and  N_9
REMARK    6  A    between atoms: N_9  and  C_10
REMARK    7  A    between atoms: C_10  and  C_11
REMARK    8  A    between atoms: C_14  and  C_15
REMARK    9  A    between atoms: N_17  and  C_18
REMARK   10  A    between atoms: C_22  and  O_23
REMARK   11  A    between atoms: O_23  and  C_24
REMARK   12  A    between atoms: C_24  and  C_25
REMARK                            x       y       z     vdW  Elec       q    Type
REMARK                         _______ _______ _______ _____ _____    ______ ____
ROOT
ATOM      1  N   UNL     1       3.060   5.585  19.109  0.00  0.00    +0.000 NA
ATOM      2  H   UNL     1       2.568   5.859  19.960  0.00  0.00    +0.000 HD
ENDROOT
BRANCH   1   3
ATOM      3  C   UNL     1       4.410   5.164  19.468  0.00  0.00    +0.000 C 
BRANCH   3   7
ATOM      4  C   UNL     1       6.898   5.150  15.884  0.00  0.00    +0.000 A 
ATOM      5  C   UNL     1       5.980   4.124  16.154  0.00  0.00    +0.000 A 
ATOM      6  C   UNL     1       5.176   4.128  17.288  0.00  0.00    +0.000 A 
ATOM      7  C   UNL     1       5.314   5.125  18.249  0.00  0.00    +0.000 A 
ATOM      8  C   UNL     1       6.272   6.123  18.033  0.00  0.00    +0.000 A 
ATOM      9  C   UNL     1       7.076   6.163  16.869  0.00  0.00    +0.000 A 
BRANCH   4  10
ATOM     10  O   UNL     1       7.567   5.183  14.688  0.00  0.00    +0.000 OA
BRANCH  10  12
ATOM     11  C   UNL     1       7.571   4.909  12.281  0.00  0.00    +0.000 C 
ATOM     12  C   UNL     1       6.870   4.564  13.583  0.00  0.00    +0.000 C 
ENDBRANCH  10  12
ENDBRANCH   4  10
BRANCH   9  13
ATOM     13  O   UNL     1       7.910   7.260  16.854  0.00  0.00    +0.000 OA
BRANCH  13  14
ATOM     14  C   UNL     1       7.456   8.385  17.600  0.00  0.00    +0.000 C 
ATOM     15  C   UNL     1       8.588   9.138  18.279  0.00  0.00    +0.000 C 
ENDBRANCH  13  14
ENDBRANCH   9  13
ENDBRANCH   3   7
ENDBRANCH   1   3
BRANCH   1  16
ATOM     16  C   UNL     1       3.036   6.705  18.172  0.00  0.00    +0.000 C 
BRANCH  16  17
ATOM     17  C   UNL     1       2.219   7.829  18.770  0.00  0.00    +0.000 A 
ATOM     18  C   UNL     1       1.857   7.819  20.124  0.00  0.00    +0.000 A 
ATOM     19  C   UNL     1       1.025   8.817  20.643  0.00  0.00    +0.000 A 
ATOM     20  C   UNL     1       0.540   9.851  19.830  0.00  0.00    +0.000 A 
ATOM     21  C   UNL     1       0.891   9.857  18.472  0.00  0.00    +0.000 A 
ATOM     22  C   UNL     1       1.722   8.854  17.952  0.00  0.00    +0.000 A 
BRANCH  20  23
ATOM     23  C   UNL     1      -0.346  10.890  20.466  0.00  0.00    +0.000 C 
ATOM     24  O   UNL     1      -1.365  11.257  19.870  0.00  0.00    +0.000 OA
ATOM     25  N   UNL     1       0.013  11.372  21.703  0.00  0.00    +0.000 N 
ATOM     26  C   UNL     1      -0.786  12.344  22.405  0.00  0.00    +0.000 C 
ATOM     27  H   UNL     1       0.847  11.046  22.166  0.00  0.00    +0.000 HD
ENDBRANCH  20  23
ENDBRANCH  16  17
ENDBRANCH   1  16
TORSDOF 9
ENDMDL
MODEL 4
REMARK VINA RESULT:      -6.6      2.892      6.216
REMARK  Name = 
REMARK  12 active torsions:
REMARK  status: ('A' for Active; 'I' for Inactive)
REMARK    1  A    between atoms: C_1  and  C_2
REMARK    2  A    between atoms: C_2  and  O_3
REMARK    3  A    between atoms: O_3  and  C_4
REMARK    4  A    between atoms: C_7  and  C_8
REMARK    5  A    between atoms: C_8  and  N_9
REMARK    6  A    between atoms: N_9  and  C_10
REMARK    7  A    between atoms: C_10  and  C_11
REMARK    8  A    between atoms: C_14  and  C_15
REMARK    9  A    between atoms: N_17  and  C_18
REMARK   10  A    between atoms: C_22  and  O_23
REMARK   11  A    between atoms: O_23  and  C_24
REMARK   12  A    between atoms: C_24  and  C_25
REMARK                            x       y       z     vdW  Elec       q    Type
REMARK                         _______ _______ _______ _____ _____    ______ ____
ROOT
ATOM      1  N   UNL     1       3.429   2.911  19.763  0.00  0.00    +0.000 NA
ATOM      2  H   UNL     1       3.943   3.628  20.276  0.00  0.00    +0.000 HD
ENDROOT
BRANCH   1   3
ATOM      3  C   UNL     1       4.122   2.652  18.506  0.00  0.00    +0.000 C 
BRANCH   3   7
ATOM      4  C   UNL     1       6.679   5.974  17.298  0.00  0.00    +0.000 A 
ATOM      5  C   UNL     1       6.392   5.710  18.647  0.00  0.00    +0.000 A 
ATOM      6  C   UNL     1       5.588   4.646  19.039  0.00  0.00    +0.000 A 
ATOM      7  C   UNL     1       4.965   3.844  18.089  0.00  0.00    +0.000 A 
ATOM      8  C   UNL     1       5.182   4.130  16.735  0.00  0.00    +0.000 A 
ATOM      9  C   UNL     1       6.027   5.183  16.310  0.00  0.00    +0.000 A 
BRANCH   4  10
ATOM     10  O   UNL     1       7.589   6.942  16.961  0.00  0.00    +0.000 OA
BRANCH  10  12
ATOM     11  C   UNL     1       8.106   9.165  17.772  0.00  0.00    +0.000 C 
ATOM     12  C   UNL     1       8.137   7.678  18.078  0.00  0.00    +0.000 C 
ENDBRANCH  10  12
ENDBRANCH   4  10
BRANCH   9  13
ATOM     13  O   UNL     1       6.125   5.244  14.937  0.00  0.00    +0.000 OA
BRANCH  13  14
ATOM     14  C   UNL     1       5.663   4.092  14.238  0.00  0.00    +0.000 C 
ATOM     15  C   UNL     1       6.460   3.811  12.975  0.00  0.00    +0.000 C 
ENDBRANCH  13  14
ENDBRANCH   9  13
ENDBRANCH   3   7
ENDBRANCH   1   3
BRANCH   1  16
ATOM     16  C   UNL     1       2.052   3.362  19.581  0.00  0.00    +0.000 C 
BRANCH  16  17
ATOM     17  C   UNL     1       2.054   4.850  19.305  0.00  0.00    +0.000 A 
ATOM     18  C   UNL     1       2.071   5.779  20.354  0.00  0.00    +0.000 A 
ATOM     19  C   UNL     1       1.980   7.150  20.089  0.00  0.00    +0.000 A 
ATOM     20  C   UNL     1       1.876   7.628  18.775  0.00  0.00    +0.000 A 
ATOM     21  C   UNL     1       1.846   6.700  17.724  0.00  0.00    +0.000 A 
ATOM     22  C   UNL     1       1.934   5.326  17.991  0.00  0.00    +0.000 A 
BRANCH  20  23
ATOM     23  C   UNL     1       1.788   9.118  18.573  0.00  0.00    +0.000 C 
ATOM     24  O   UNL     1       2.313   9.621  17.574  0.00  0.00    +0.000 OA
ATOM     25  N   UNL     1       1.102   9.856  19.510  0.00  0.00    +0.000 N 
ATOM     26  C   UNL     1       0.937  11.281  19.388  0.00  0.00    +0.000 C 
ATOM     27  H   UNL     1       0.679   9.413  20.311  0.00  0.00    +0.000 HD
ENDBRANCH  20  23
ENDBRANCH  16  17
ENDBRANCH   1  16
TORSDOF 9
ENDMDL
MODEL 5
REMARK VINA RESULT:      -6.5      3.456      7.320
REMARK  Name = 
REMARK  12 active torsions:
REMARK  status: ('A' for Active; 'I' for Inactive)
REMARK    1  A    between atoms: C_1  and  C_2
REMARK    2  A    between atoms: C_2  and  O_3
REMARK    3  A    between atoms: O_3  and  C_4
REMARK    4  A    between atoms: C_7  and  C_8
REMARK    5  A    between atoms: C_8  and  N_9
REMARK    6  A    between atoms: N_9  and  C_10
REMARK    7  A    between atoms: C_10  and  C_11
REMARK    8  A    between atoms: C_14  and  C_15
REMARK    9  A    between atoms: N_17  and  C_18
REMARK   10  A    between atoms: C_22  and  O_23
REMARK   11  A    between atoms: O_23  and  C_24
REMARK   12  A    between atoms: C_24  and  C_25
REMARK                            x       y       z     vdW  Elec       q    Type
REMARK                         _______ _______ _______ _____ _____    ______ ____
ROOT
ATOM      1  N   UNL     1       2.820   5.526  18.990  0.00  0.00    +0.000 NA
ATOM      2  H   UNL     1       2.068   4.937  18.632  0.00  0.00    +0.000 HD
ENDROOT
BRANCH   1   3
ATOM      3  C   UNL     1       4.027   4.716  19.113  0.00  0.00    +0.000 C 
BRANCH   3   7
ATOM      4  C   UNL     1       6.327   5.022  15.419  0.00  0.00    +0.000 A 
ATOM      5  C   UNL     1       5.272   4.108  15.562  0.00  0.00    +0.000 A 
ATOM      6  C   UNL     1       4.527   4.014  16.732  0.00  0.00    +0.000 A 
ATOM      7  C   UNL     1       4.861   4.778  17.846  0.00  0.00    +0.000 A 
ATOM      8  C   UNL     1       5.954   5.648  17.747  0.00  0.00    +0.000 A 
ATOM      9  C   UNL     1       6.704   5.791  16.556  0.00  0.00    +0.000 A 
BRANCH   4  10
ATOM     10  O   UNL     1       6.942   5.184  14.204  0.00  0.00    +0.000 OA
BRANCH  10  12
ATOM     11  C   UNL     1       7.315   4.495  11.912  0.00  0.00    +0.000 C 
ATOM     12  C   UNL     1       6.669   4.142  13.240  0.00  0.00    +0.000 C 
ENDBRANCH  10  12
ENDBRANCH   4  10
BRANCH   9  13
ATOM     13  O   UNL     1       7.698   6.737  16.682  0.00  0.00    +0.000 OA
BRANCH  13  14
ATOM     14  C   UNL     1       7.781   7.373  17.953  0.00  0.00    +0.000 C 
ATOM     15  C   UNL     1       8.072   8.861  17.849  0.00  0.00    +0.000 C 
ENDBRANCH  13  14
ENDBRANCH   9  13
ENDBRANCH   3   7
ENDBRANCH   1   3
BRANCH   1  16
ATOM     16  C   UNL     1       2.391   6.117  20.254  0.00  0.00    +0.000 C 
BRANCH  16  17
ATOM     17  C   UNL     1       1.919   7.532  20.001  0.00  0.00    +0.000 A 
ATOM     18  C   UNL     1       1.216   8.246  20.981  0.00  0.00    +0.000 A 
ATOM     19  C   UNL     1       0.705   9.519  20.703  0.00  0.00    +0.000 A 
ATOM     20  C   UNL     1       0.888  10.113  19.446  0.00  0.00    +0.000 A 
ATOM     21  C   UNL     1       1.580   9.396  18.459  0.00  0.00    +0.000 A 
ATOM     22  C   UNL     1       2.089   8.119  18.739  0.00  0.00    +0.000 A 
BRANCH  20  23
ATOM     23  C   UNL     1       0.312  11.488  19.228  0.00  0.00    +0.000 C 
ATOM     24  O   UNL     1       0.856  12.244  18.416  0.00  0.00    +0.000 OA
ATOM     25  N   UNL     1      -0.816  11.834  19.935  0.00  0.00    +0.000 N 
ATOM     26  C   UNL     1      -1.457  13.113  19.771  0.00  0.00    +0.000 C 
ATOM     27  H   UNL     1      -1.239  11.189  20.585  0.00  0.00    +0.000 HD
ENDBRANCH  20  23
ENDBRANCH  16  17
ENDBRANCH   1  16
TORSDOF 9
ENDMDL
MODEL 6
REMARK VINA RESULT:      -6.4      2.909      6.247
REMARK  Name = 
REMARK  12 active torsions:
REMARK  status: ('A' for Active; 'I' for Inactive)
REMARK    1  A    between atoms: C_1  and  C_2
REMARK    2  A    between atoms: C_2  and  O_3
REMARK    3  A    between atoms: O_3  and  C_4
REMARK    4  A    between atoms: C_7  and  C_8
REMARK    5  A    between atoms: C_8  and  N_9
REMARK    6  A    between atoms: N_9  and  C_10
REMARK    7  A    between atoms: C_10  and  C_11
REMARK    8  A    between atoms: C_14  and  C_15
REMARK    9  A    between atoms: N_17  and  C_18
REMARK   10  A    between atoms: C_22  and  O_23
REMARK   11  A    between atoms: O_23  and  C_24
REMARK   12  A    between atoms: C_24  and  C_25
REMARK                            x       y       z     vdW  Elec       q    Type
REMARK                         _______ _______ _______ _____ _____    ______ ____
ROOT
ATOM      1  N   UNL     1       2.566   2.690  18.234  0.00  0.00    +0.000 NA
ATOM      2  H   UNL     1       2.075   1.809  18.077  0.00  0.00    +0.000 HD
ENDROOT
BRANCH   1   3
ATOM      3  C   UNL     1       4.000   2.424  18.260  0.00  0.00    +0.000 C 
BRANCH   3   7
ATOM      4  C   UNL     1       6.417   5.898  17.199  0.00  0.00    +0.000 A 
ATOM      5  C   UNL     1       6.197   5.527  18.534  0.00  0.00    +0.000 A 
ATOM      6  C   UNL     1       5.438   4.415  18.879  0.00  0.00    +0.000 A 
ATOM      7  C   UNL     1       4.794   3.667  17.898  0.00  0.00    +0.000 A 
ATOM      8  C   UNL     1       4.944   4.059  16.562  0.00  0.00    +0.000 A 
ATOM      9  C   UNL     1       5.743   5.164  16.182  0.00  0.00    +0.000 A 
BRANCH   4  10
ATOM     10  O   UNL     1       7.288   6.913  16.897  0.00  0.00    +0.000 OA
BRANCH  10  12
ATOM     11  C   UNL     1       8.366   8.908  17.749  0.00  0.00    +0.000 C 
ATOM     12  C   UNL     1       7.060   8.145  17.618  0.00  0.00    +0.000 C 
ENDBRANCH  10  12
ENDBRANCH   4  10
BRANCH   9  13
ATOM     13  O   UNL     1       5.780   5.329  14.814  0.00  0.00    +0.000 OA
BRANCH  13  14
ATOM     14  C   UNL     1       6.674   4.468  14.117  0.00  0.00    +0.000 C 
ATOM     15  C   UNL     1       6.003   3.720  12.977  0.00  0.00    +0.000 C 
ENDBRANCH  13  14
ENDBRANCH   9  13
ENDBRANCH   3   7
ENDBRANCH   1   3
BRANCH   1  16
ATOM     16  C   UNL     1       2.068   3.290  19.469  0.00  0.00    +0.000 C 
BRANCH  16  17
ATOM     17  C   UNL     1       1.933   4.784  19.270  0.00  0.00    +0.000 A 
ATOM     18  C   UNL     1       1.932   5.345  17.986  0.00  0.00    +0.000 A 
ATOM     19  C   UNL     1       1.898   6.734  17.819  0.00  0.00    +0.000 A 
ATOM     20  C   UNL     1       1.859   7.595  18.924  0.00  0.00    +0.000 A 
ATOM     21  C   UNL     1       1.871   7.037  20.211  0.00  0.00    +0.000 A 
ATOM     22  C   UNL     1       1.908   5.645  20.377  0.00  0.00    +0.000 A 
BRANCH  20  23
ATOM     23  C   UNL     1       1.819   9.078  18.660  0.00  0.00    +0.000 C 
ATOM     24  O   UNL     1       2.381   9.524  17.654  0.00  0.00    +0.000 OA
ATOM     25  N   UNL     1       1.134   9.872  19.550  0.00  0.00    +0.000 N 
ATOM     26  C   UNL     1       1.014  11.296  19.366  0.00  0.00    +0.000 C 
ATOM     27  H   UNL     1       0.680   9.475  20.358  0.00  0.00    +0.000 HD
ENDBRANCH  20  23
ENDBRANCH  16  17
ENDBRANCH   1  16
TORSDOF 9
ENDMDL
MODEL 7
REMARK VINA RESULT:      -6.4      2.981      6.704
REMARK  Name = 
REMARK  12 active torsions:
REMARK  status: ('A' for Active; 'I' for Inactive)
REMARK    1  A    between atoms: C_1  and  C_2
REMARK    2  A    between atoms: C_2  and  O_3
REMARK    3  A    between atoms: O_3  and  C_4
REMARK    4  A    between atoms: C_7  and  C_8
REMARK    5  A    between atoms: C_8  and  N_9
REMARK    6  A    between atoms: N_9  and  C_10
REMARK    7  A    between atoms: C_10  and  C_11
REMARK    8  A    between atoms: C_14  and  C_15
REMARK    9  A    between atoms: N_17  and  C_18
REMARK   10  A    between atoms: C_22  and  O_23
REMARK   11  A    between atoms: O_23  and  C_24
REMARK   12  A    between atoms: C_24  and  C_25
REMARK                            x       y       z     vdW  Elec       q    Type
REMARK                         _______ _______ _______ _____ _____    ______ ____
ROOT
ATOM      1  N   UNL     1       3.723   4.955  20.206  0.00  0.00    +0.000 NA
ATOM      2  H   UNL     1       4.211   5.834  20.031  0.00  0.00    +0.000 HD
ENDROOT
BRANCH   1   3
ATOM      3  C   UNL     1       4.501   3.868  19.624  0.00  0.00    +0.000 C 
BRANCH   3   7
ATOM      4  C   UNL     1       6.072   5.155  15.763  0.00  0.00    +0.000 A 
ATOM      5  C   UNL     1       5.030   4.221  15.866  0.00  0.00    +0.000 A 
ATOM      6  C   UNL     1       4.516   3.816  17.092  0.00  0.00    +0.000 A 
ATOM      7  C   UNL     1       5.083   4.268  18.280  0.00  0.00    +0.000 A 
ATOM      8  C   UNL     1       6.169   5.149  18.201  0.00  0.00    +0.000 A 
ATOM      9  C   UNL     1       6.685   5.607  16.965  0.00  0.00    +0.000 A 
BRANCH   4  10
ATOM     10  O   UNL     1       6.452   5.636  14.536  0.00  0.00    +0.000 OA
BRANCH  10  12
ATOM     11  C   UNL     1       6.437   3.881  12.867  0.00  0.00    +0.000 C 
ATOM     12  C   UNL     1       7.296   4.749  13.769  0.00  0.00    +0.000 C 
ENDBRANCH  10  12
ENDBRANCH   4  10
BRANCH   9  13
ATOM     13  O   UNL     1       7.719   6.501  17.138  0.00  0.00    +0.000 OA
BRANCH  13  14
ATOM     14  C   UNL     1       7.333   7.862  17.299  0.00  0.00    +0.000 C 
ATOM     15  C   UNL     1       8.313   8.657  18.144  0.00  0.00    +0.000 C 
ENDBRANCH  13  14
ENDBRANCH   9  13
ENDBRANCH   3   7
ENDBRANCH   1   3
BRANCH   1  16
ATOM     16  C   UNL     1       2.372   5.053  19.662  0.00  0.00    +0.000 C 
BRANCH  16  17
ATOM     17  C   UNL     1       2.039   6.510  19.428  0.00  0.00    +0.000 A 
ATOM     18  C   UNL     1       2.328   7.130  18.205  0.00  0.00    +0.000 A 
ATOM     19  C   UNL     1       2.100   8.499  18.032  0.00  0.00    +0.000 A 
ATOM     20  C   UNL     1       1.574   9.282  19.069  0.00  0.00    +0.000 A 
ATOM     21  C   UNL     1       1.295   8.667  20.299  0.00  0.00    +0.000 A 
ATOM     22  C   UNL     1       1.527   7.295  20.472  0.00  0.00    +0.000 A 
BRANCH  20  23
ATOM     23  C   UNL     1       1.353  10.748  18.802  0.00  0.00    +0.000 C 
ATOM     24  O   UNL     1       0.329  11.289  19.235  0.00  0.00    +0.000 OA
ATOM     25  N   UNL     1       2.319  11.428  18.098  0.00  0.00    +0.000 N 
ATOM     26  C   UNL     1       2.212  12.837  17.820  0.00  0.00    +0.000 C 
ATOM     27  H   UNL     1       3.146  10.957  17.765  0.00  0.00    +0.000 HD
ENDBRANCH  20  23
ENDBRANCH  16  17
ENDBRANCH   1  16
TORSDOF 9
ENDMDL
MODEL 8
REMARK VINA RESULT:      -6.4      3.839      5.744
REMARK  Name = 
REMARK  12 active torsions:
REMARK  status: ('A' for Active; 'I' for Inactive)
REMARK    1  A    between atoms: C_1  and  C_2
REMARK    2  A    between atoms: C_2  and  O_3
REMARK    3  A    between atoms: O_3  and  C_4
REMARK    4  A    between atoms: C_7  and  C_8
REMARK    5  A    between atoms: C_8  and  N_9
REMARK    6  A    between atoms: N_9  and  C_10
REMARK    7  A    between atoms: C_10  and  C_11
REMARK    8  A    between atoms: C_14  and  C_15
REMARK    9  A    between atoms: N_17  and  C_18
REMARK   10  A    between atoms: C_22  and  O_23
REMARK   11  A    between atoms: O_23  and  C_24
REMARK   12  A    between atoms: C_24  and  C_25
REMARK                            x       y       z     vdW  Elec       q    Type
REMARK                         _______ _______ _______ _____ _____    ______ ____
ROOT
ATOM      1  N   UNL     1       2.263   5.796  19.237  0.00  0.00    +0.000 NA
ATOM      2  H   UNL     1       2.370   6.387  18.412  0.00  0.00    +0.000 HD
ENDROOT
BRANCH   1   3
ATOM      3  C   UNL     1       1.994   6.649  20.389  0.00  0.00    +0.000 C 
BRANCH   3   7
ATOM      4  C   UNL     1       1.072  10.724  19.132  0.00  0.00    +0.000 A 
ATOM      5  C   UNL     1       1.589   9.771  18.240  0.00  0.00    +0.000 A 
ATOM      6  C   UNL     1       1.873   8.468  18.631  0.00  0.00    +0.000 A 
ATOM      7  C   UNL     1       1.730   8.082  19.960  0.00  0.00    +0.000 A 
ATOM      8  C   UNL     1       1.280   9.036  20.882  0.00  0.00    +0.000 A 
ATOM      9  C   UNL     1       0.947  10.358  20.502  0.00  0.00    +0.000 A 
BRANCH   4  10
ATOM     10  O   UNL     1       0.670  11.953  18.675  0.00  0.00    +0.000 OA
BRANCH  10  12
ATOM     11  C   UNL     1       1.766  13.888  19.635  0.00  0.00    +0.000 C 
ATOM     12  C   UNL     1       1.737  12.907  18.476  0.00  0.00    +0.000 C 
ENDBRANCH  10  12
ENDBRANCH   4  10
BRANCH   9  13
ATOM     13  O   UNL     1       0.484  11.100  21.567  0.00  0.00    +0.000 OA
BRANCH  13  14
ATOM     14  C   UNL     1      -0.932  11.201  21.674  0.00  0.00    +0.000 C 
ATOM     15  C   UNL     1      -1.390  11.611  23.064  0.00  0.00    +0.000 C 
ENDBRANCH  13  14
ENDBRANCH   9  13
ENDBRANCH   3   7
ENDBRANCH   1   3
BRANCH   1  16
ATOM     16  C   UNL     1       3.467   4.983  19.391  0.00  0.00    +0.000 C 
BRANCH  16  17
ATOM     17  C   UNL     1       4.199   4.932  18.068  0.00  0.00    +0.000 A 
ATOM     18  C   UNL     1       4.536   3.708  17.475  0.00  0.00    +0.000 A 
ATOM     19  C   UNL     1       5.292   3.674  16.298  0.00  0.00    +0.000 A 
ATOM     20  C   UNL     1       5.725   4.856  15.682  0.00  0.00    +0.000 A 
ATOM     21  C   UNL     1       5.400   6.083  16.280  0.00  0.00    +0.000 A 
ATOM     22  C   UNL     1       4.644   6.115  17.460  0.00  0.00    +0.000 A 
BRANCH  20  23
ATOM     23  C   UNL     1       6.531   4.735  14.415  0.00  0.00    +0.000 C 
ATOM     24  O   UNL     1       7.578   5.382  14.305  0.00  0.00    +0.000 OA
ATOM     25  N   UNL     1       6.069   3.886  13.436  0.00  0.00    +0.000 N 
ATOM     26  C   UNL     1       6.785   3.680  12.204  0.00  0.00    +0.000 C 
ATOM     27  H   UNL     1       5.213   3.367  13.561  0.00  0.00    +0.000 HD
ENDBRANCH  20  23
ENDBRANCH  16  17
ENDBRANCH   1  16
TORSDOF 9
ENDMDL
MODEL 9
REMARK VINA RESULT:      -6.3      4.144      8.418
REMARK  Name = 
REMARK  12 active torsions:
REMARK  status: ('A' for Active; 'I' for Inactive)
REMARK    1  A    between atoms: C_1  and  C_2
REMARK    2  A    between atoms: C_2  and  O_3
REMARK    3  A    between atoms: O_3  and  C_4
REMARK    4  A    between atoms: C_7  and  C_8
REMARK    5  A    between atoms: C_8  and  N_9
REMARK    6  A    between atoms: N_9  and  C_10
REMARK    7  A    between atoms: C_10  and  C_11
REMARK    8  A    between atoms: C_14  and  C_15
REMARK    9  A    between atoms: N_17  and  C_18
REMARK   10  A    between atoms: C_22  and  O_23
REMARK   11  A    between atoms: O_23  and  C_24
REMARK   12  A    between atoms: C_24  and  C_25
REMARK                            x       y       z     vdW  Elec       q    Type
REMARK                         _______ _______ _______ _____ _____    ______ ____
ROOT
ATOM      1  N   UNL     1       2.013   8.870  19.298  0.00  0.00    +0.000 NA
ATOM      2  H   UNL     1       1.612   9.803  19.201  0.00  0.00    +0.000 HD
ENDROOT
BRANCH   1   3
ATOM      3  C   UNL     1       1.815   8.147  18.047  0.00  0.00    +0.000 C 
BRANCH   3   7
ATOM      4  C   UNL     1       4.888   5.146  17.281  0.00  0.00    +0.000 A 
ATOM      5  C   UNL     1       3.639   4.807  17.825  0.00  0.00    +0.000 A 
ATOM      6  C   UNL     1       2.651   5.756  18.059  0.00  0.00    +0.000 A 
ATOM      7  C   UNL     1       2.902   7.107  17.836  0.00  0.00    +0.000 A 
ATOM      8  C   UNL     1       4.165   7.475  17.358  0.00  0.00    +0.000 A 
ATOM      9  C   UNL     1       5.175   6.525  17.074  0.00  0.00    +0.000 A 
BRANCH   4  10
ATOM     10  O   UNL     1       5.779   4.164  16.931  0.00  0.00    +0.000 OA
BRANCH  10  12
ATOM     11  C   UNL     1       6.646   4.256  14.671  0.00  0.00    +0.000 C 
ATOM     12  C   UNL     1       5.611   3.638  15.596  0.00  0.00    +0.000 C 
ENDBRANCH  10  12
ENDBRANCH   4  10
BRANCH   9  13
ATOM     13  O   UNL     1       6.313   7.115  16.570  0.00  0.00    +0.000 OA
BRANCH  13  14
ATOM     14  C   UNL     1       7.180   7.700  17.538  0.00  0.00    +0.000 C 
ATOM     15  C   UNL     1       7.863   6.666  18.417  0.00  0.00    +0.000 C 
ENDBRANCH  13  14
ENDBRANCH   9  13
ENDBRANCH   3   7
ENDBRANCH   1   3
BRANCH   1  16
ATOM     16  C   UNL     1       1.398   8.212  20.447  0.00  0.00    +0.000 C 
BRANCH  16  17
ATOM     17  C   UNL     1       0.492   9.198  21.153  0.00  0.00    +0.000 A 
ATOM     18  C   UNL     1       0.023  10.345  20.497  0.00  0.00    +0.000 A 
ATOM     19  C   UNL     1      -0.738  11.295  21.187  0.00  0.00    +0.000 A 
ATOM     20  C   UNL     1      -1.054  11.124  22.542  0.00  0.00    +0.000 A 
ATOM     21  C   UNL     1      -0.575   9.983  23.204  0.00  0.00    +0.000 A 
ATOM     22  C   UNL     1       0.190   9.033  22.512  0.00  0.00    +0.000 A 
BRANCH  20  23
ATOM     23  C   UNL     1      -1.881  12.190  23.212  0.00  0.00    +0.000 C 
ATOM     24  O   UNL     1      -1.393  13.313  23.378  0.00  0.00    +0.000 OA
ATOM     25  N   UNL     1      -3.162  11.865  23.595  0.00  0.00    +0.000 N 
ATOM     26  C   UNL     1      -4.040  12.824  24.213  0.00  0.00    +0.000 C 
ATOM     27  H   UNL     1      -3.532  10.940  23.438  0.00  0.00    +0.000 HD
ENDBRANCH  20  23
ENDBRANCH  16  17
ENDBRANCH   1  16
TORSDOF 9
ENDMDL
