MODEL 1
REMARK VINA RESULT:      -8.1      0.000      0.000
REMARK  Name = 
REMARK  10 active torsions:
REMARK  status: ('A' for Active; 'I' for Inactive)
REMARK    1  A    between atoms: C_1  and  C_2
REMARK    2  A    between atoms: C_2  and  C_3
REMARK    3  A    between atoms: C_3  and  N_4
REMARK    4  A    between atoms: C_5  and  C_7
REMARK    5  A    between atoms: C_8  and  N_9
REMARK    6  A    between atoms: N_10  and  C_11
REMARK    7  A    between atoms: C_13  and  O_14
REMARK    8  A    between atoms: O_14  and  C_15
REMARK    9  A    between atoms: C_17  and  O_18
REMARK   10  A    between atoms: O_18  and  C_19
REMARK                            x       y       z     vdW  Elec       q    Type
REMARK                         _______ _______ _______ _____ _____    ______ ____
ROOT
ATOM      1  C   UNL     1       3.737   3.256  18.960  0.00  0.00    +0.000 A 
ATOM      2  C   UNL     1       3.260   3.163  17.621  0.00  0.00    +0.000 A 
ATOM      3  N   UNL     1       3.752   4.357  17.131  0.00  0.00    +0.000 N 
ATOM      4  C   UNL     1       3.147   5.230  17.971  0.00  0.00    +0.000 A 
ATOM      5  N   UNL     1       2.719   6.424  17.577  0.00  0.00    +0.000 NA
ATOM      6  C   UNL     1       2.280   7.160  18.551  0.00  0.00    +0.000 A 
ATOM      7  C   UNL     1       1.774   8.372  18.093  0.00  0.00    +0.000 A 
ATOM      8  C   UNL     1       1.234   9.286  18.955  0.00  0.00    +0.000 A 
ATOM      9  C   UNL     1       1.248   8.952  20.308  0.00  0.00    +0.000 A 
ATOM     10  C   UNL     1       1.782   7.710  20.756  0.00  0.00    +0.000 A 
ATOM     11  C   UNL     1       2.337   6.735  19.906  0.00  0.00    +0.000 A 
ATOM     12  N   UNL     1       2.877   5.473  20.306  0.00  0.00    +0.000 NA
ATOM     13  C   UNL     1       3.244   4.648  19.253  0.00  0.00    +0.000 A 
ENDROOT
BRANCH   3  14
ATOM     14  C   UNL     1       4.982   4.644  16.470  0.00  0.00    +0.000 A 
ATOM     15  C   UNL     1       5.857   5.607  16.944  0.00  0.00    +0.000 A 
ATOM     16  C   UNL     1       7.022   5.879  16.214  0.00  0.00    +0.000 A 
ATOM     17  C   UNL     1       7.260   5.233  14.986  0.00  0.00    +0.000 A 
ATOM     18  C   UNL     1       6.367   4.288  14.497  0.00  0.00    +0.000 A 
ATOM     19  C   UNL     1       5.256   3.972  15.255  0.00  0.00    +0.000 A 
BRANCH  16  20
ATOM     20  O   UNL     1       7.855   6.796  16.797  0.00  0.00    +0.000 OA
ATOM     21  C   UNL     1       7.770   6.919  18.208  0.00  0.00    +0.000 C 
ENDBRANCH  16  20
BRANCH  18  22
ATOM     22  O   UNL     1       6.651   3.747  13.268  0.00  0.00    +0.000 OA
ATOM     23  C   UNL     1       5.538   3.342  12.470  0.00  0.00    +0.000 C 
ENDBRANCH  18  22
ENDBRANCH   3  14
BRANCH   1  25
ATOM     24  N   UNL     1       5.160   1.766  20.470  0.00  0.00    +0.000 N 
ATOM     25  C   UNL     1       4.296   1.953  19.419  0.00  0.00    +0.000 C 
ATOM     26  O   UNL     1       3.961   0.931  18.801  0.00  0.00    +0.000 OA
ATOM     27  H   UNL     1       5.367   2.560  21.059  0.00  0.00    +0.000 HD
BRANCH  24  28
ATOM     28  C   UNL     1       5.342   0.398  21.019  0.00  0.00    +0.000 C 
BRANCH  28  30
ATOM     29  C   UNL     1       6.865  -1.214  22.344  0.00  0.00    +0.000 C 
ATOM     30  C   UNL     1       6.305   0.190  22.212  0.00  0.00    +0.000 C 
ENDBRANCH  28  30
ENDBRANCH  24  28
ENDBRANCH   1  25
BRANCH   2  31
ATOM     31  N   UNL     1       1.978   2.726  17.330  0.00  0.00    +0.000 N 
ATOM     32  H   UNL     1       1.874   1.708  17.373  0.00  0.00    +0.000 HD
ATOM     33  H   UNL     1       1.268   3.078  17.985  0.00  0.00    +0.000 HD
ENDBRANCH   2  31
TORSDOF 7
ENDMDL
MODEL 2
REMARK VINA RESULT:      -7.7      0.306      2.407
REMARK  Name = 
REMARK  10 active torsions:
REMARK  status: ('A' for Active; 'I' for Inactive)
REMARK    1  A    between atoms: C_1  and  C_2
REMARK    2  A    between atoms: C_2  and  C_3
REMARK    3  A    between atoms: C_3  and  N_4
REMARK    4  A    between atoms: C_5  and  C_7
REMARK    5  A    between atoms: C_8  and  N_9
REMARK    6  A    between atoms: N_10  and  C_11
REMARK    7  A    between atoms: C_13  and  O_14
REMARK    8  A    between atoms: O_14  and  C_15
REMARK    9  A    between atoms: C_17  and  O_18
REMARK   10  A    between atoms: O_18  and  C_19
REMARK                            x       y       z     vdW  Elec       q    Type
REMARK                         _______ _______ _______ _____ _____    ______ ____
ROOT
ATOM      1  C   UNL     1       3.647   3.420  18.970  0.00  0.00    +0.000 A 
ATOM      2  C   UNL     1       3.175   3.367  17.627  0.00  0.00    +0.000 A 
ATOM      3  N   UNL     1       3.668   4.576  17.175  0.00  0.00    +0.000 N 
ATOM      4  C   UNL     1       3.060   5.422  18.039  0.00  0.00    +0.000 A 
ATOM      5  N   UNL     1       2.634   6.628  17.679  0.00  0.00    +0.000 NA
ATOM      6  C   UNL     1       2.190   7.334  18.674  0.00  0.00    +0.000 A 
ATOM      7  C   UNL     1       1.685   8.559  18.251  0.00  0.00    +0.000 A 
ATOM      8  C   UNL     1       1.142   9.446  19.137  0.00  0.00    +0.000 A 
ATOM      9  C   UNL     1       1.151   9.072  20.480  0.00  0.00    +0.000 A 
ATOM     10  C   UNL     1       1.683   7.817  20.892  0.00  0.00    +0.000 A 
ATOM     11  C   UNL     1       2.242   6.868  20.015  0.00  0.00    +0.000 A 
ATOM     12  N   UNL     1       2.781   5.595  20.379  0.00  0.00    +0.000 NA
ATOM     13  C   UNL     1       3.152   4.802  19.303  0.00  0.00    +0.000 A 
ENDROOT
BRANCH   3  14
ATOM     14  C   UNL     1       4.901   4.882  16.528  0.00  0.00    +0.000 A 
ATOM     15  C   UNL     1       5.280   4.263  15.349  0.00  0.00    +0.000 A 
ATOM     16  C   UNL     1       6.531   4.569  14.797  0.00  0.00    +0.000 A 
ATOM     17  C   UNL     1       7.413   5.436  15.469  0.00  0.00    +0.000 A 
ATOM     18  C   UNL     1       7.043   6.035  16.667  0.00  0.00    +0.000 A 
ATOM     19  C   UNL     1       5.782   5.786  17.170  0.00  0.00    +0.000 A 
BRANCH  16  20
ATOM     20  O   UNL     1       6.786   3.959  13.598  0.00  0.00    +0.000 OA
ATOM     21  C   UNL     1       5.660   3.475  12.883  0.00  0.00    +0.000 C 
ENDBRANCH  16  20
BRANCH  18  22
ATOM     22  O   UNL     1       7.985   6.825  17.279  0.00  0.00    +0.000 OA
ATOM     23  C   UNL     1       8.020   6.795  18.707  0.00  0.00    +0.000 C 
ENDBRANCH  18  22
ENDBRANCH   3  14
BRANCH   1  25
ATOM     24  N   UNL     1       5.123   1.894  20.391  0.00  0.00    +0.000 N 
ATOM     25  C   UNL     1       4.204   2.104  19.391  0.00  0.00    +0.000 C 
ATOM     26  O   UNL     1       3.814   1.091  18.790  0.00  0.00    +0.000 OA
ATOM     27  H   UNL     1       5.379   2.682  20.969  0.00  0.00    +0.000 HD
BRANCH  24  28
ATOM     28  C   UNL     1       5.309   0.520  20.923  0.00  0.00    +0.000 C 
BRANCH  28  30
ATOM     29  C   UNL     1       6.706  -1.109  22.361  0.00  0.00    +0.000 C 
ATOM     30  C   UNL     1       6.209   0.311  22.165  0.00  0.00    +0.000 C 
ENDBRANCH  28  30
ENDBRANCH  24  28
ENDBRANCH   1  25
BRANCH   2  31
ATOM     31  N   UNL     1       1.894   2.939  17.318  0.00  0.00    +0.000 N 
ATOM     32  H   UNL     1       1.818   2.519  16.387  0.00  0.00    +0.000 HD
ATOM     33  H   UNL     1       1.543   2.210  17.951  0.00  0.00    +0.000 HD
ENDBRANCH   2  31
TORSDOF 7
ENDMDL
MODEL 3
REMARK VINA RESULT:      -7.7      1.072      1.085
REMARK  Name = 
REMARK  10 active torsions:
REMARK  status: ('A' for Active; 'I' for Inactive)
REMARK    1  A    between atoms: C_1  and  C_2
REMARK    2  A    between atoms: C_2  and  C_3
REMARK    3  A    between atoms: C_3  and  N_4
REMARK    4  A    between atoms: C_5  and  C_7
REMARK    5  A    between atoms: C_8  and  N_9
REMARK    6  A    between atoms: N_10  and  C_11
REMARK    7  A    between atoms: C_13  and  O_14
REMARK    8  A    between atoms: O_14  and  C_15
REMARK    9  A    between atoms: C_17  and  O_18
REMARK   10  A    between atoms: O_18  and  C_19
REMARK                            x       y       z     vdW  Elec       q    Type
REMARK                         _______ _______ _______ _____ _____    ______ ____
ROOT
ATOM      1  C   UNL     1       3.436   3.568  19.900  0.00  0.00    +0.000 A 
ATOM      2  C   UNL     1       3.068   3.182  18.579  0.00  0.00    +0.000 A 
ATOM      3  N   UNL     1       3.641   4.226  17.879  0.00  0.00    +0.000 N 
ATOM      4  C   UNL     1       3.002   5.276  18.447  0.00  0.00    +0.000 A 
ATOM      5  N   UNL     1       2.652   6.358  17.759  0.00  0.00    +0.000 NA
ATOM      6  C   UNL     1       2.162   7.303  18.502  0.00  0.00    +0.000 A 
ATOM      7  C   UNL     1       1.739   8.388  17.742  0.00  0.00    +0.000 A 
ATOM      8  C   UNL     1       1.165   9.482  18.327  0.00  0.00    +0.000 A 
ATOM      9  C   UNL     1       1.056   9.463  19.717  0.00  0.00    +0.000 A 
ATOM     10  C   UNL     1       1.505   8.344  20.475  0.00  0.00    +0.000 A 
ATOM     11  C   UNL     1       2.092   7.193  19.917  0.00  0.00    +0.000 A 
ATOM     12  N   UNL     1       2.551   6.046  20.635  0.00  0.00    +0.000 NA
ATOM     13  C   UNL     1       2.972   4.998  19.829  0.00  0.00    +0.000 A 
ENDROOT
BRANCH   3  14
ATOM     14  C   UNL     1       4.931   4.335  17.282  0.00  0.00    +0.000 A 
ATOM     15  C   UNL     1       5.998   4.911  17.951  0.00  0.00    +0.000 A 
ATOM     16  C   UNL     1       7.224   5.039  17.284  0.00  0.00    +0.000 A 
ATOM     17  C   UNL     1       7.345   4.652  15.937  0.00  0.00    +0.000 A 
ATOM     18  C   UNL     1       6.266   4.100  15.257  0.00  0.00    +0.000 A 
ATOM     19  C   UNL     1       5.080   3.912  15.940  0.00  0.00    +0.000 A 
BRANCH  16  20
ATOM     20  O   UNL     1       8.234   5.558  18.050  0.00  0.00    +0.000 OA
ATOM     21  C   UNL     1       7.914   5.859  19.399  0.00  0.00    +0.000 C 
ENDBRANCH  16  20
BRANCH  18  22
ATOM     22  O   UNL     1       6.458   3.801  13.931  0.00  0.00    +0.000 OA
ATOM     23  C   UNL     1       5.302   3.817  13.093  0.00  0.00    +0.000 C 
ENDBRANCH  18  22
ENDBRANCH   3  14
BRANCH   1  25
ATOM     24  N   UNL     1       4.987   1.596  20.386  0.00  0.00    +0.000 N 
ATOM     25  C   UNL     1       3.908   2.392  20.686  0.00  0.00    +0.000 C 
ATOM     26  O   UNL     1       3.276   2.089  21.709  0.00  0.00    +0.000 OA
ATOM     27  H   UNL     1       5.585   1.879  19.623  0.00  0.00    +0.000 HD
BRANCH  24  28
ATOM     28  C   UNL     1       5.536   0.701  21.436  0.00  0.00    +0.000 C 
BRANCH  28  30
ATOM     29  C   UNL     1       6.886  -1.389  22.131  0.00  0.00    +0.000 C 
ATOM     30  C   UNL     1       6.171  -0.646  21.018  0.00  0.00    +0.000 C 
ENDBRANCH  28  30
ENDBRANCH  24  28
ENDBRANCH   1  25
BRANCH   2  31
ATOM     31  N   UNL     1       1.799   2.713  18.282  0.00  0.00    +0.000 N 
ATOM     32  H   UNL     1       1.801   1.887  17.676  0.00  0.00    +0.000 HD
ATOM     33  H   UNL     1       1.268   2.415  19.110  0.00  0.00    +0.000 HD
ENDBRANCH   2  31
TORSDOF 7
ENDMDL
MODEL 4
REMARK VINA RESULT:      -7.5      1.338      1.485
REMARK  Name = 
REMARK  10 active torsions:
REMARK  status: ('A' for Active; 'I' for Inactive)
REMARK    1  A    between atoms: C_1  and  C_2
REMARK    2  A    between atoms: C_2  and  C_3
REMARK    3  A    between atoms: C_3  and  N_4
REMARK    4  A    between atoms: C_5  and  C_7
REMARK    5  A    between atoms: C_8  and  N_9
REMARK    6  A    between atoms: N_10  and  C_11
REMARK    7  A    between atoms: C_13  and  O_14
REMARK    8  A    between atoms: O_14  and  C_15
REMARK    9  A    between atoms: C_17  and  O_18
REMARK   10  A    between atoms: O_18  and  C_19
REMARK                            x       y       z     vdW  Elec       q    Type
REMARK                         _______ _______ _______ _____ _____    ______ ____
ROOT
ATOM      1  C   UNL     1       2.871   4.242  20.003  0.00  0.00    +0.000 A 
ATOM      2  C   UNL     1       2.566   3.923  18.649  0.00  0.00    +0.000 A 
ATOM      3  N   UNL     1       3.223   4.967  18.026  0.00  0.00    +0.000 N 
ATOM      4  C   UNL     1       2.595   6.022  18.597  0.00  0.00    +0.000 A 
ATOM      5  N   UNL     1       2.333   7.143  17.935  0.00  0.00    +0.000 NA
ATOM      6  C   UNL     1       1.839   8.080  18.686  0.00  0.00    +0.000 A 
ATOM      7  C   UNL     1       1.508   9.211  17.947  0.00  0.00    +0.000 A 
ATOM      8  C   UNL     1       0.946  10.306  18.541  0.00  0.00    +0.000 A 
ATOM      9  C   UNL     1       0.753  10.239  19.920  0.00  0.00    +0.000 A 
ATOM     10  C   UNL     1       1.109   9.074  20.658  0.00  0.00    +0.000 A 
ATOM     11  C   UNL     1       1.680   7.920  20.089  0.00  0.00    +0.000 A 
ATOM     12  N   UNL     1       2.047   6.727  20.786  0.00  0.00    +0.000 NA
ATOM     13  C   UNL     1       2.472   5.692  19.964  0.00  0.00    +0.000 A 
ENDROOT
BRANCH   3  14
ATOM     14  C   UNL     1       4.550   5.042  17.510  0.00  0.00    +0.000 A 
ATOM     15  C   UNL     1       5.503   5.877  18.067  0.00  0.00    +0.000 A 
ATOM     16  C   UNL     1       6.771   5.945  17.474  0.00  0.00    +0.000 A 
ATOM     17  C   UNL     1       7.045   5.229  16.294  0.00  0.00    +0.000 A 
ATOM     18  C   UNL     1       6.078   4.413  15.719  0.00  0.00    +0.000 A 
ATOM     19  C   UNL     1       4.853   4.295  16.346  0.00  0.00    +0.000 A 
BRANCH  16  20
ATOM     20  O   UNL     1       7.664   6.745  18.136  0.00  0.00    +0.000 OA
ATOM     21  C   UNL     1       7.835   8.058  17.625  0.00  0.00    +0.000 C 
ENDBRANCH  16  20
BRANCH  18  22
ATOM     22  O   UNL     1       6.413   3.793  14.540  0.00  0.00    +0.000 OA
ATOM     23  C   UNL     1       7.026   4.605  13.538  0.00  0.00    +0.000 C 
ENDBRANCH  18  22
ENDBRANCH   3  14
BRANCH   1  25
ATOM     24  N   UNL     1       4.301   2.182  20.494  0.00  0.00    +0.000 N 
ATOM     25  C   UNL     1       3.245   3.018  20.767  0.00  0.00    +0.000 C 
ATOM     26  O   UNL     1       2.545   2.709  21.744  0.00  0.00    +0.000 OA
ATOM     27  H   UNL     1       4.952   2.464  19.774  0.00  0.00    +0.000 HD
BRANCH  24  28
ATOM     28  C   UNL     1       4.751   1.225  21.536  0.00  0.00    +0.000 C 
BRANCH  28  30
ATOM     29  C   UNL     1       6.563  -0.442  22.318  0.00  0.00    +0.000 C 
ATOM     30  C   UNL     1       5.770   0.125  21.155  0.00  0.00    +0.000 C 
ENDBRANCH  28  30
ENDBRANCH  24  28
ENDBRANCH   1  25
BRANCH   2  31
ATOM     31  N   UNL     1       1.298   3.522  18.259  0.00  0.00    +0.000 N 
ATOM     32  H   UNL     1       0.902   4.096  17.509  0.00  0.00    +0.000 HD
ATOM     33  H   UNL     1       1.269   2.565  17.885  0.00  0.00    +0.000 HD
ENDBRANCH   2  31
TORSDOF 7
ENDMDL
MODEL 5
REMARK VINA RESULT:      -7.4      1.383      2.752
REMARK  Name = 
REMARK  10 active torsions:
REMARK  status: ('A' for Active; 'I' for Inactive)
REMARK    1  A    between atoms: C_1  and  C_2
REMARK    2  A    between atoms: C_2  and  C_3
REMARK    3  A    between atoms: C_3  and  N_4
REMARK    4  A    between atoms: C_5  and  C_7
REMARK    5  A    between atoms: C_8  and  N_9
REMARK    6  A    between atoms: N_10  and  C_11
REMARK    7  A    between atoms: C_13  and  O_14
REMARK    8  A    between atoms: O_14  and  C_15
REMARK    9  A    between atoms: C_17  and  O_18
REMARK   10  A    between atoms: O_18  and  C_19
REMARK                            x       y       z     vdW  Elec       q    Type
REMARK                         _______ _______ _______ _____ _____    ______ ____
ROOT
ATOM      1  C   UNL     1       2.773   4.337  20.005  0.00  0.00    +0.000 A 
ATOM      2  C   UNL     1       2.427   4.014  18.661  0.00  0.00    +0.000 A 
ATOM      3  N   UNL     1       3.088   5.039  18.013  0.00  0.00    +0.000 N 
ATOM      4  C   UNL     1       2.497   6.111  18.592  0.00  0.00    +0.000 A 
ATOM      5  N   UNL     1       2.240   7.232  17.927  0.00  0.00    +0.000 NA
ATOM      6  C   UNL     1       1.784   8.184  18.683  0.00  0.00    +0.000 A 
ATOM      7  C   UNL     1       1.457   9.316  17.944  0.00  0.00    +0.000 A 
ATOM      8  C   UNL     1       0.932  10.427  18.543  0.00  0.00    +0.000 A 
ATOM      9  C   UNL     1       0.775  10.374  19.927  0.00  0.00    +0.000 A 
ATOM     10  C   UNL     1       1.127   9.208  20.665  0.00  0.00    +0.000 A 
ATOM     11  C   UNL     1       1.659   8.038  20.091  0.00  0.00    +0.000 A 
ATOM     12  N   UNL     1       2.020   6.844  20.788  0.00  0.00    +0.000 NA
ATOM     13  C   UNL     1       2.403   5.795  19.963  0.00  0.00    +0.000 A 
ENDROOT
BRANCH   3  14
ATOM     14  C   UNL     1       4.403   5.083  17.462  0.00  0.00    +0.000 A 
ATOM     15  C   UNL     1       4.794   4.234  16.441  0.00  0.00    +0.000 A 
ATOM     16  C   UNL     1       6.118   4.290  15.986  0.00  0.00    +0.000 A 
ATOM     17  C   UNL     1       7.048   5.146  16.604  0.00  0.00    +0.000 A 
ATOM     18  C   UNL     1       6.661   5.978  17.648  0.00  0.00    +0.000 A 
ATOM     19  C   UNL     1       5.339   5.969  18.046  0.00  0.00    +0.000 A 
BRANCH  16  20
ATOM     20  O   UNL     1       6.389   3.461  14.930  0.00  0.00    +0.000 OA
ATOM     21  C   UNL     1       6.165   3.993  13.634  0.00  0.00    +0.000 C 
ENDBRANCH  16  20
BRANCH  18  22
ATOM     22  O   UNL     1       7.645   6.741  18.227  0.00  0.00    +0.000 OA
ATOM     23  C   UNL     1       7.820   8.062  17.715  0.00  0.00    +0.000 C 
ENDBRANCH  18  22
ENDBRANCH   3  14
BRANCH   1  25
ATOM     24  N   UNL     1       4.156   2.236  20.458  0.00  0.00    +0.000 N 
ATOM     25  C   UNL     1       3.143   3.112  20.768  0.00  0.00    +0.000 C 
ATOM     26  O   UNL     1       2.481   2.840  21.782  0.00  0.00    +0.000 OA
ATOM     27  H   UNL     1       4.780   2.485  19.704  0.00  0.00    +0.000 HD
BRANCH  24  28
ATOM     28  C   UNL     1       4.624   1.279  21.492  0.00  0.00    +0.000 C 
BRANCH  28  30
ATOM     29  C   UNL     1       6.494  -0.300  22.318  0.00  0.00    +0.000 C 
ATOM     30  C   UNL     1       5.739   0.269  21.131  0.00  0.00    +0.000 C 
ENDBRANCH  28  30
ENDBRANCH  24  28
ENDBRANCH   1  25
BRANCH   2  31
ATOM     31  N   UNL     1       1.142   3.636  18.308  0.00  0.00    +0.000 N 
ATOM     32  H   UNL     1       1.107   2.768  17.765  0.00  0.00    +0.000 HD
ATOM     33  H   UNL     1       0.534   3.450  19.116  0.00  0.00    +0.000 HD
ENDBRANCH   2  31
TORSDOF 7
ENDMDL
MODEL 6
REMARK VINA RESULT:      -7.3      5.797     10.197
REMARK  Name = 
REMARK  10 active torsions:
REMARK  status: ('A' for Active; 'I' for Inactive)
REMARK    1  A    between atoms: C_1  and  C_2
REMARK    2  A    between atoms: C_2  and  C_3
REMARK    3  A    between atoms: C_3  and  N_4
REMARK    4  A    between atoms: C_5  and  C_7
REMARK    5  A    between atoms: C_8  and  N_9
REMARK    6  A    between atoms: N_10  and  C_11
REMARK    7  A    between atoms: C_13  and  O_14
REMARK    8  A    between atoms: O_14  and  C_15
REMARK    9  A    between atoms: C_17  and  O_18
REMARK   10  A    between atoms: O_18  and  C_19
REMARK                            x       y       z     vdW  Elec       q    Type
REMARK                         _______ _______ _______ _____ _____    ______ ____
ROOT
ATOM      1  C   UNL     1      -0.183  10.368  21.390  0.00  0.00    +0.000 A 
ATOM      2  C   UNL     1       0.139  11.434  20.502  0.00  0.00    +0.000 A 
ATOM      3  N   UNL     1      -0.126  10.804  19.301  0.00  0.00    +0.000 N 
ATOM      4  C   UNL     1       0.727   9.756  19.386  0.00  0.00    +0.000 A 
ATOM      5  N   UNL     1       1.365   9.265  18.329  0.00  0.00    +0.000 NA
ATOM      6  C   UNL     1       2.039   8.187  18.591  0.00  0.00    +0.000 A 
ATOM      7  C   UNL     1       2.752   7.743  17.482  0.00  0.00    +0.000 A 
ATOM      8  C   UNL     1       3.552   6.637  17.550  0.00  0.00    +0.000 A 
ATOM      9  C   UNL     1       3.589   5.967  18.772  0.00  0.00    +0.000 A 
ATOM     10  C   UNL     1       2.843   6.434  19.891  0.00  0.00    +0.000 A 
ATOM     11  C   UNL     1       2.015   7.572  19.872  0.00  0.00    +0.000 A 
ATOM     12  N   UNL     1       1.254   8.083  20.969  0.00  0.00    +0.000 NA
ATOM     13  C   UNL     1       0.623   9.292  20.714  0.00  0.00    +0.000 A 
ENDROOT
BRANCH   3  14
ATOM     14  C   UNL     1      -1.320  10.771  18.523  0.00  0.00    +0.000 A 
ATOM     15  C   UNL     1      -1.363  10.165  17.279  0.00  0.00    +0.000 A 
ATOM     16  C   UNL     1      -2.554  10.219  16.542  0.00  0.00    +0.000 A 
ATOM     17  C   UNL     1      -3.662  10.936  17.031  0.00  0.00    +0.000 A 
ATOM     18  C   UNL     1      -3.608  11.568  18.267  0.00  0.00    +0.000 A 
ATOM     19  C   UNL     1      -2.456  11.453  19.020  0.00  0.00    +0.000 A 
BRANCH  16  20
ATOM     20  O   UNL     1      -2.518   9.535  15.356  0.00  0.00    +0.000 OA
ATOM     21  C   UNL     1      -3.292  10.070  14.294  0.00  0.00    +0.000 C 
ENDBRANCH  16  20
BRANCH  18  22
ATOM     22  O   UNL     1      -4.716  12.289  18.642  0.00  0.00    +0.000 OA
ATOM     23  C   UNL     1      -5.880  11.541  18.997  0.00  0.00    +0.000 C 
ENDBRANCH  18  22
ENDBRANCH   3  14
BRANCH   1  25
ATOM     24  N   UNL     1      -1.833  11.931  22.558  0.00  0.00    +0.000 N 
ATOM     25  C   UNL     1      -0.966  10.865  22.557  0.00  0.00    +0.000 C 
ATOM     26  O   UNL     1      -0.833  10.271  23.638  0.00  0.00    +0.000 OA
ATOM     27  H   UNL     1      -2.046  12.367  21.672  0.00  0.00    +0.000 HD
BRANCH  24  28
ATOM     28  C   UNL     1      -2.792  12.079  23.682  0.00  0.00    +0.000 C 
BRANCH  28  30
ATOM     29  C   UNL     1      -4.886  12.870  22.392  0.00  0.00    +0.000 C 
ATOM     30  C   UNL     1      -3.942  13.107  23.556  0.00  0.00    +0.000 C 
ENDBRANCH  28  30
ENDBRANCH  24  28
ENDBRANCH   1  25
BRANCH   2  31
ATOM     31  N   UNL     1       1.264  12.221  20.682  0.00  0.00    +0.000 N 
ATOM     32  H   UNL     1       1.445  12.456  21.662  0.00  0.00    +0.000 HD
ATOM     33  H   UNL     1       2.133  11.770  20.367  0.00  0.00    +0.000 HD
ENDBRANCH   2  31
TORSDOF 7
ENDMDL
MODEL 7
REMARK VINA RESULT:      -7.2      5.901     10.146
REMARK  Name = 
REMARK  10 active torsions:
REMARK  status: ('A' for Active; 'I' for Inactive)
REMARK    1  A    between atoms: C_1  and  C_2
REMARK    2  A    between atoms: C_2  and  C_3
REMARK    3  A    between atoms: C_3  and  N_4
REMARK    4  A    between atoms: C_5  and  C_7
REMARK    5  A    between atoms: C_8  and  N_9
REMARK    6  A    between atoms: N_10  and  C_11
REMARK    7  A    between atoms: C_13  and  O_14
REMARK    8  A    between atoms: O_14  and  C_15
REMARK    9  A    between atoms: C_17  and  O_18
REMARK   10  A    between atoms: O_18  and  C_19
REMARK                            x       y       z     vdW  Elec       q    Type
REMARK                         _______ _______ _______ _____ _____    ______ ____
ROOT
ATOM      1  C   UNL     1      -0.302  10.607  21.373  0.00  0.00    +0.000 A 
ATOM      2  C   UNL     1       0.045  11.678  20.501  0.00  0.00    +0.000 A 
ATOM      3  N   UNL     1      -0.215  11.067  19.290  0.00  0.00    +0.000 N 
ATOM      4  C   UNL     1       0.621  10.005  19.371  0.00  0.00    +0.000 A 
ATOM      5  N   UNL     1       1.263   9.517  18.316  0.00  0.00    +0.000 NA
ATOM      6  C   UNL     1       1.919   8.427  18.572  0.00  0.00    +0.000 A 
ATOM      7  C   UNL     1       2.637   7.986  17.466  0.00  0.00    +0.000 A 
ATOM      8  C   UNL     1       3.420   6.867  17.529  0.00  0.00    +0.000 A 
ATOM      9  C   UNL     1       3.434   6.182  18.743  0.00  0.00    +0.000 A 
ATOM     10  C   UNL     1       2.682   6.647  19.860  0.00  0.00    +0.000 A 
ATOM     11  C   UNL     1       1.872   7.797  19.845  0.00  0.00    +0.000 A 
ATOM     12  N   UNL     1       1.107   8.305  20.940  0.00  0.00    +0.000 NA
ATOM     13  C   UNL     1       0.496   9.527  20.693  0.00  0.00    +0.000 A 
ENDROOT
BRANCH   3  14
ATOM     14  C   UNL     1      -1.402  11.060  18.499  0.00  0.00    +0.000 A 
ATOM     15  C   UNL     1      -2.576  11.644  18.941  0.00  0.00    +0.000 A 
ATOM     16  C   UNL     1      -3.721  11.550  18.138  0.00  0.00    +0.000 A 
ATOM     17  C   UNL     1      -3.691  10.816  16.939  0.00  0.00    +0.000 A 
ATOM     18  C   UNL     1      -2.519  10.205  16.510  0.00  0.00    +0.000 A 
ATOM     19  C   UNL     1      -1.376  10.360  17.269  0.00  0.00    +0.000 A 
BRANCH  16  20
ATOM     20  O   UNL     1      -4.813  12.216  18.629  0.00  0.00    +0.000 OA
ATOM     21  C   UNL     1      -6.082  11.755  18.194  0.00  0.00    +0.000 C 
ENDBRANCH  16  20
BRANCH  18  22
ATOM     22  O   UNL     1      -2.594   9.465  15.355  0.00  0.00    +0.000 OA
ATOM     23  C   UNL     1      -3.301  10.050  14.261  0.00  0.00    +0.000 C 
ENDBRANCH  18  22
ENDBRANCH   3  14
BRANCH   1  25
ATOM     24  N   UNL     1      -2.033  12.101  22.514  0.00  0.00    +0.000 N 
ATOM     25  C   UNL     1      -1.091  11.101  22.537  0.00  0.00    +0.000 C 
ATOM     26  O   UNL     1      -0.887  10.571  23.641  0.00  0.00    +0.000 OA
ATOM     27  H   UNL     1      -2.299  12.477  21.615  0.00  0.00    +0.000 HD
BRANCH  24  28
ATOM     28  C   UNL     1      -2.973  12.233  23.655  0.00  0.00    +0.000 C 
BRANCH  28  30
ATOM     29  C   UNL     1      -4.648  13.258  21.977  0.00  0.00    +0.000 C 
ATOM     30  C   UNL     1      -4.396  12.784  23.396  0.00  0.00    +0.000 C 
ENDBRANCH  28  30
ENDBRANCH  24  28
ENDBRANCH   1  25
BRANCH   2  31
ATOM     31  N   UNL     1       1.180  12.447  20.703  0.00  0.00    +0.000 N 
ATOM     32  H   UNL     1       1.030  13.446  20.537  0.00  0.00    +0.000 HD
ATOM     33  H   UNL     1       1.538  12.403  21.665  0.00  0.00    +0.000 HD
ENDBRANCH   2  31
TORSDOF 7
ENDMDL
MODEL 8
REMARK VINA RESULT:      -7.0      6.288      9.898
REMARK  Name = 
REMARK  10 active torsions:
REMARK  status: ('A' for Active; 'I' for Inactive)
REMARK    1  A    between atoms: C_1  and  C_2
REMARK    2  A    between atoms: C_2  and  C_3
REMARK    3  A    between atoms: C_3  and  N_4
REMARK    4  A    between atoms: C_5  and  C_7
REMARK    5  A    between atoms: C_8  and  N_9
REMARK    6  A    between atoms: N_10  and  C_11
REMARK    7  A    between atoms: C_13  and  O_14
REMARK    8  A    between atoms: O_14  and  C_15
REMARK    9  A    between atoms: C_17  and  O_18
REMARK   10  A    between atoms: O_18  and  C_19
REMARK                            x       y       z     vdW  Elec       q    Type
REMARK                         _______ _______ _______ _____ _____    ______ ____
ROOT
ATOM      1  C   UNL     1       0.756  10.694  19.605  0.00  0.00    +0.000 A 
ATOM      2  C   UNL     1      -0.347  11.001  20.452  0.00  0.00    +0.000 A 
ATOM      3  N   UNL     1      -1.068  11.804  19.589  0.00  0.00    +0.000 N 
ATOM      4  C   UNL     1      -0.155  12.773  19.341  0.00  0.00    +0.000 A 
ATOM      5  N   UNL     1      -0.491  14.046  19.173  0.00  0.00    +0.000 NA
ATOM      6  C   UNL     1       0.507  14.800  18.824  0.00  0.00    +0.000 A 
ATOM      7  C   UNL     1       0.135  16.136  18.729  0.00  0.00    +0.000 A 
ATOM      8  C   UNL     1       1.043  17.103  18.401  0.00  0.00    +0.000 A 
ATOM      9  C   UNL     1       2.344  16.676  18.140  0.00  0.00    +0.000 A 
ATOM     10  C   UNL     1       2.700  15.300  18.233  0.00  0.00    +0.000 A 
ATOM     11  C   UNL     1       1.803  14.271  18.577  0.00  0.00    +0.000 A 
ATOM     12  N   UNL     1       2.114  12.881  18.690  0.00  0.00    +0.000 NA
ATOM     13  C   UNL     1       1.072  12.099  19.168  0.00  0.00    +0.000 A 
ENDROOT
BRANCH   3  14
ATOM     14  C   UNL     1      -2.110  11.469  18.675  0.00  0.00    +0.000 A 
ATOM     15  C   UNL     1      -1.850  10.821  17.479  0.00  0.00    +0.000 A 
ATOM     16  C   UNL     1      -2.913  10.574  16.600  0.00  0.00    +0.000 A 
ATOM     17  C   UNL     1      -4.207  11.038  16.899  0.00  0.00    +0.000 A 
ATOM     18  C   UNL     1      -4.462  11.713  18.087  0.00  0.00    +0.000 A 
ATOM     19  C   UNL     1      -3.425  11.892  18.981  0.00  0.00    +0.000 A 
BRANCH  16  20
ATOM     20  O   UNL     1      -2.568   9.870  15.477  0.00  0.00    +0.000 OA
ATOM     21  C   UNL     1      -3.345  10.112  14.315  0.00  0.00    +0.000 C 
ENDBRANCH  16  20
BRANCH  18  22
ATOM     22  O   UNL     1      -5.741  12.176  18.273  0.00  0.00    +0.000 OA
ATOM     23  C   UNL     1      -6.775  11.195  18.355  0.00  0.00    +0.000 C 
ENDBRANCH  18  22
ENDBRANCH   3  14
BRANCH   1  25
ATOM     24  N   UNL     1       1.856   8.534  18.795  0.00  0.00    +0.000 N 
ATOM     25  C   UNL     1       1.119   9.252  19.706  0.00  0.00    +0.000 C 
ATOM     26  O   UNL     1       0.725   8.625  20.702  0.00  0.00    +0.000 OA
ATOM     27  H   UNL     1       2.282   9.039  18.030  0.00  0.00    +0.000 HD
BRANCH  24  28
ATOM     28  C   UNL     1       2.429   7.226  19.201  0.00  0.00    +0.000 C 
BRANCH  28  30
ATOM     29  C   UNL     1       2.056   4.723  18.680  0.00  0.00    +0.000 C 
ATOM     30  C   UNL     1       2.495   6.081  18.163  0.00  0.00    +0.000 C 
ENDBRANCH  28  30
ENDBRANCH  24  28
ENDBRANCH   1  25
BRANCH   2  31
ATOM     31  N   UNL     1      -0.174  11.334  21.785  0.00  0.00    +0.000 N 
ATOM     32  H   UNL     1       0.801  11.526  22.035  0.00  0.00    +0.000 HD
ATOM     33  H   UNL     1      -0.676  12.187  22.062  0.00  0.00    +0.000 HD
ENDBRANCH   2  31
TORSDOF 7
ENDMDL
MODEL 9
REMARK VINA RESULT:      -6.9      6.849     11.305
REMARK  Name = 
REMARK  10 active torsions:
REMARK  status: ('A' for Active; 'I' for Inactive)
REMARK    1  A    between atoms: C_1  and  C_2
REMARK    2  A    between atoms: C_2  and  C_3
REMARK    3  A    between atoms: C_3  and  N_4
REMARK    4  A    between atoms: C_5  and  C_7
REMARK    5  A    between atoms: C_8  and  N_9
REMARK    6  A    between atoms: N_10  and  C_11
REMARK    7  A    between atoms: C_13  and  O_14
REMARK    8  A    between atoms: O_14  and  C_15
REMARK    9  A    between atoms: C_17  and  O_18
REMARK   10  A    between atoms: O_18  and  C_19
REMARK                            x       y       z     vdW  Elec       q    Type
REMARK                         _______ _______ _______ _____ _____    ______ ____
ROOT
ATOM      1  C   UNL     1      -1.116  11.931  21.464  0.00  0.00    +0.000 A 
ATOM      2  C   UNL     1      -0.878  12.841  20.394  0.00  0.00    +0.000 A 
ATOM      3  N   UNL     1      -1.213  12.022  19.333  0.00  0.00    +0.000 N 
ATOM      4  C   UNL     1      -0.337  11.008  19.525  0.00  0.00    +0.000 A 
ATOM      5  N   UNL     1       0.235  10.357  18.518  0.00  0.00    +0.000 NA
ATOM      6  C   UNL     1       0.947   9.341  18.901  0.00  0.00    +0.000 A 
ATOM      7  C   UNL     1       1.588   8.729  17.830  0.00  0.00    +0.000 A 
ATOM      8  C   UNL     1       2.412   7.655  18.018  0.00  0.00    +0.000 A 
ATOM      9  C   UNL     1       2.548   7.192  19.326  0.00  0.00    +0.000 A 
ATOM     10  C   UNL     1       1.872   7.829  20.406  0.00  0.00    +0.000 A 
ATOM     11  C   UNL     1       1.024   8.943  20.263  0.00  0.00    +0.000 A 
ATOM     12  N   UNL     1       0.332   9.619  21.315  0.00  0.00    +0.000 NA
ATOM     13  C   UNL     1      -0.338  10.766  20.914  0.00  0.00    +0.000 A 
ENDROOT
BRANCH   3  14
ATOM     14  C   UNL     1      -2.458  11.854  18.659  0.00  0.00    +0.000 A 
ATOM     15  C   UNL     1      -2.522  11.489  17.325  0.00  0.00    +0.000 A 
ATOM     16  C   UNL     1      -3.777  11.398  16.709  0.00  0.00    +0.000 A 
ATOM     17  C   UNL     1      -4.944  11.738  17.417  0.00  0.00    +0.000 A 
ATOM     18  C   UNL     1      -4.877  12.132  18.748  0.00  0.00    +0.000 A 
ATOM     19  C   UNL     1      -3.645  12.152  19.370  0.00  0.00    +0.000 A 
BRANCH  16  20
ATOM     20  O   UNL     1      -3.740  10.965  15.410  0.00  0.00    +0.000 OA
ATOM     21  C   UNL     1      -2.884   9.868  15.133  0.00  0.00    +0.000 C 
ENDBRANCH  16  20
BRANCH  18  22
ATOM     22  O   UNL     1      -6.059  12.496  19.344  0.00  0.00    +0.000 OA
ATOM     23  C   UNL     1      -7.261  12.025  18.734  0.00  0.00    +0.000 C 
ENDBRANCH  18  22
ENDBRANCH   3  14
BRANCH   1  25
ATOM     24  N   UNL     1      -3.176  12.562  22.838  0.00  0.00    +0.000 N 
ATOM     25  C   UNL     1      -1.825  12.605  22.588  0.00  0.00    +0.000 C 
ATOM     26  O   UNL     1      -1.146  13.275  23.382  0.00  0.00    +0.000 OA
ATOM     27  H   UNL     1      -3.740  11.940  22.276  0.00  0.00    +0.000 HD
BRANCH  24  28
ATOM     28  C   UNL     1      -3.676  12.978  24.173  0.00  0.00    +0.000 C 
BRANCH  28  30
ATOM     29  C   UNL     1      -6.243  12.689  24.158  0.00  0.00    +0.000 C 
ATOM     30  C   UNL     1      -4.917  12.268  24.764  0.00  0.00    +0.000 C 
ENDBRANCH  28  30
ENDBRANCH  24  28
ENDBRANCH   1  25
BRANCH   2  31
ATOM     31  N   UNL     1       0.242  13.655  20.363  0.00  0.00    +0.000 N 
ATOM     32  H   UNL     1       0.049  14.625  20.630  0.00  0.00    +0.000 HD
ATOM     33  H   UNL     1       0.982  13.359  21.012  0.00  0.00    +0.000 HD
ENDBRANCH   2  31
TORSDOF 7
ENDMDL
