MODEL 1
REMARK VINA RESULT:      -6.8      0.000      0.000
REMARK  Name = 
REMARK  7 active torsions:
REMARK  status: ('A' for Active; 'I' for Inactive)
REMARK    1  A    between atoms: C_1  and  C_2
REMARK    2  A    between atoms: C_2  and  C_4
REMARK    3  A    between atoms: C_7  and  N_8
REMARK    4  A    between atoms: C_13  and  C_14
REMARK    5  A    between atoms: C_13  and  C_16
REMARK    6  A    between atoms: C_14  and  O_15
REMARK    7  A    between atoms: C_16  and  O_17
REMARK                            x       y       z     vdW  Elec       q    Type
REMARK                         _______ _______ _______ _____ _____    ______ ____
ROOT
ATOM      1  N   UNL     1       3.154   6.130  18.373  0.00  0.00    +0.000 N 
ATOM      2  C   UNL     1       4.376   6.054  17.769  0.00  0.00    +0.000 C 
ATOM      3  N   UNL     1       5.278   6.964  17.649  0.00  0.00    +0.000 NA
ATOM      4  C   UNL     1       6.388   6.570  16.956  0.00  0.00    +0.000 C 
ATOM      5  O   UNL     1       7.359   7.300  16.775  0.00  0.00    +0.000 OA
ATOM      6  C   UNL     1       6.376   5.117  16.522  0.00  0.00    +0.000 C 
ATOM      7  S   UNL     1       4.724   4.505  17.029  0.00  0.00    +0.000 S 
ATOM      8  H   UNL     1       2.589   5.293  18.312  0.00  0.00    +0.000 HD
ENDROOT
BRANCH   1  12
ATOM      9  C   UNL     1       0.934   9.575  19.418  0.00  0.00    +0.000 A 
ATOM     10  C   UNL     1       1.284   8.625  20.382  0.00  0.00    +0.000 A 
ATOM     11  C   UNL     1       2.052   7.510  20.026  0.00  0.00    +0.000 A 
ATOM     12  C   UNL     1       2.458   7.308  18.699  0.00  0.00    +0.000 A 
ATOM     13  C   UNL     1       2.114   8.285  17.755  0.00  0.00    +0.000 A 
ATOM     14  C   UNL     1       1.354   9.403  18.101  0.00  0.00    +0.000 A 
BRANCH   9  16
ATOM     15  C   UNL     1      -1.054  11.133  18.963  0.00  0.00    +0.000 C 
ATOM     16  C   UNL     1       0.121  10.749  19.824  0.00  0.00    +0.000 C 
ATOM     17  O   UNL     1       0.433  11.391  20.824  0.00  0.00    +0.000 OA
ENDBRANCH   9  16
ENDBRANCH   1  12
BRANCH   6  18
ATOM     18  C   UNL     1       7.507   4.397  17.265  0.00  0.00    +0.000 C 
BRANCH  18  19
ATOM     19  O   UNL     1       7.744   4.916  18.575  0.00  0.00    +0.000 OA
ATOM     20  H   UNL     1       7.088   5.616  18.752  0.00  0.00    +0.000 HD
ENDBRANCH  18  19
ENDBRANCH   6  18
BRANCH   6  21
ATOM     21  C   UNL     1       6.560   5.038  15.004  0.00  0.00    +0.000 C 
BRANCH  21  22
ATOM     22  O   UNL     1       7.848   5.482  14.570  0.00  0.00    +0.000 OA
ATOM     23  H   UNL     1       8.140   4.896  13.849  0.00  0.00    +0.000 HD
ENDBRANCH  21  22
ENDBRANCH   6  21
TORSDOF 6
ENDMDL
MODEL 2
REMARK VINA RESULT:      -6.8      0.263      1.105
REMARK  Name = 
REMARK  7 active torsions:
REMARK  status: ('A' for Active; 'I' for Inactive)
REMARK    1  A    between atoms: C_1  and  C_2
REMARK    2  A    between atoms: C_2  and  C_4
REMARK    3  A    between atoms: C_7  and  N_8
REMARK    4  A    between atoms: C_13  and  C_14
REMARK    5  A    between atoms: C_13  and  C_16
REMARK    6  A    between atoms: C_14  and  O_15
REMARK    7  A    between atoms: C_16  and  O_17
REMARK                            x       y       z     vdW  Elec       q    Type
REMARK                         _______ _______ _______ _____ _____    ______ ____
ROOT
ATOM      1  N   UNL     1       3.259   5.990  18.549  0.00  0.00    +0.000 N 
ATOM      2  C   UNL     1       4.472   5.952  17.925  0.00  0.00    +0.000 C 
ATOM      3  N   UNL     1       5.314   6.907  17.733  0.00  0.00    +0.000 NA
ATOM      4  C   UNL     1       6.434   6.539  17.040  0.00  0.00    +0.000 C 
ATOM      5  O   UNL     1       7.355   7.315  16.795  0.00  0.00    +0.000 OA
ATOM      6  C   UNL     1       6.503   5.065  16.692  0.00  0.00    +0.000 C 
ATOM      7  S   UNL     1       4.901   4.386  17.270  0.00  0.00    +0.000 S 
ATOM      8  H   UNL     1       2.745   5.119  18.551  0.00  0.00    +0.000 HD
ENDROOT
BRANCH   1  12
ATOM      9  C   UNL     1       1.098   9.547  19.305  0.00  0.00    +0.000 A 
ATOM     10  C   UNL     1       1.551   9.240  18.019  0.00  0.00    +0.000 A 
ATOM     11  C   UNL     1       2.231   8.041  17.779  0.00  0.00    +0.000 A 
ATOM     12  C   UNL     1       2.498   7.142  18.821  0.00  0.00    +0.000 A 
ATOM     13  C   UNL     1       2.015   7.460  20.098  0.00  0.00    +0.000 A 
ATOM     14  C   UNL     1       1.330   8.651  20.346  0.00  0.00    +0.000 A 
BRANCH   9  16
ATOM     15  C   UNL     1      -0.712  11.208  18.563  0.00  0.00    +0.000 C 
ATOM     16  C   UNL     1       0.377  10.826  19.531  0.00  0.00    +0.000 C 
ATOM     17  O   UNL     1       0.696  11.548  20.471  0.00  0.00    +0.000 OA
ENDBRANCH   9  16
ENDBRANCH   1  12
BRANCH   6  18
ATOM     18  C   UNL     1       7.690   4.460  17.452  0.00  0.00    +0.000 C 
BRANCH  18  19
ATOM     19  O   UNL     1       7.861   5.005  18.761  0.00  0.00    +0.000 OA
ATOM     20  H   UNL     1       7.359   4.453  19.391  0.00  0.00    +0.000 HD
ENDBRANCH  18  19
ENDBRANCH   6  18
BRANCH   6  21
ATOM     21  C   UNL     1       6.665   4.906  15.177  0.00  0.00    +0.000 C 
BRANCH  21  22
ATOM     22  O   UNL     1       7.852   5.519  14.672  0.00  0.00    +0.000 OA
ATOM     23  H   UNL     1       8.184   4.971  13.938  0.00  0.00    +0.000 HD
ENDBRANCH  21  22
ENDBRANCH   6  21
TORSDOF 6
ENDMDL
MODEL 3
REMARK VINA RESULT:      -6.6      3.600      4.322
REMARK  Name = 
REMARK  7 active torsions:
REMARK  status: ('A' for Active; 'I' for Inactive)
REMARK    1  A    between atoms: C_1  and  C_2
REMARK    2  A    between atoms: C_2  and  C_4
REMARK    3  A    between atoms: C_7  and  N_8
REMARK    4  A    between atoms: C_13  and  C_14
REMARK    5  A    between atoms: C_13  and  C_16
REMARK    6  A    between atoms: C_14  and  O_15
REMARK    7  A    between atoms: C_16  and  O_17
REMARK                            x       y       z     vdW  Elec       q    Type
REMARK                         _______ _______ _______ _____ _____    ______ ____
ROOT
ATOM      1  N   UNL     1       3.176   6.587  18.661  0.00  0.00    +0.000 N 
ATOM      2  C   UNL     1       2.910   5.294  19.008  0.00  0.00    +0.000 C 
ATOM      3  N   UNL     1       1.780   4.748  19.293  0.00  0.00    +0.000 NA
ATOM      4  C   UNL     1       1.863   3.426  19.631  0.00  0.00    +0.000 C 
ATOM      5  O   UNL     1       0.879   2.741  19.901  0.00  0.00    +0.000 OA
ATOM      6  C   UNL     1       3.257   2.839  19.539  0.00  0.00    +0.000 C 
ATOM      7  S   UNL     1       4.325   4.266  19.111  0.00  0.00    +0.000 S 
ATOM      8  H   UNL     1       4.153   6.805  18.517  0.00  0.00    +0.000 HD
ENDROOT
BRANCH   1  12
ATOM      9  C   UNL     1       0.527   9.813  19.350  0.00  0.00    +0.000 A 
ATOM     10  C   UNL     1       0.943   8.986  20.399  0.00  0.00    +0.000 A 
ATOM     11  C   UNL     1       1.849   7.948  20.160  0.00  0.00    +0.000 A 
ATOM     12  C   UNL     1       2.334   7.695  18.868  0.00  0.00    +0.000 A 
ATOM     13  C   UNL     1       1.921   8.550  17.838  0.00  0.00    +0.000 A 
ATOM     14  C   UNL     1       1.021   9.593  18.067  0.00  0.00    +0.000 A 
BRANCH   9  16
ATOM     15  C   UNL     1      -1.024  11.656  18.465  0.00  0.00    +0.000 C 
ATOM     16  C   UNL     1      -0.434  10.909  19.633  0.00  0.00    +0.000 C 
ATOM     17  O   UNL     1      -0.704  11.199  20.795  0.00  0.00    +0.000 OA
ENDBRANCH   9  16
ENDBRANCH   1  12
BRANCH   6  18
ATOM     18  C   UNL     1       3.246   1.779  18.430  0.00  0.00    +0.000 C 
BRANCH  18  19
ATOM     19  O   UNL     1       2.172   1.942  17.501  0.00  0.00    +0.000 OA
ATOM     20  H   UNL     1       1.776   2.824  17.642  0.00  0.00    +0.000 HD
ENDBRANCH  18  19
ENDBRANCH   6  18
BRANCH   6  21
ATOM     21  C   UNL     1       3.646   2.234  20.891  0.00  0.00    +0.000 C 
BRANCH  21  22
ATOM     22  O   UNL     1       2.744   2.582  21.943  0.00  0.00    +0.000 OA
ATOM     23  H   UNL     1       3.266   2.718  22.753  0.00  0.00    +0.000 HD
ENDBRANCH  21  22
ENDBRANCH   6  21
TORSDOF 6
ENDMDL
MODEL 4
REMARK VINA RESULT:      -6.6      3.326      4.130
REMARK  Name = 
REMARK  7 active torsions:
REMARK  status: ('A' for Active; 'I' for Inactive)
REMARK    1  A    between atoms: C_1  and  C_2
REMARK    2  A    between atoms: C_2  and  C_4
REMARK    3  A    between atoms: C_7  and  N_8
REMARK    4  A    between atoms: C_13  and  C_14
REMARK    5  A    between atoms: C_13  and  C_16
REMARK    6  A    between atoms: C_14  and  O_15
REMARK    7  A    between atoms: C_16  and  O_17
REMARK                            x       y       z     vdW  Elec       q    Type
REMARK                         _______ _______ _______ _____ _____    ______ ____
ROOT
ATOM      1  N   UNL     1       3.157   6.552  18.468  0.00  0.00    +0.000 N 
ATOM      2  C   UNL     1       3.012   5.245  18.832  0.00  0.00    +0.000 C 
ATOM      3  N   UNL     1       1.971   4.642  19.290  0.00  0.00    +0.000 NA
ATOM      4  C   UNL     1       2.169   3.323  19.587  0.00  0.00    +0.000 C 
ATOM      5  O   UNL     1       1.276   2.589  20.003  0.00  0.00    +0.000 OA
ATOM      6  C   UNL     1       3.554   2.804  19.257  0.00  0.00    +0.000 C 
ATOM      7  S   UNL     1       4.470   4.286  18.684  0.00  0.00    +0.000 S 
ATOM      8  H   UNL     1       4.086   6.818  18.169  0.00  0.00    +0.000 HD
ENDROOT
BRANCH   1  12
ATOM      9  C   UNL     1       0.728   9.861  19.491  0.00  0.00    +0.000 A 
ATOM     10  C   UNL     1       1.147   9.656  18.173  0.00  0.00    +0.000 A 
ATOM     11  C   UNL     1       1.918   8.535  17.845  0.00  0.00    +0.000 A 
ATOM     12  C   UNL     1       2.310   7.617  18.829  0.00  0.00    +0.000 A 
ATOM     13  C   UNL     1       1.860   7.830  20.139  0.00  0.00    +0.000 A 
ATOM     14  C   UNL     1       1.085   8.942  20.475  0.00  0.00    +0.000 A 
BRANCH   9  16
ATOM     15  C   UNL     1      -1.413  11.223  19.106  0.00  0.00    +0.000 C 
ATOM     16  C   UNL     1      -0.092  11.057  19.810  0.00  0.00    +0.000 C 
ATOM     17  O   UNL     1       0.330  11.889  20.609  0.00  0.00    +0.000 OA
ENDBRANCH   9  16
ENDBRANCH   1  12
BRANCH   6  18
ATOM     18  C   UNL     1       3.409   1.755  18.147  0.00  0.00    +0.000 C 
BRANCH  18  19
ATOM     19  O   UNL     1       2.191   1.875  17.410  0.00  0.00    +0.000 OA
ATOM     20  H   UNL     1       2.379   1.676  16.473  0.00  0.00    +0.000 HD
ENDBRANCH  18  19
ENDBRANCH   6  18
BRANCH   6  21
ATOM     21  C   UNL     1       4.189   2.207  20.516  0.00  0.00    +0.000 C 
BRANCH  21  22
ATOM     22  O   UNL     1       5.330   1.393  20.239  0.00  0.00    +0.000 OA
ATOM     23  H   UNL     1       5.585   1.539  19.311  0.00  0.00    +0.000 HD
ENDBRANCH  21  22
ENDBRANCH   6  21
TORSDOF 6
ENDMDL
MODEL 5
REMARK VINA RESULT:      -6.5      3.360      4.039
REMARK  Name = 
REMARK  7 active torsions:
REMARK  status: ('A' for Active; 'I' for Inactive)
REMARK    1  A    between atoms: C_1  and  C_2
REMARK    2  A    between atoms: C_2  and  C_4
REMARK    3  A    between atoms: C_7  and  N_8
REMARK    4  A    between atoms: C_13  and  C_14
REMARK    5  A    between atoms: C_13  and  C_16
REMARK    6  A    between atoms: C_14  and  O_15
REMARK    7  A    between atoms: C_16  and  O_17
REMARK                            x       y       z     vdW  Elec       q    Type
REMARK                         _______ _______ _______ _____ _____    ______ ____
ROOT
ATOM      1  N   UNL     1       3.162   6.602  18.371  0.00  0.00    +0.000 N 
ATOM      2  C   UNL     1       3.011   5.303  18.765  0.00  0.00    +0.000 C 
ATOM      3  N   UNL     1       1.978   4.726  19.271  0.00  0.00    +0.000 NA
ATOM      4  C   UNL     1       2.166   3.409  19.586  0.00  0.00    +0.000 C 
ATOM      5  O   UNL     1       1.277   2.698  20.048  0.00  0.00    +0.000 OA
ATOM      6  C   UNL     1       3.530   2.863  19.216  0.00  0.00    +0.000 C 
ATOM      7  S   UNL     1       4.447   4.318  18.582  0.00  0.00    +0.000 S 
ATOM      8  H   UNL     1       4.084   6.847  18.034  0.00  0.00    +0.000 HD
ENDROOT
BRANCH   1  12
ATOM      9  C   UNL     1       0.595   9.750  19.549  0.00  0.00    +0.000 A 
ATOM     10  C   UNL     1       1.065   8.818  20.480  0.00  0.00    +0.000 A 
ATOM     11  C   UNL     1       1.944   7.806  20.080  0.00  0.00    +0.000 A 
ATOM     12  C   UNL     1       2.346   7.686  18.742  0.00  0.00    +0.000 A 
ATOM     13  C   UNL     1       1.880   8.644  17.832  0.00  0.00    +0.000 A 
ATOM     14  C   UNL     1       1.007   9.661  18.222  0.00  0.00    +0.000 A 
BRANCH   9  16
ATOM     15  C   UNL     1       0.017  11.587  21.246  0.00  0.00    +0.000 C 
ATOM     16  C   UNL     1      -0.336  10.815  20.001  0.00  0.00    +0.000 C 
ATOM     17  O   UNL     1      -1.373  11.024  19.377  0.00  0.00    +0.000 OA
ENDBRANCH   9  16
ENDBRANCH   1  12
BRANCH   6  18
ATOM     18  C   UNL     1       3.329   1.796  18.132  0.00  0.00    +0.000 C 
BRANCH  18  19
ATOM     19  O   UNL     1       2.092   1.930  17.429  0.00  0.00    +0.000 OA
ATOM     20  H   UNL     1       2.051   2.829  17.049  0.00  0.00    +0.000 HD
ENDBRANCH  18  19
ENDBRANCH   6  18
BRANCH   6  21
ATOM     21  C   UNL     1       4.201   2.278  20.463  0.00  0.00    +0.000 C 
BRANCH  21  22
ATOM     22  O   UNL     1       5.308   1.429  20.159  0.00  0.00    +0.000 OA
ATOM     23  H   UNL     1       5.513   0.906  20.955  0.00  0.00    +0.000 HD
ENDBRANCH  21  22
ENDBRANCH   6  21
TORSDOF 6
ENDMDL
MODEL 6
REMARK VINA RESULT:      -6.5      3.954      7.739
REMARK  Name = 
REMARK  7 active torsions:
REMARK  status: ('A' for Active; 'I' for Inactive)
REMARK    1  A    between atoms: C_1  and  C_2
REMARK    2  A    between atoms: C_2  and  C_4
REMARK    3  A    between atoms: C_7  and  N_8
REMARK    4  A    between atoms: C_13  and  C_14
REMARK    5  A    between atoms: C_13  and  C_16
REMARK    6  A    between atoms: C_14  and  O_15
REMARK    7  A    between atoms: C_16  and  O_17
REMARK                            x       y       z     vdW  Elec       q    Type
REMARK                         _______ _______ _______ _____ _____    ______ ____
ROOT
ATOM      1  N   UNL     1       5.341   3.581  17.838  0.00  0.00    +0.000 N 
ATOM      2  C   UNL     1       4.017   3.678  18.157  0.00  0.00    +0.000 C 
ATOM      3  N   UNL     1       3.016   3.928  17.388  0.00  0.00    +0.000 NA
ATOM      4  C   UNL     1       1.811   3.985  18.033  0.00  0.00    +0.000 C 
ATOM      5  O   UNL     1       0.748   4.181  17.450  0.00  0.00    +0.000 OA
ATOM      6  C   UNL     1       1.877   3.676  19.516  0.00  0.00    +0.000 C 
ATOM      7  S   UNL     1       3.666   3.470  19.859  0.00  0.00    +0.000 S 
ATOM      8  H   UNL     1       5.963   3.414  18.617  0.00  0.00    +0.000 HD
ENDROOT
BRANCH   1  12
ATOM      9  C   UNL     1       7.232   4.883  14.285  0.00  0.00    +0.000 A 
ATOM     10  C   UNL     1       6.222   3.917  14.250  0.00  0.00    +0.000 A 
ATOM     11  C   UNL     1       5.580   3.526  15.430  0.00  0.00    +0.000 A 
ATOM     12  C   UNL     1       5.954   4.068  16.668  0.00  0.00    +0.000 A 
ATOM     13  C   UNL     1       6.953   5.050  16.676  0.00  0.00    +0.000 A 
ATOM     14  C   UNL     1       7.595   5.452  15.503  0.00  0.00    +0.000 A 
BRANCH   9  16
ATOM     15  C   UNL     1       7.389   4.680  11.731  0.00  0.00    +0.000 C 
ATOM     16  C   UNL     1       7.894   5.281  13.017  0.00  0.00    +0.000 C 
ATOM     17  O   UNL     1       8.843   6.060  13.043  0.00  0.00    +0.000 OA
ENDBRANCH   9  16
ENDBRANCH   1  12
BRANCH   6  18
ATOM     18  C   UNL     1       1.093   2.379  19.758  0.00  0.00    +0.000 C 
BRANCH  18  19
ATOM     19  O   UNL     1       1.132   1.478  18.650  0.00  0.00    +0.000 OA
ATOM     20  H   UNL     1       0.921   0.582  18.975  0.00  0.00    +0.000 HD
ENDBRANCH  18  19
ENDBRANCH   6  18
BRANCH   6  21
ATOM     21  C   UNL     1       1.286   4.846  20.307  0.00  0.00    +0.000 C 
BRANCH  21  22
ATOM     22  O   UNL     1       2.273   5.609  21.003  0.00  0.00    +0.000 OA
ATOM     23  H   UNL     1       2.814   6.076  20.341  0.00  0.00    +0.000 HD
ENDBRANCH  21  22
ENDBRANCH   6  21
TORSDOF 6
ENDMDL
MODEL 7
REMARK VINA RESULT:      -6.5      4.482      7.713
REMARK  Name = 
REMARK  7 active torsions:
REMARK  status: ('A' for Active; 'I' for Inactive)
REMARK    1  A    between atoms: C_1  and  C_2
REMARK    2  A    between atoms: C_2  and  C_4
REMARK    3  A    between atoms: C_7  and  N_8
REMARK    4  A    between atoms: C_13  and  C_14
REMARK    5  A    between atoms: C_13  and  C_16
REMARK    6  A    between atoms: C_14  and  O_15
REMARK    7  A    between atoms: C_16  and  O_17
REMARK                            x       y       z     vdW  Elec       q    Type
REMARK                         _______ _______ _______ _____ _____    ______ ____
ROOT
ATOM      1  N   UNL     1       5.048   5.174  18.174  0.00  0.00    +0.000 N 
ATOM      2  C   UNL     1       4.084   4.392  18.744  0.00  0.00    +0.000 C 
ATOM      3  N   UNL     1       3.700   3.210  18.412  0.00  0.00    +0.000 NA
ATOM      4  C   UNL     1       2.682   2.713  19.176  0.00  0.00    +0.000 C 
ATOM      5  O   UNL     1       2.214   1.588  19.019  0.00  0.00    +0.000 OA
ATOM      6  C   UNL     1       2.247   3.619  20.311  0.00  0.00    +0.000 C 
ATOM      7  S   UNL     1       3.244   5.141  20.085  0.00  0.00    +0.000 S 
ATOM      8  H   UNL     1       5.156   6.093  18.580  0.00  0.00    +0.000 HD
ENDROOT
BRANCH   1  12
ATOM      9  C   UNL     1       6.753   4.851  14.316  0.00  0.00    +0.000 A 
ATOM     10  C   UNL     1       7.506   5.316  15.399  0.00  0.00    +0.000 A 
ATOM     11  C   UNL     1       6.937   5.380  16.676  0.00  0.00    +0.000 A 
ATOM     12  C   UNL     1       5.602   5.011  16.890  0.00  0.00    +0.000 A 
ATOM     13  C   UNL     1       4.874   4.527  15.795  0.00  0.00    +0.000 A 
ATOM     14  C   UNL     1       5.434   4.454  14.518  0.00  0.00    +0.000 A 
BRANCH   9  16
ATOM     15  C   UNL     1       6.959   3.690  12.037  0.00  0.00    +0.000 C 
ATOM     16  C   UNL     1       7.383   4.791  12.973  0.00  0.00    +0.000 C 
ATOM     17  O   UNL     1       8.243   5.612  12.665  0.00  0.00    +0.000 OA
ENDBRANCH   9  16
ENDBRANCH   1  12
BRANCH   6  18
ATOM     18  C   UNL     1       2.577   2.909  21.630  0.00  0.00    +0.000 C 
BRANCH  18  19
ATOM     19  O   UNL     1       1.464   2.211  22.191  0.00  0.00    +0.000 OA
ATOM     20  H   UNL     1       1.250   2.618  23.053  0.00  0.00    +0.000 HD
ENDBRANCH  18  19
ENDBRANCH   6  18
BRANCH   6  21
ATOM     21  C   UNL     1       0.748   3.907  20.187  0.00  0.00    +0.000 C 
BRANCH  21  22
ATOM     22  O   UNL     1      -0.005   2.781  19.733  0.00  0.00    +0.000 OA
ATOM     23  H   UNL     1      -0.347   2.987  18.845  0.00  0.00    +0.000 HD
ENDBRANCH  21  22
ENDBRANCH   6  21
TORSDOF 6
ENDMDL
MODEL 8
REMARK VINA RESULT:      -6.4      4.555      7.575
REMARK  Name = 
REMARK  7 active torsions:
REMARK  status: ('A' for Active; 'I' for Inactive)
REMARK    1  A    between atoms: C_1  and  C_2
REMARK    2  A    between atoms: C_2  and  C_4
REMARK    3  A    between atoms: C_7  and  N_8
REMARK    4  A    between atoms: C_13  and  C_14
REMARK    5  A    between atoms: C_13  and  C_16
REMARK    6  A    between atoms: C_14  and  O_15
REMARK    7  A    between atoms: C_16  and  O_17
REMARK                            x       y       z     vdW  Elec       q    Type
REMARK                         _______ _______ _______ _____ _____    ______ ____
ROOT
ATOM      1  N   UNL     1       4.790   5.367  18.449  0.00  0.00    +0.000 N 
ATOM      2  C   UNL     1       3.947   4.407  18.932  0.00  0.00    +0.000 C 
ATOM      3  N   UNL     1       3.859   3.166  18.601  0.00  0.00    +0.000 NA
ATOM      4  C   UNL     1       2.881   2.475  19.261  0.00  0.00    +0.000 C 
ATOM      5  O   UNL     1       2.679   1.276  19.092  0.00  0.00    +0.000 OA
ATOM      6  C   UNL     1       2.135   3.283  20.304  0.00  0.00    +0.000 C 
ATOM      7  S   UNL     1       2.815   4.978  20.139  0.00  0.00    +0.000 S 
ATOM      8  H   UNL     1       4.655   6.293  18.832  0.00  0.00    +0.000 HD
ENDROOT
BRANCH   1  12
ATOM      9  C   UNL     1       6.842   5.108  14.760  0.00  0.00    +0.000 A 
ATOM     10  C   UNL     1       5.574   5.692  14.838  0.00  0.00    +0.000 A 
ATOM     11  C   UNL     1       4.926   5.804  16.073  0.00  0.00    +0.000 A 
ATOM     12  C   UNL     1       5.516   5.309  17.245  0.00  0.00    +0.000 A 
ATOM     13  C   UNL     1       6.796   4.748  17.146  0.00  0.00    +0.000 A 
ATOM     14  C   UNL     1       7.453   4.637  15.919  0.00  0.00    +0.000 A 
BRANCH   9  16
ATOM     15  C   UNL     1       6.958   4.017  12.439  0.00  0.00    +0.000 C 
ATOM     16  C   UNL     1       7.508   5.004  13.436  0.00  0.00    +0.000 C 
ATOM     17  O   UNL     1       8.495   5.693  13.194  0.00  0.00    +0.000 OA
ENDBRANCH   9  16
ENDBRANCH   1  12
BRANCH   6  18
ATOM     18  C   UNL     1       2.444   2.673  21.677  0.00  0.00    +0.000 C 
BRANCH  18  19
ATOM     19  O   UNL     1       1.273   2.334  22.422  0.00  0.00    +0.000 OA
ATOM     20  H   UNL     1       0.791   3.158  22.629  0.00  0.00    +0.000 HD
ENDBRANCH  18  19
ENDBRANCH   6  18
BRANCH   6  21
ATOM     21  C   UNL     1       0.635   3.249  19.998  0.00  0.00    +0.000 C 
BRANCH  21  22
ATOM     22  O   UNL     1       0.320   2.512  18.815  0.00  0.00    +0.000 OA
ATOM     23  H   UNL     1       1.088   1.956  18.594  0.00  0.00    +0.000 HD
ENDBRANCH  21  22
ENDBRANCH   6  21
TORSDOF 6
ENDMDL
MODEL 9
REMARK VINA RESULT:      -6.4      3.526      4.371
REMARK  Name = 
REMARK  7 active torsions:
REMARK  status: ('A' for Active; 'I' for Inactive)
REMARK    1  A    between atoms: C_1  and  C_2
REMARK    2  A    between atoms: C_2  and  C_4
REMARK    3  A    between atoms: C_7  and  N_8
REMARK    4  A    between atoms: C_13  and  C_14
REMARK    5  A    between atoms: C_13  and  C_16
REMARK    6  A    between atoms: C_14  and  O_15
REMARK    7  A    between atoms: C_16  and  O_17
REMARK                            x       y       z     vdW  Elec       q    Type
REMARK                         _______ _______ _______ _____ _____    ______ ____
ROOT
ATOM      1  N   UNL     1       3.205   6.590  18.710  0.00  0.00    +0.000 N 
ATOM      2  C   UNL     1       2.982   5.276  19.003  0.00  0.00    +0.000 C 
ATOM      3  N   UNL     1       1.868   4.676  19.237  0.00  0.00    +0.000 NA
ATOM      4  C   UNL     1       1.995   3.346  19.529  0.00  0.00    +0.000 C 
ATOM      5  O   UNL     1       1.033   2.614  19.747  0.00  0.00    +0.000 OA
ATOM      6  C   UNL     1       3.414   2.818  19.453  0.00  0.00    +0.000 C 
ATOM      7  S   UNL     1       4.434   4.301  19.106  0.00  0.00    +0.000 S 
ATOM      8  H   UNL     1       4.176   6.851  18.600  0.00  0.00    +0.000 HD
ENDROOT
BRANCH   1  12
ATOM      9  C   UNL     1       0.644   9.901  19.319  0.00  0.00    +0.000 A 
ATOM     10  C   UNL     1       1.142   9.602  18.048  0.00  0.00    +0.000 A 
ATOM     11  C   UNL     1       1.957   8.481  17.857  0.00  0.00    +0.000 A 
ATOM     12  C   UNL     1       2.314   7.656  18.934  0.00  0.00    +0.000 A 
ATOM     13  C   UNL     1       1.784   7.963  20.195  0.00  0.00    +0.000 A 
ATOM     14  C   UNL     1       0.966   9.076  20.394  0.00  0.00    +0.000 A 
BRANCH   9  16
ATOM     15  C   UNL     1      -0.783  11.375  20.862  0.00  0.00    +0.000 C 
ATOM     16  C   UNL     1      -0.221  11.097  19.493  0.00  0.00    +0.000 C 
ATOM     17  O   UNL     1      -0.478  11.808  18.526  0.00  0.00    +0.000 OA
ENDBRANCH   9  16
ENDBRANCH   1  12
BRANCH   6  18
ATOM     18  C   UNL     1       3.473   1.801  18.306  0.00  0.00    +0.000 C 
BRANCH  18  19
ATOM     19  O   UNL     1       4.320   0.684  18.583  0.00  0.00    +0.000 OA
ATOM     20  H   UNL     1       5.147   1.017  18.982  0.00  0.00    +0.000 HD
ENDBRANCH  18  19
ENDBRANCH   6  18
BRANCH   6  21
ATOM     21  C   UNL     1       3.792   2.179  20.792  0.00  0.00    +0.000 C 
BRANCH  21  22
ATOM     22  O   UNL     1       2.884   2.504  21.846  0.00  0.00    +0.000 OA
ATOM     23  H   UNL     1       2.214   3.113  21.488  0.00  0.00    +0.000 HD
ENDBRANCH  21  22
ENDBRANCH   6  21
TORSDOF 6
ENDMDL
