MODEL 1
REMARK VINA RESULT:      -6.9      0.000      0.000
REMARK  Name = 
REMARK  6 active torsions:
REMARK  status: ('A' for Active; 'I' for Inactive)
REMARK    1  A    between atoms: C_2  and  O_3
REMARK    2  A    between atoms: C_2  and  C_4
REMARK    3  A    between atoms: C_5  and  C_6
REMARK    4  A    between atoms: C_14  and  N_15
REMARK    5  A    between atoms: N_15  and  C_16
REMARK    6  A    between atoms: C_16  and  N_18
REMARK                            x       y       z     vdW  Elec       q    Type
REMARK                         _______ _______ _______ _____ _____    ______ ____
ROOT
ATOM      1  C   UNL     1       1.213   8.645  20.037  0.00  0.00    +0.000 A 
ATOM      2  C   UNL     1       0.781   9.618  19.038  0.00  0.00    +0.000 A 
ATOM      3  C   UNL     1       1.457   9.425  17.847  0.00  0.00    +0.000 A 
ATOM      4  S   UNL     1       2.616   8.189  17.925  0.00  0.00    +0.000 S 
ATOM      5  C   UNL     1       2.132   7.753  19.497  0.00  0.00    +0.000 A 
ENDROOT
BRANCH   2   6
ATOM      6  C   UNL     1      -0.194  10.716  19.161  0.00  0.00    +0.000 A 
ATOM      7  C   UNL     1       0.073  11.818  19.992  0.00  0.00    +0.000 A 
ATOM      8  C   UNL     1      -0.887  12.810  20.208  0.00  0.00    +0.000 A 
ATOM      9  C   UNL     1      -2.135  12.712  19.603  0.00  0.00    +0.000 A 
ATOM     10  C   UNL     1      -2.399  11.656  18.735  0.00  0.00    +0.000 A 
ATOM     11  C   UNL     1      -1.427  10.680  18.495  0.00  0.00    +0.000 A 
ENDBRANCH   2   6
BRANCH   1  13
ATOM     12  O   UNL     1      -0.381   8.427  21.782  0.00  0.00    +0.000 OA
ATOM     13  C   UNL     1       0.776   8.582  21.429  0.00  0.00    +0.000 C 
BRANCH  13  14
ATOM     14  O   UNL     1       1.778   8.716  22.345  0.00  0.00    +0.000 OA
ATOM     15  H   UNL     1       2.577   8.209  22.088  0.00  0.00    +0.000 HD
ENDBRANCH  13  14
ENDBRANCH   1  13
BRANCH   5  16
ATOM     16  N   UNL     1       2.820   6.712  20.116  0.00  0.00    +0.000 N 
ATOM     17  H   UNL     1       2.804   6.690  21.131  0.00  0.00    +0.000 HD
BRANCH  16  18
ATOM     18  C   UNL     1       3.165   5.494  19.524  0.00  0.00    +0.000 C 
ATOM     19  S   UNL     1       4.749   5.054  19.137  0.00  0.00    +0.000 S 
BRANCH  18  20
ATOM     20  N   UNL     1       2.044   4.721  19.170  0.00  0.00    +0.000 N 
ATOM     21  C   UNL     1       1.137   4.095  20.153  0.00  0.00    +0.000 C 
ATOM     22  C   UNL     1       1.320   2.568  20.171  0.00  0.00    +0.000 C 
ATOM     23  O   UNL     1       1.190   1.999  18.859  0.00  0.00    +0.000 OA
ATOM     24  C   UNL     1       2.133   2.586  17.946  0.00  0.00    +0.000 C 
ATOM     25  C   UNL     1       1.884   4.095  17.838  0.00  0.00    +0.000 C 
ENDBRANCH  18  20
ENDBRANCH  16  18
ENDBRANCH   5  16
TORSDOF 6
ENDMDL
MODEL 2
REMARK VINA RESULT:      -6.8      0.126      1.011
REMARK  Name = 
REMARK  6 active torsions:
REMARK  status: ('A' for Active; 'I' for Inactive)
REMARK    1  A    between atoms: C_2  and  O_3
REMARK    2  A    between atoms: C_2  and  C_4
REMARK    3  A    between atoms: C_5  and  C_6
REMARK    4  A    between atoms: C_14  and  N_15
REMARK    5  A    between atoms: N_15  and  C_16
REMARK    6  A    between atoms: C_16  and  N_18
REMARK                            x       y       z     vdW  Elec       q    Type
REMARK                         _______ _______ _______ _____ _____    ______ ____
ROOT
ATOM      1  C   UNL     1       1.256   8.624  20.043  0.00  0.00    +0.000 A 
ATOM      2  C   UNL     1       0.796   9.587  19.047  0.00  0.00    +0.000 A 
ATOM      3  C   UNL     1       1.448   9.392  17.843  0.00  0.00    +0.000 A 
ATOM      4  S   UNL     1       2.618   8.165  17.905  0.00  0.00    +0.000 S 
ATOM      5  C   UNL     1       2.171   7.735  19.489  0.00  0.00    +0.000 A 
ENDROOT
BRANCH   2   6
ATOM      6  C   UNL     1      -0.185  10.678  19.184  0.00  0.00    +0.000 A 
ATOM      7  C   UNL     1      -1.403  10.636  18.482  0.00  0.00    +0.000 A 
ATOM      8  C   UNL     1      -2.293  11.713  18.513  0.00  0.00    +0.000 A 
ATOM      9  C   UNL     1      -1.976  12.855  19.240  0.00  0.00    +0.000 A 
ATOM     10  C   UNL     1      -0.801  12.894  19.984  0.00  0.00    +0.000 A 
ATOM     11  C   UNL     1       0.076  11.804  19.978  0.00  0.00    +0.000 A 
ENDBRANCH   2   6
BRANCH   1  13
ATOM     12  O   UNL     1      -0.297   8.386  21.822  0.00  0.00    +0.000 OA
ATOM     13  C   UNL     1       0.849   8.565  21.444  0.00  0.00    +0.000 C 
BRANCH  13  14
ATOM     14  O   UNL     1       1.865   8.736  22.339  0.00  0.00    +0.000 OA
ATOM     15  H   UNL     1       1.727   8.205  23.151  0.00  0.00    +0.000 HD
ENDBRANCH  13  14
ENDBRANCH   1  13
BRANCH   5  16
ATOM     16  N   UNL     1       2.879   6.703  20.101  0.00  0.00    +0.000 N 
ATOM     17  H   UNL     1       2.904   6.701  21.115  0.00  0.00    +0.000 HD
BRANCH  16  18
ATOM     18  C   UNL     1       3.196   5.472  19.518  0.00  0.00    +0.000 C 
ATOM     19  S   UNL     1       4.767   5.002  19.116  0.00  0.00    +0.000 S 
BRANCH  18  20
ATOM     20  N   UNL     1       2.057   4.715  19.189  0.00  0.00    +0.000 N 
ATOM     21  C   UNL     1       1.160   4.106  20.191  0.00  0.00    +0.000 C 
ATOM     22  C   UNL     1       1.321   2.576  20.211  0.00  0.00    +0.000 C 
ATOM     23  O   UNL     1       1.158   2.005  18.903  0.00  0.00    +0.000 OA
ATOM     24  C   UNL     1       2.092   2.575  17.971  0.00  0.00    +0.000 C 
ATOM     25  C   UNL     1       1.863   4.087  17.862  0.00  0.00    +0.000 C 
ENDBRANCH  18  20
ENDBRANCH  16  18
ENDBRANCH   5  16
TORSDOF 6
ENDMDL
MODEL 3
REMARK VINA RESULT:      -6.7      1.791      2.188
REMARK  Name = 
REMARK  6 active torsions:
REMARK  status: ('A' for Active; 'I' for Inactive)
REMARK    1  A    between atoms: C_2  and  O_3
REMARK    2  A    between atoms: C_2  and  C_4
REMARK    3  A    between atoms: C_5  and  C_6
REMARK    4  A    between atoms: C_14  and  N_15
REMARK    5  A    between atoms: N_15  and  C_16
REMARK    6  A    between atoms: C_16  and  N_18
REMARK                            x       y       z     vdW  Elec       q    Type
REMARK                         _______ _______ _______ _____ _____    ______ ____
ROOT
ATOM      1  C   UNL     1       1.516   8.350  19.867  0.00  0.00    +0.000 A 
ATOM      2  C   UNL     1       1.225   9.311  18.807  0.00  0.00    +0.000 A 
ATOM      3  C   UNL     1       1.950   9.011  17.667  0.00  0.00    +0.000 A 
ATOM      4  S   UNL     1       2.994   7.690  17.863  0.00  0.00    +0.000 S 
ATOM      5  C   UNL     1       2.387   7.363  19.419  0.00  0.00    +0.000 A 
ENDROOT
BRANCH   2   6
ATOM      6  C   UNL     1       0.340  10.488  18.828  0.00  0.00    +0.000 A 
ATOM      7  C   UNL     1       0.760  11.686  19.433  0.00  0.00    +0.000 A 
ATOM      8  C   UNL     1      -0.107  12.774  19.561  0.00  0.00    +0.000 A 
ATOM      9  C   UNL     1      -1.414  12.679  19.095  0.00  0.00    +0.000 A 
ATOM     10  C   UNL     1      -1.831  11.521  18.447  0.00  0.00    +0.000 A 
ATOM     11  C   UNL     1      -0.953  10.443  18.291  0.00  0.00    +0.000 A 
ENDBRANCH   2   6
BRANCH   1  13
ATOM     12  O   UNL     1      -0.183   8.283  21.523  0.00  0.00    +0.000 OA
ATOM     13  C   UNL     1       0.997   8.383  21.231  0.00  0.00    +0.000 C 
BRANCH  13  14
ATOM     14  O   UNL     1       1.947   8.544  22.197  0.00  0.00    +0.000 OA
ATOM     15  H   UNL     1       1.589   9.003  22.986  0.00  0.00    +0.000 HD
ENDBRANCH  13  14
ENDBRANCH   1  13
BRANCH   5  16
ATOM     16  N   UNL     1       2.948   6.297  20.119  0.00  0.00    +0.000 N 
ATOM     17  H   UNL     1       3.337   6.502  21.033  0.00  0.00    +0.000 HD
BRANCH  16  18
ATOM     18  C   UNL     1       2.673   4.944  19.904  0.00  0.00    +0.000 C 
ATOM     19  S   UNL     1       1.257   4.182  20.420  0.00  0.00    +0.000 S 
BRANCH  18  20
ATOM     20  N   UNL     1       3.751   4.252  19.321  0.00  0.00    +0.000 N 
ATOM     21  C   UNL     1       5.163   4.646  19.488  0.00  0.00    +0.000 C 
ATOM     22  C   UNL     1       5.727   5.228  18.181  0.00  0.00    +0.000 C 
ATOM     23  O   UNL     1       5.529   4.337  17.071  0.00  0.00    +0.000 OA
ATOM     24  C   UNL     1       4.135   4.028  16.899  0.00  0.00    +0.000 C 
ATOM     25  C   UNL     1       3.593   3.347  18.160  0.00  0.00    +0.000 C 
ENDBRANCH  18  20
ENDBRANCH  16  18
ENDBRANCH   5  16
TORSDOF 6
ENDMDL
MODEL 4
REMARK VINA RESULT:      -6.7      1.302      1.626
REMARK  Name = 
REMARK  6 active torsions:
REMARK  status: ('A' for Active; 'I' for Inactive)
REMARK    1  A    between atoms: C_2  and  O_3
REMARK    2  A    between atoms: C_2  and  C_4
REMARK    3  A    between atoms: C_5  and  C_6
REMARK    4  A    between atoms: C_14  and  N_15
REMARK    5  A    between atoms: N_15  and  C_16
REMARK    6  A    between atoms: C_16  and  N_18
REMARK                            x       y       z     vdW  Elec       q    Type
REMARK                         _______ _______ _______ _____ _____    ______ ____
ROOT
ATOM      1  C   UNL     1       1.349   8.482  19.902  0.00  0.00    +0.000 A 
ATOM      2  C   UNL     1       0.992   9.506  18.925  0.00  0.00    +0.000 A 
ATOM      3  C   UNL     1       1.698   9.324  17.749  0.00  0.00    +0.000 A 
ATOM      4  S   UNL     1       2.798   8.035  17.819  0.00  0.00    +0.000 S 
ATOM      5  C   UNL     1       2.245   7.568  19.359  0.00  0.00    +0.000 A 
ENDROOT
BRANCH   2   6
ATOM      6  C   UNL     1       0.062  10.642  19.056  0.00  0.00    +0.000 A 
ATOM      7  C   UNL     1       0.393  11.746  19.862  0.00  0.00    +0.000 A 
ATOM      8  C   UNL     1      -0.524  12.776  20.087  0.00  0.00    +0.000 A 
ATOM      9  C   UNL     1      -1.790  12.716  19.517  0.00  0.00    +0.000 A 
ATOM     10  C   UNL     1      -2.117  11.658  18.675  0.00  0.00    +0.000 A 
ATOM     11  C   UNL     1      -1.189  10.642  18.425  0.00  0.00    +0.000 A 
ENDBRANCH   2   6
BRANCH   1  13
ATOM     12  O   UNL     1      -0.308   8.256  21.587  0.00  0.00    +0.000 OA
ATOM     13  C   UNL     1       0.864   8.390  21.276  0.00  0.00    +0.000 C 
BRANCH  13  14
ATOM     14  O   UNL     1       1.838   8.473  22.228  0.00  0.00    +0.000 OA
ATOM     15  H   UNL     1       1.902   7.649  22.755  0.00  0.00    +0.000 HD
ENDBRANCH  13  14
ENDBRANCH   1  13
BRANCH   5  16
ATOM     16  N   UNL     1       2.866   6.476  19.962  0.00  0.00    +0.000 N 
ATOM     17  H   UNL     1       3.428   6.665  20.786  0.00  0.00    +0.000 HD
BRANCH  16  18
ATOM     18  C   UNL     1       2.481   5.139  19.827  0.00  0.00    +0.000 C 
ATOM     19  S   UNL     1       1.229   4.430  20.711  0.00  0.00    +0.000 S 
BRANCH  18  20
ATOM     20  N   UNL     1       3.324   4.413  18.966  0.00  0.00    +0.000 N 
ATOM     21  C   UNL     1       3.012   4.143  17.548  0.00  0.00    +0.000 C 
ATOM     22  C   UNL     1       2.666   2.660  17.338  0.00  0.00    +0.000 C 
ATOM     23  O   UNL     1       3.690   1.794  17.853  0.00  0.00    +0.000 OA
ATOM     24  C   UNL     1       3.920   2.041  19.250  0.00  0.00    +0.000 C 
ATOM     25  C   UNL     1       4.374   3.491  19.456  0.00  0.00    +0.000 C 
ENDBRANCH  18  20
ENDBRANCH  16  18
ENDBRANCH   5  16
TORSDOF 6
ENDMDL
MODEL 5
REMARK VINA RESULT:      -6.7      1.820      2.411
REMARK  Name = 
REMARK  6 active torsions:
REMARK  status: ('A' for Active; 'I' for Inactive)
REMARK    1  A    between atoms: C_2  and  O_3
REMARK    2  A    between atoms: C_2  and  C_4
REMARK    3  A    between atoms: C_5  and  C_6
REMARK    4  A    between atoms: C_14  and  N_15
REMARK    5  A    between atoms: N_15  and  C_16
REMARK    6  A    between atoms: C_16  and  N_18
REMARK                            x       y       z     vdW  Elec       q    Type
REMARK                         _______ _______ _______ _____ _____    ______ ____
ROOT
ATOM      1  C   UNL     1       1.465   8.271  19.842  0.00  0.00    +0.000 A 
ATOM      2  C   UNL     1       1.218   9.261  18.797  0.00  0.00    +0.000 A 
ATOM      3  C   UNL     1       1.955   8.966  17.664  0.00  0.00    +0.000 A 
ATOM      4  S   UNL     1       2.961   7.614  17.850  0.00  0.00    +0.000 S 
ATOM      5  C   UNL     1       2.317   7.271  19.387  0.00  0.00    +0.000 A 
ENDROOT
BRANCH   2   6
ATOM      6  C   UNL     1       0.364  10.461  18.828  0.00  0.00    +0.000 A 
ATOM      7  C   UNL     1      -0.988  10.385  18.452  0.00  0.00    +0.000 A 
ATOM      8  C   UNL     1      -1.781  11.533  18.368  0.00  0.00    +0.000 A 
ATOM      9  C   UNL     1      -1.231  12.778  18.650  0.00  0.00    +0.000 A 
ATOM     10  C   UNL     1       0.090  12.868  19.075  0.00  0.00    +0.000 A 
ATOM     11  C   UNL     1       0.875  11.716  19.189  0.00  0.00    +0.000 A 
ENDBRANCH   2   6
BRANCH   1  13
ATOM     12  O   UNL     1      -0.257   8.132  21.470  0.00  0.00    +0.000 OA
ATOM     13  C   UNL     1       0.922   8.289  21.197  0.00  0.00    +0.000 C 
BRANCH  13  14
ATOM     14  O   UNL     1       1.846   8.507  22.176  0.00  0.00    +0.000 OA
ATOM     15  H   UNL     1       2.756   8.312  21.868  0.00  0.00    +0.000 HD
ENDBRANCH  13  14
ENDBRANCH   1  13
BRANCH   5  16
ATOM     16  N   UNL     1       2.837   6.176  20.074  0.00  0.00    +0.000 N 
ATOM     17  H   UNL     1       3.176   6.343  21.015  0.00  0.00    +0.000 HD
BRANCH  16  18
ATOM     18  C   UNL     1       2.571   4.833  19.792  0.00  0.00    +0.000 C 
ATOM     19  S   UNL     1       1.143   4.047  20.235  0.00  0.00    +0.000 S 
BRANCH  18  20
ATOM     20  N   UNL     1       3.665   4.170  19.207  0.00  0.00    +0.000 N 
ATOM     21  C   UNL     1       5.070   4.580  19.399  0.00  0.00    +0.000 C 
ATOM     22  C   UNL     1       5.641   5.198  18.112  0.00  0.00    +0.000 C 
ATOM     23  O   UNL     1       5.468   4.329  16.981  0.00  0.00    +0.000 OA
ATOM     24  C   UNL     1       4.082   4.004  16.786  0.00  0.00    +0.000 C 
ATOM     25  C   UNL     1       3.534   3.287  18.025  0.00  0.00    +0.000 C 
ENDBRANCH  18  20
ENDBRANCH  16  18
ENDBRANCH   5  16
TORSDOF 6
ENDMDL
MODEL 6
REMARK VINA RESULT:      -6.6      1.038      1.348
REMARK  Name = 
REMARK  6 active torsions:
REMARK  status: ('A' for Active; 'I' for Inactive)
REMARK    1  A    between atoms: C_2  and  O_3
REMARK    2  A    between atoms: C_2  and  C_4
REMARK    3  A    between atoms: C_5  and  C_6
REMARK    4  A    between atoms: C_14  and  N_15
REMARK    5  A    between atoms: N_15  and  C_16
REMARK    6  A    between atoms: C_16  and  N_18
REMARK                            x       y       z     vdW  Elec       q    Type
REMARK                         _______ _______ _______ _____ _____    ______ ____
ROOT
ATOM      1  C   UNL     1       1.563   8.301  19.819  0.00  0.00    +0.000 A 
ATOM      2  C   UNL     1       1.252   9.214  18.723  0.00  0.00    +0.000 A 
ATOM      3  C   UNL     1       1.992   8.895  17.599  0.00  0.00    +0.000 A 
ATOM      4  S   UNL     1       3.073   7.612  17.848  0.00  0.00    +0.000 S 
ATOM      5  C   UNL     1       2.465   7.324  19.411  0.00  0.00    +0.000 A 
ENDROOT
BRANCH   2   6
ATOM      6  C   UNL     1       0.333  10.366  18.698  0.00  0.00    +0.000 A 
ATOM      7  C   UNL     1       0.726  11.604  19.235  0.00  0.00    +0.000 A 
ATOM      8  C   UNL     1      -0.172  12.672  19.321  0.00  0.00    +0.000 A 
ATOM      9  C   UNL     1      -1.481  12.516  18.878  0.00  0.00    +0.000 A 
ATOM     10  C   UNL     1      -1.872  11.315  18.294  0.00  0.00    +0.000 A 
ATOM     11  C   UNL     1      -0.965  10.256  18.181  0.00  0.00    +0.000 A 
ENDBRANCH   2   6
BRANCH   1  13
ATOM     12  O   UNL     1      -0.147   8.265  21.464  0.00  0.00    +0.000 OA
ATOM     13  C   UNL     1       1.034   8.367  21.178  0.00  0.00    +0.000 C 
BRANCH  13  14
ATOM     14  O   UNL     1       1.976   8.563  22.145  0.00  0.00    +0.000 OA
ATOM     15  H   UNL     1       2.837   8.836  21.765  0.00  0.00    +0.000 HD
ENDBRANCH  13  14
ENDBRANCH   1  13
BRANCH   5  16
ATOM     16  N   UNL     1       3.052   6.300  20.152  0.00  0.00    +0.000 N 
ATOM     17  H   UNL     1       2.674   6.128  21.077  0.00  0.00    +0.000 HD
BRANCH  16  18
ATOM     18  C   UNL     1       3.795   5.237  19.630  0.00  0.00    +0.000 C 
ATOM     19  S   UNL     1       5.355   5.402  19.004  0.00  0.00    +0.000 S 
BRANCH  18  20
ATOM     20  N   UNL     1       3.063   4.037  19.569  0.00  0.00    +0.000 N 
ATOM     21  C   UNL     1       1.678   3.947  19.065  0.00  0.00    +0.000 C 
ATOM     22  C   UNL     1       0.694   3.681  20.217  0.00  0.00    +0.000 C 
ATOM     23  O   UNL     1       1.076   2.534  20.992  0.00  0.00    +0.000 OA
ATOM     24  C   UNL     1       2.405   2.687  21.520  0.00  0.00    +0.000 C 
ATOM     25  C   UNL     1       3.408   2.842  20.372  0.00  0.00    +0.000 C 
ENDBRANCH  18  20
ENDBRANCH  16  18
ENDBRANCH   5  16
TORSDOF 6
ENDMDL
MODEL 7
REMARK VINA RESULT:      -6.6      1.080      1.626
REMARK  Name = 
REMARK  6 active torsions:
REMARK  status: ('A' for Active; 'I' for Inactive)
REMARK    1  A    between atoms: C_2  and  O_3
REMARK    2  A    between atoms: C_2  and  C_4
REMARK    3  A    between atoms: C_5  and  C_6
REMARK    4  A    between atoms: C_14  and  N_15
REMARK    5  A    between atoms: N_15  and  C_16
REMARK    6  A    between atoms: C_16  and  N_18
REMARK                            x       y       z     vdW  Elec       q    Type
REMARK                         _______ _______ _______ _____ _____    ______ ____
ROOT
ATOM      1  C   UNL     1       1.596   8.282  19.879  0.00  0.00    +0.000 A 
ATOM      2  C   UNL     1       1.380   9.186  18.753  0.00  0.00    +0.000 A 
ATOM      3  C   UNL     1       2.106   8.772  17.651  0.00  0.00    +0.000 A 
ATOM      4  S   UNL     1       3.068   7.408  17.953  0.00  0.00    +0.000 S 
ATOM      5  C   UNL     1       2.415   7.220  19.514  0.00  0.00    +0.000 A 
ENDROOT
BRANCH   2   6
ATOM      6  C   UNL     1       0.565  10.411  18.680  0.00  0.00    +0.000 A 
ATOM      7  C   UNL     1      -0.790  10.346  18.312  0.00  0.00    +0.000 A 
ATOM      8  C   UNL     1      -1.546  11.507  18.128  0.00  0.00    +0.000 A 
ATOM      9  C   UNL     1      -0.956  12.754  18.301  0.00  0.00    +0.000 A 
ATOM     10  C   UNL     1       0.369  12.838  18.717  0.00  0.00    +0.000 A 
ATOM     11  C   UNL     1       1.117  11.675  18.931  0.00  0.00    +0.000 A 
ENDBRANCH   2   6
BRANCH   1  13
ATOM     12  O   UNL     1      -0.133   8.419  21.499  0.00  0.00    +0.000 OA
ATOM     13  C   UNL     1       1.056   8.434  21.227  0.00  0.00    +0.000 C 
BRANCH  13  14
ATOM     14  O   UNL     1       1.997   8.607  22.200  0.00  0.00    +0.000 OA
ATOM     15  H   UNL     1       1.601   8.933  23.035  0.00  0.00    +0.000 HD
ENDBRANCH  13  14
ENDBRANCH   1  13
BRANCH   5  16
ATOM     16  N   UNL     1       2.901   6.172  20.293  0.00  0.00    +0.000 N 
ATOM     17  H   UNL     1       2.431   5.999  21.175  0.00  0.00    +0.000 HD
BRANCH  16  18
ATOM     18  C   UNL     1       3.663   5.095  19.830  0.00  0.00    +0.000 C 
ATOM     19  S   UNL     1       5.218   5.253  19.191  0.00  0.00    +0.000 S 
BRANCH  18  20
ATOM     20  N   UNL     1       2.953   3.880  19.839  0.00  0.00    +0.000 N 
ATOM     21  C   UNL     1       3.596   2.555  19.733  0.00  0.00    +0.000 C 
ATOM     22  C   UNL     1       3.308   1.916  18.363  0.00  0.00    +0.000 C 
ATOM     23  O   UNL     1       1.900   1.873  18.079  0.00  0.00    +0.000 OA
ATOM     24  C   UNL     1       1.323   3.188  18.128  0.00  0.00    +0.000 C 
ATOM     25  C   UNL     1       1.509   3.789  19.526  0.00  0.00    +0.000 C 
ENDBRANCH  18  20
ENDBRANCH  16  18
ENDBRANCH   5  16
TORSDOF 6
ENDMDL
MODEL 8
REMARK VINA RESULT:      -6.6      1.030      1.413
REMARK  Name = 
REMARK  6 active torsions:
REMARK  status: ('A' for Active; 'I' for Inactive)
REMARK    1  A    between atoms: C_2  and  O_3
REMARK    2  A    between atoms: C_2  and  C_4
REMARK    3  A    between atoms: C_5  and  C_6
REMARK    4  A    between atoms: C_14  and  N_15
REMARK    5  A    between atoms: N_15  and  C_16
REMARK    6  A    between atoms: C_16  and  N_18
REMARK                            x       y       z     vdW  Elec       q    Type
REMARK                         _______ _______ _______ _____ _____    ______ ____
ROOT
ATOM      1  C   UNL     1       1.607   8.203  19.852  0.00  0.00    +0.000 A 
ATOM      2  C   UNL     1       1.437   9.098  18.711  0.00  0.00    +0.000 A 
ATOM      3  C   UNL     1       2.171   8.650  17.628  0.00  0.00    +0.000 A 
ATOM      4  S   UNL     1       3.089   7.265  17.965  0.00  0.00    +0.000 S 
ATOM      5  C   UNL     1       2.402   7.114  19.515  0.00  0.00    +0.000 A 
ENDROOT
BRANCH   2   6
ATOM      6  C   UNL     1       0.658  10.344  18.607  0.00  0.00    +0.000 A 
ATOM      7  C   UNL     1       1.277  11.592  18.799  0.00  0.00    +0.000 A 
ATOM      8  C   UNL     1       0.532  12.774  18.816  0.00  0.00    +0.000 A 
ATOM      9  C   UNL     1      -0.848  12.727  18.650  0.00  0.00    +0.000 A 
ATOM     10  C   UNL     1      -1.471  11.508  18.406  0.00  0.00    +0.000 A 
ATOM     11  C   UNL     1      -0.721  10.328  18.359  0.00  0.00    +0.000 A 
ENDBRANCH   2   6
BRANCH   1  13
ATOM     12  O   UNL     1      -0.147   8.372  21.442  0.00  0.00    +0.000 OA
ATOM     13  C   UNL     1       1.046   8.387  21.187  0.00  0.00    +0.000 C 
BRANCH  13  14
ATOM     14  O   UNL     1       1.971   8.590  22.169  0.00  0.00    +0.000 OA
ATOM     15  H   UNL     1       2.071   7.802  22.742  0.00  0.00    +0.000 HD
ENDBRANCH  13  14
ENDBRANCH   1  13
BRANCH   5  16
ATOM     16  N   UNL     1       2.844   6.063  20.316  0.00  0.00    +0.000 N 
ATOM     17  H   UNL     1       2.320   5.881  21.165  0.00  0.00    +0.000 HD
BRANCH  16  18
ATOM     18  C   UNL     1       3.640   4.994  19.895  0.00  0.00    +0.000 C 
ATOM     19  S   UNL     1       5.158   5.180  19.178  0.00  0.00    +0.000 S 
BRANCH  18  20
ATOM     20  N   UNL     1       2.994   3.750  20.018  0.00  0.00    +0.000 N 
ATOM     21  C   UNL     1       3.443   2.522  19.333  0.00  0.00    +0.000 C 
ATOM     22  C   UNL     1       2.469   2.137  18.206  0.00  0.00    +0.000 C 
ATOM     23  O   UNL     1       1.116   2.044  18.679  0.00  0.00    +0.000 OA
ATOM     24  C   UNL     1       0.692   3.279  19.280  0.00  0.00    +0.000 C 
ATOM     25  C   UNL     1       1.592   3.613  20.476  0.00  0.00    +0.000 C 
ENDBRANCH  18  20
ENDBRANCH  16  18
ENDBRANCH   5  16
TORSDOF 6
ENDMDL
MODEL 9
REMARK VINA RESULT:      -6.4      0.768      1.269
REMARK  Name = 
REMARK  6 active torsions:
REMARK  status: ('A' for Active; 'I' for Inactive)
REMARK    1  A    between atoms: C_2  and  O_3
REMARK    2  A    between atoms: C_2  and  C_4
REMARK    3  A    between atoms: C_5  and  C_6
REMARK    4  A    between atoms: C_14  and  N_15
REMARK    5  A    between atoms: N_15  and  C_16
REMARK    6  A    between atoms: C_16  and  N_18
REMARK                            x       y       z     vdW  Elec       q    Type
REMARK                         _______ _______ _______ _____ _____    ______ ____
ROOT
ATOM      1  C   UNL     1       1.277   8.988  20.141  0.00  0.00    +0.000 A 
ATOM      2  C   UNL     1       1.049   9.985  19.099  0.00  0.00    +0.000 A 
ATOM      3  C   UNL     1       1.630   9.587  17.908  0.00  0.00    +0.000 A 
ATOM      4  S   UNL     1       2.481   8.125  18.032  0.00  0.00    +0.000 S 
ATOM      5  C   UNL     1       1.954   7.885  19.633  0.00  0.00    +0.000 A 
ENDROOT
BRANCH   2   6
ATOM      6  C   UNL     1       0.352  11.281  19.180  0.00  0.00    +0.000 A 
ATOM      7  C   UNL     1      -0.979  11.348  19.628  0.00  0.00    +0.000 A 
ATOM      8  C   UNL     1      -1.690  12.551  19.604  0.00  0.00    +0.000 A 
ATOM      9  C   UNL     1      -1.084  13.706  19.123  0.00  0.00    +0.000 A 
ATOM     10  C   UNL     1       0.249  13.670  18.725  0.00  0.00    +0.000 A 
ATOM     11  C   UNL     1       0.970  12.472  18.778  0.00  0.00    +0.000 A 
ENDBRANCH   2   6
BRANCH   1  13
ATOM     12  O   UNL     1       1.485   9.724  22.387  0.00  0.00    +0.000 OA
ATOM     13  C   UNL     1       0.876   9.091  21.541  0.00  0.00    +0.000 C 
BRANCH  13  14
ATOM     14  O   UNL     1      -0.261   8.408  21.858  0.00  0.00    +0.000 OA
ATOM     15  H   UNL     1      -1.043   8.764  21.387  0.00  0.00    +0.000 HD
ENDBRANCH  13  14
ENDBRANCH   1  13
BRANCH   5  16
ATOM     16  N   UNL     1       2.405   6.745  20.295  0.00  0.00    +0.000 N 
ATOM     17  H   UNL     1       2.095   6.618  21.253  0.00  0.00    +0.000 HD
BRANCH  16  18
ATOM     18  C   UNL     1       2.874   5.578  19.685  0.00  0.00    +0.000 C 
ATOM     19  S   UNL     1       4.501   5.293  19.333  0.00  0.00    +0.000 S 
BRANCH  18  20
ATOM     20  N   UNL     1       1.837   4.716  19.285  0.00  0.00    +0.000 N 
ATOM     21  C   UNL     1       0.986   3.964  20.229  0.00  0.00    +0.000 C 
ATOM     22  C   UNL     1       1.317   2.463  20.187  0.00  0.00    +0.000 C 
ATOM     23  O   UNL     1       1.257   1.940  18.850  0.00  0.00    +0.000 OA
ATOM     24  C   UNL     1       2.146   2.653  17.975  0.00  0.00    +0.000 C 
ATOM     25  C   UNL     1       1.753   4.134  17.926  0.00  0.00    +0.000 C 
ENDBRANCH  18  20
ENDBRANCH  16  18
ENDBRANCH   5  16
TORSDOF 6
ENDMDL
